MODEL 1
REMARK VINA RESULT:      -8.6      0.000      0.000
REMARK  Name = 
REMARK  7 active torsions:
REMARK  status: ('A' for Active; 'I' for Inactive)
REMARK    1  A    between atoms: C_2  and  C_23
REMARK    2  A    between atoms: N_3  and  C_4
REMARK    3  A    between atoms: C_4  and  C_5
REMARK    4  A    between atoms: C_5  and  C_6
REMARK    5  A    between atoms: C_6  and  N_7
REMARK    6  A    between atoms: C_12  and  N_13
REMARK    7  A    between atoms: C_26  and  C_27
REMARK                            x       y       z     vdW  Elec       q    Type
REMARK                         _______ _______ _______ _____ _____    ______ ____
ROOT
ATOM      1  C   UNL     1       1.716   7.801  20.271  0.00  0.00    +0.000 C 
ENDROOT
BRANCH   1   2
ATOM      2  N   UNL     1       1.662   6.555  21.013  0.00  0.00    +0.000 N 
ATOM      3  C   UNL     1       2.362   5.496  20.458  0.00  0.00    +0.000 A 
ATOM      4  N   UNL     1       1.829   4.290  20.676  0.00  0.00    +0.000 NA
ATOM      5  C   UNL     1       2.489   3.234  20.173  0.00  0.00    +0.000 A 
ATOM      6  C   UNL     1       3.653   3.336  19.456  0.00  0.00    +0.000 A 
ATOM      7  C   UNL     1       4.140   4.613  19.277  0.00  0.00    +0.000 A 
ATOM      8  N   UNL     1       3.494   5.700  19.771  0.00  0.00    +0.000 NA
ATOM      9  H   UNL     1       0.731   6.195  21.197  0.00  0.00    +0.000 HD
BRANCH   7  10
ATOM     10  N   UNL     1       5.368   4.849  18.576  0.00  0.00    +0.000 N 
ATOM     11  C   UNL     1       6.532   5.289  19.194  0.00  0.00    +0.000 A 
ATOM     12  C   UNL     1       7.541   5.375  18.263  0.00  0.00    +0.000 A 
ATOM     13  C   UNL     1       6.991   5.009  17.013  0.00  0.00    +0.000 A 
ATOM     14  C   UNL     1       7.497   4.917  15.704  0.00  0.00    +0.000 A 
ATOM     15  C   UNL     1       6.625   4.526  14.690  0.00  0.00    +0.000 A 
ATOM     16  C   UNL     1       5.313   4.238  15.018  0.00  0.00    +0.000 A 
ATOM     17  N   UNL     1       4.779   4.300  16.255  0.00  0.00    +0.000 NA
ATOM     18  C   UNL     1       5.646   4.691  17.219  0.00  0.00    +0.000 A 
ENDBRANCH   7  10
ENDBRANCH   1   2
BRANCH   1  19
ATOM     19  C   UNL     1       1.098   8.911  21.124  0.00  0.00    +0.000 C 
BRANCH  19  20
ATOM     20  C   UNL     1       1.018  10.223  20.353  0.00  0.00    +0.000 C 
BRANCH  20  23
ATOM     21  O   UNL     1      -0.138   9.896  17.803  0.00  0.00    +0.000 OA
ATOM     22  C   UNL     1      -0.823  10.357  18.710  0.00  0.00    +0.000 C 
ATOM     23  N   UNL     1      -0.350  10.545  19.994  0.00  0.00    +0.000 N 
ATOM     24  H   UNL     1      -0.932  10.988  20.691  0.00  0.00    +0.000 HD
BRANCH  22  25
ATOM     25  C   UNL     1      -2.220  10.792  18.438  0.00  0.00    +0.000 A 
ATOM     26  C   UNL     1      -2.974  10.283  17.373  0.00  0.00    +0.000 A 
ATOM     27  C   UNL     1      -4.292  10.712  17.180  0.00  0.00    +0.000 A 
ATOM     28  C   UNL     1      -4.875  11.656  18.043  0.00  0.00    +0.000 A 
ATOM     29  C   UNL     1      -4.104  12.179  19.091  0.00  0.00    +0.000 A 
ATOM     30  C   UNL     1      -2.786  11.755  19.284  0.00  0.00    +0.000 A 
BRANCH  28  31
ATOM     31  C   UNL     1      -6.304  12.107  17.858  0.00  0.00    +0.000 C 
ATOM     32  F   UNL     1      -7.213  11.100  17.985  0.00  0.00    +0.000 F 
ATOM     33  F   UNL     1      -6.670  13.055  18.765  0.00  0.00    +0.000 F 
ATOM     34  F   UNL     1      -6.525  12.657  16.632  0.00  0.00    +0.000 F 
ENDBRANCH  28  31
ENDBRANCH  22  25
ENDBRANCH  20  23
ENDBRANCH  19  20
ENDBRANCH   1  19
TORSDOF 7
ENDMDL
MODEL 2
REMARK VINA RESULT:      -8.4      7.988     10.598
REMARK  Name = 
REMARK  7 active torsions:
REMARK  status: ('A' for Active; 'I' for Inactive)
REMARK    1  A    between atoms: C_2  and  C_23
REMARK    2  A    between atoms: N_3  and  C_4
REMARK    3  A    between atoms: C_4  and  C_5
REMARK    4  A    between atoms: C_5  and  C_6
REMARK    5  A    between atoms: C_6  and  N_7
REMARK    6  A    between atoms: C_12  and  N_13
REMARK    7  A    between atoms: C_26  and  C_27
REMARK                            x       y       z     vdW  Elec       q    Type
REMARK                         _______ _______ _______ _____ _____    ______ ____
ROOT
ATOM      1  C   UNL     1       8.004   7.717  17.988  0.00  0.00    +0.000 C 
ENDROOT
BRANCH   1   2
ATOM      2  N   UNL     1       7.655   7.224  16.669  0.00  0.00    +0.000 N 
ATOM      3  C   UNL     1       6.939   6.038  16.642  0.00  0.00    +0.000 A 
ATOM      4  N   UNL     1       7.184   5.254  15.587  0.00  0.00    +0.000 NA
ATOM      5  C   UNL     1       6.494   4.104  15.512  0.00  0.00    +0.000 A 
ATOM      6  C   UNL     1       5.578   3.704  16.451  0.00  0.00    +0.000 A 
ATOM      7  C   UNL     1       5.382   4.568  17.507  0.00  0.00    +0.000 A 
ATOM      8  N   UNL     1       6.065   5.736  17.611  0.00  0.00    +0.000 NA
ATOM      9  H   UNL     1       8.434   7.082  16.034  0.00  0.00    +0.000 HD
BRANCH   7  10
ATOM     10  N   UNL     1       4.425   4.280  18.534  0.00  0.00    +0.000 N 
ATOM     11  C   UNL     1       4.273   3.025  19.113  0.00  0.00    +0.000 A 
ATOM     12  C   UNL     1       3.309   3.086  20.092  0.00  0.00    +0.000 A 
ATOM     13  C   UNL     1       2.813   4.410  20.113  0.00  0.00    +0.000 A 
ATOM     14  C   UNL     1       1.829   5.081  20.859  0.00  0.00    +0.000 A 
ATOM     15  C   UNL     1       1.596   6.425  20.579  0.00  0.00    +0.000 A 
ATOM     16  C   UNL     1       2.347   7.037  19.592  0.00  0.00    +0.000 A 
ATOM     17  N   UNL     1       3.308   6.444  18.854  0.00  0.00    +0.000 NA
ATOM     18  C   UNL     1       3.507   5.136  19.142  0.00  0.00    +0.000 A 
ENDBRANCH   7  10
ENDBRANCH   1   2
BRANCH   1  19
ATOM     19  C   UNL     1       7.984   9.247  17.965  0.00  0.00    +0.000 C 
BRANCH  19  20
ATOM     20  C   UNL     1       9.049   9.829  18.887  0.00  0.00    +0.000 C 
BRANCH  20  23
ATOM     21  O   UNL     1      10.933  11.474  20.186  0.00  0.00    +0.000 OA
ATOM     22  C   UNL     1      10.266  11.945  19.271  0.00  0.00    +0.000 C 
ATOM     23  N   UNL     1       9.326  11.217  18.569  0.00  0.00    +0.000 N 
ATOM     24  H   UNL     1       8.756  11.666  17.866  0.00  0.00    +0.000 HD
BRANCH  22  25
ATOM     25  C   UNL     1      10.414  13.380  18.906  0.00  0.00    +0.000 A 
ATOM     26  C   UNL     1      11.182  13.805  17.814  0.00  0.00    +0.000 A 
ATOM     27  C   UNL     1      11.264  15.167  17.504  0.00  0.00    +0.000 A 
ATOM     28  C   UNL     1      10.587  16.124  18.280  0.00  0.00    +0.000 A 
ATOM     29  C   UNL     1       9.842  15.691  19.387  0.00  0.00    +0.000 A 
ATOM     30  C   UNL     1       9.760  14.332  19.700  0.00  0.00    +0.000 A 
BRANCH  28  31
ATOM     31  C   UNL     1      10.651  17.594  17.940  0.00  0.00    +0.000 C 
ATOM     32  F   UNL     1       9.452  18.114  17.552  0.00  0.00    +0.000 F 
ATOM     33  F   UNL     1      11.061  18.353  18.994  0.00  0.00    +0.000 F 
ATOM     34  F   UNL     1      11.519  17.860  16.926  0.00  0.00    +0.000 F 
ENDBRANCH  28  31
ENDBRANCH  22  25
ENDBRANCH  20  23
ENDBRANCH  19  20
ENDBRANCH   1  19
TORSDOF 7
ENDMDL
MODEL 3
REMARK VINA RESULT:      -8.4      5.378     11.649
REMARK  Name = 
REMARK  7 active torsions:
REMARK  status: ('A' for Active; 'I' for Inactive)
REMARK    1  A    between atoms: C_2  and  C_23
REMARK    2  A    between atoms: N_3  and  C_4
REMARK    3  A    between atoms: C_4  and  C_5
REMARK    4  A    between atoms: C_5  and  C_6
REMARK    5  A    between atoms: C_6  and  N_7
REMARK    6  A    between atoms: C_12  and  N_13
REMARK    7  A    between atoms: C_26  and  C_27
REMARK                            x       y       z     vdW  Elec       q    Type
REMARK                         _______ _______ _______ _____ _____    ______ ____
ROOT
ATOM      1  C   UNL     1      -0.659   9.923  19.157  0.00  0.00    +0.000 C 
ENDROOT
BRANCH   1   2
ATOM      2  N   UNL     1      -0.816  10.647  17.910  0.00  0.00    +0.000 N 
ATOM      3  C   UNL     1      -2.123  10.869  17.505  0.00  0.00    +0.000 A 
ATOM      4  N   UNL     1      -2.310  10.885  16.182  0.00  0.00    +0.000 NA
ATOM      5  C   UNL     1      -3.560  11.119  15.748  0.00  0.00    +0.000 A 
ATOM      6  C   UNL     1      -4.628  11.328  16.583  0.00  0.00    +0.000 A 
ATOM      7  C   UNL     1      -4.352  11.297  17.933  0.00  0.00    +0.000 A 
ATOM      8  N   UNL     1      -3.100  11.061  18.401  0.00  0.00    +0.000 NA
ATOM      9  H   UNL     1      -0.352  10.238  17.105  0.00  0.00    +0.000 HD
BRANCH   7  10
ATOM     10  N   UNL     1      -5.376  11.537  18.906  0.00  0.00    +0.000 N 
ATOM     11  C   UNL     1      -6.589  10.858  18.928  0.00  0.00    +0.000 A 
ATOM     12  C   UNL     1      -7.332  11.283  20.005  0.00  0.00    +0.000 A 
ATOM     13  C   UNL     1      -6.583  12.283  20.665  0.00  0.00    +0.000 A 
ATOM     14  C   UNL     1      -6.801  13.095  21.792  0.00  0.00    +0.000 A 
ATOM     15  C   UNL     1      -5.811  14.010  22.144  0.00  0.00    +0.000 A 
ATOM     16  C   UNL     1      -4.660  14.068  21.380  0.00  0.00    +0.000 A 
ATOM     17  N   UNL     1      -4.395  13.308  20.298  0.00  0.00    +0.000 NA
ATOM     18  C   UNL     1      -5.378  12.435  19.973  0.00  0.00    +0.000 A 
ENDBRANCH   7  10
ENDBRANCH   1   2
BRANCH   1  19
ATOM     19  C   UNL     1       0.779  10.097  19.651  0.00  0.00    +0.000 C 
BRANCH  19  20
ATOM     20  C   UNL     1       1.347   8.783  20.175  0.00  0.00    +0.000 C 
BRANCH  20  23
ATOM     21  O   UNL     1       2.097   6.066  20.207  0.00  0.00    +0.000 OA
ATOM     22  C   UNL     1       2.471   6.774  19.278  0.00  0.00    +0.000 C 
ATOM     23  N   UNL     1       2.148   8.112  19.169  0.00  0.00    +0.000 N 
ATOM     24  H   UNL     1       2.534   8.669  18.419  0.00  0.00    +0.000 HD
BRANCH  22  25
ATOM     25  C   UNL     1       3.360   6.209  18.226  0.00  0.00    +0.000 A 
ATOM     26  C   UNL     1       4.083   7.017  17.338  0.00  0.00    +0.000 A 
ATOM     27  C   UNL     1       4.923   6.430  16.384  0.00  0.00    +0.000 A 
ATOM     28  C   UNL     1       5.050   5.034  16.299  0.00  0.00    +0.000 A 
ATOM     29  C   UNL     1       4.302   4.233  17.175  0.00  0.00    +0.000 A 
ATOM     30  C   UNL     1       3.461   4.816  18.126  0.00  0.00    +0.000 A 
BRANCH  28  31
ATOM     31  C   UNL     1       5.971   4.391  15.290  0.00  0.00    +0.000 C 
ATOM     32  F   UNL     1       7.248   4.866  15.340  0.00  0.00    +0.000 F 
ATOM     33  F   UNL     1       6.069   3.043  15.460  0.00  0.00    +0.000 F 
ATOM     34  F   UNL     1       5.554   4.578  14.007  0.00  0.00    +0.000 F 
ENDBRANCH  28  31
ENDBRANCH  22  25
ENDBRANCH  20  23
ENDBRANCH  19  20
ENDBRANCH   1  19
TORSDOF 7
ENDMDL
MODEL 4
REMARK VINA RESULT:      -8.4      5.139     11.265
REMARK  Name = 
REMARK  7 active torsions:
REMARK  status: ('A' for Active; 'I' for Inactive)
REMARK    1  A    between atoms: C_2  and  C_23
REMARK    2  A    between atoms: N_3  and  C_4
REMARK    3  A    between atoms: C_4  and  C_5
REMARK    4  A    between atoms: C_5  and  C_6
REMARK    5  A    between atoms: C_6  and  N_7
REMARK    6  A    between atoms: C_12  and  N_13
REMARK    7  A    between atoms: C_26  and  C_27
REMARK                            x       y       z     vdW  Elec       q    Type
REMARK                         _______ _______ _______ _____ _____    ______ ____
ROOT
ATOM      1  C   UNL     1      -0.634  11.149  19.169  0.00  0.00    +0.000 C 
ENDROOT
BRANCH   1   2
ATOM      2  N   UNL     1      -1.017  11.661  17.867  0.00  0.00    +0.000 N 
ATOM      3  C   UNL     1      -2.343  11.469  17.512  0.00  0.00    +0.000 A 
ATOM      4  N   UNL     1      -2.558  11.289  16.206  0.00  0.00    +0.000 NA
ATOM      5  C   UNL     1      -3.833  11.121  15.818  0.00  0.00    +0.000 A 
ATOM      6  C   UNL     1      -4.897  11.116  16.683  0.00  0.00    +0.000 A 
ATOM      7  C   UNL     1      -4.592  11.310  18.013  0.00  0.00    +0.000 A 
ATOM      8  N   UNL     1      -3.313  11.481  18.435  0.00  0.00    +0.000 NA
ATOM      9  H   UNL     1      -0.476  11.311  17.083  0.00  0.00    +0.000 HD
BRANCH   7  10
ATOM     10  N   UNL     1      -5.620  11.363  19.010  0.00  0.00    +0.000 N 
ATOM     11  C   UNL     1      -6.522  10.330  19.239  0.00  0.00    +0.000 A 
ATOM     12  C   UNL     1      -7.348  10.668  20.286  0.00  0.00    +0.000 A 
ATOM     13  C   UNL     1      -6.980  11.964  20.712  0.00  0.00    +0.000 A 
ATOM     14  C   UNL     1      -7.447  12.845  21.704  0.00  0.00    +0.000 A 
ATOM     15  C   UNL     1      -6.828  14.087  21.822  0.00  0.00    +0.000 A 
ATOM     16  C   UNL     1      -5.781  14.391  20.971  0.00  0.00    +0.000 A 
ATOM     17  N   UNL     1      -5.288  13.582  20.011  0.00  0.00    +0.000 NA
ATOM     18  C   UNL     1      -5.914  12.385  19.913  0.00  0.00    +0.000 A 
ENDBRANCH   7  10
ENDBRANCH   1   2
BRANCH   1  19
ATOM     19  C   UNL     1       0.879  11.301  19.335  0.00  0.00    +0.000 C 
BRANCH  19  20
ATOM     20  C   UNL     1       1.636  10.370  18.396  0.00  0.00    +0.000 C 
BRANCH  20  23
ATOM     21  O   UNL     1       3.045   8.209  17.259  0.00  0.00    +0.000 OA
ATOM     22  C   UNL     1       2.359   8.011  18.257  0.00  0.00    +0.000 C 
ATOM     23  N   UNL     1       1.641   9.006  18.890  0.00  0.00    +0.000 N 
ATOM     24  H   UNL     1       1.039   8.781  19.670  0.00  0.00    +0.000 HD
BRANCH  22  25
ATOM     25  C   UNL     1       2.231   6.635  18.809  0.00  0.00    +0.000 A 
ATOM     26  C   UNL     1       2.333   5.490  18.008  0.00  0.00    +0.000 A 
ATOM     27  C   UNL     1       2.229   4.220  18.587  0.00  0.00    +0.000 A 
ATOM     28  C   UNL     1       2.017   4.073  19.968  0.00  0.00    +0.000 A 
ATOM     29  C   UNL     1       1.891   5.226  20.758  0.00  0.00    +0.000 A 
ATOM     30  C   UNL     1       1.992   6.495  20.182  0.00  0.00    +0.000 A 
BRANCH  28  31
ATOM     31  C   UNL     1       1.927   2.707  20.605  0.00  0.00    +0.000 C 
ATOM     32  F   UNL     1       3.082   2.313  21.212  0.00  0.00    +0.000 F 
ATOM     33  F   UNL     1       0.963   2.646  21.566  0.00  0.00    +0.000 F 
ATOM     34  F   UNL     1       1.624   1.730  19.707  0.00  0.00    +0.000 F 
ENDBRANCH  28  31
ENDBRANCH  22  25
ENDBRANCH  20  23
ENDBRANCH  19  20
ENDBRANCH   1  19
TORSDOF 7
ENDMDL
MODEL 5
REMARK VINA RESULT:      -8.3      5.461     11.707
REMARK  Name = 
REMARK  7 active torsions:
REMARK  status: ('A' for Active; 'I' for Inactive)
REMARK    1  A    between atoms: C_2  and  C_23
REMARK    2  A    between atoms: N_3  and  C_4
REMARK    3  A    between atoms: C_4  and  C_5
REMARK    4  A    between atoms: C_5  and  C_6
REMARK    5  A    between atoms: C_6  and  N_7
REMARK    6  A    between atoms: C_12  and  N_13
REMARK    7  A    between atoms: C_26  and  C_27
REMARK                            x       y       z     vdW  Elec       q    Type
REMARK                         _______ _______ _______ _____ _____    ______ ____
ROOT
ATOM      1  C   UNL     1      -0.359  11.009  18.958  0.00  0.00    +0.000 C 
ENDROOT
BRANCH   1   2
ATOM      2  N   UNL     1      -0.820  11.482  17.666  0.00  0.00    +0.000 N 
ATOM      3  C   UNL     1      -2.186  11.395  17.448  0.00  0.00    +0.000 A 
ATOM      4  N   UNL     1      -2.543  11.165  16.181  0.00  0.00    +0.000 NA
ATOM      5  C   UNL     1      -3.859  11.095  15.923  0.00  0.00    +0.000 A 
ATOM      6  C   UNL     1      -4.830  11.236  16.881  0.00  0.00    +0.000 A 
ATOM      7  C   UNL     1      -4.381  11.473  18.162  0.00  0.00    +0.000 A 
ATOM      8  N   UNL     1      -3.057  11.547  18.453  0.00  0.00    +0.000 NA
ATOM      9  H   UNL     1      -0.391  11.041  16.859  0.00  0.00    +0.000 HD
BRANCH   7  10
ATOM     10  N   UNL     1      -5.298  11.675  19.245  0.00  0.00    +0.000 N 
ATOM     11  C   UNL     1      -6.504  10.995  19.368  0.00  0.00    +0.000 A 
ATOM     12  C   UNL     1      -7.130  11.379  20.531  0.00  0.00    +0.000 A 
ATOM     13  C   UNL     1      -6.313  12.354  21.147  0.00  0.00    +0.000 A 
ATOM     14  C   UNL     1      -6.411  13.123  22.320  0.00  0.00    +0.000 A 
ATOM     15  C   UNL     1      -5.387  14.025  22.601  0.00  0.00    +0.000 A 
ATOM     16  C   UNL     1      -4.321  14.113  21.724  0.00  0.00    +0.000 A 
ATOM     17  N   UNL     1      -4.172  13.394  20.592  0.00  0.00    +0.000 NA
ATOM     18  C   UNL     1      -5.186  12.533  20.340  0.00  0.00    +0.000 A 
ENDBRANCH   7  10
ENDBRANCH   1   2
BRANCH   1  19
ATOM     19  C   UNL     1       1.072  10.489  18.810  0.00  0.00    +0.000 C 
BRANCH  19  20
ATOM     20  C   UNL     1       1.210   9.078  19.371  0.00  0.00    +0.000 C 
BRANCH  20  23
ATOM     21  O   UNL     1       2.122   6.484  19.992  0.00  0.00    +0.000 OA
ATOM     22  C   UNL     1       2.463   6.995  18.930  0.00  0.00    +0.000 C 
ATOM     23  N   UNL     1       2.062   8.255  18.534  0.00  0.00    +0.000 N 
ATOM     24  H   UNL     1       2.422   8.658  17.680  0.00  0.00    +0.000 HD
BRANCH  22  25
ATOM     25  C   UNL     1       3.397   6.271  18.025  0.00  0.00    +0.000 A 
ATOM     26  C   UNL     1       3.401   4.875  17.907  0.00  0.00    +0.000 A 
ATOM     27  C   UNL     1       4.285   4.250  17.020  0.00  0.00    +0.000 A 
ATOM     28  C   UNL     1       5.179   5.006  16.244  0.00  0.00    +0.000 A 
ATOM     29  C   UNL     1       5.186   6.401  16.388  0.00  0.00    +0.000 A 
ATOM     30  C   UNL     1       4.306   7.027  17.275  0.00  0.00    +0.000 A 
BRANCH  28  31
ATOM     31  C   UNL     1       6.121   4.343  15.268  0.00  0.00    +0.000 C 
ATOM     32  F   UNL     1       5.955   4.763  13.982  0.00  0.00    +0.000 F 
ATOM     33  F   UNL     1       7.429   4.576  15.569  0.00  0.00    +0.000 F 
ATOM     34  F   UNL     1       5.979   2.989  15.240  0.00  0.00    +0.000 F 
ENDBRANCH  28  31
ENDBRANCH  22  25
ENDBRANCH  20  23
ENDBRANCH  19  20
ENDBRANCH   1  19
TORSDOF 7
ENDMDL
MODEL 6
REMARK VINA RESULT:      -8.3      5.559     10.702
REMARK  Name = 
REMARK  7 active torsions:
REMARK  status: ('A' for Active; 'I' for Inactive)
REMARK    1  A    between atoms: C_2  and  C_23
REMARK    2  A    between atoms: N_3  and  C_4
REMARK    3  A    between atoms: C_4  and  C_5
REMARK    4  A    between atoms: C_5  and  C_6
REMARK    5  A    between atoms: C_6  and  N_7
REMARK    6  A    between atoms: C_12  and  N_13
REMARK    7  A    between atoms: C_26  and  C_27
REMARK                            x       y       z     vdW  Elec       q    Type
REMARK                         _______ _______ _______ _____ _____    ______ ____
ROOT
ATOM      1  C   UNL     1       2.383   5.472  20.533  0.00  0.00    +0.000 C 
ENDROOT
BRANCH   1   2
ATOM      2  N   UNL     1       2.994   6.438  19.640  0.00  0.00    +0.000 N 
ATOM      3  C   UNL     1       2.279   7.609  19.441  0.00  0.00    +0.000 A 
ATOM      4  N   UNL     1       2.413   8.155  18.228  0.00  0.00    +0.000 NA
ATOM      5  C   UNL     1       1.753   9.302  18.003  0.00  0.00    +0.000 A 
ATOM      6  C   UNL     1       0.959   9.919  18.936  0.00  0.00    +0.000 A 
ATOM      7  C   UNL     1       0.875   9.296  20.162  0.00  0.00    +0.000 A 
ATOM      8  N   UNL     1       1.529   8.134  20.418  0.00  0.00    +0.000 NA
ATOM      9  H   UNL     1       3.213   6.097  18.709  0.00  0.00    +0.000 HD
BRANCH   7  10
ATOM     10  N   UNL     1       0.107   9.861  21.232  0.00  0.00    +0.000 N 
ATOM     11  C   UNL     1       0.110   9.359  22.528  0.00  0.00    +0.000 A 
ATOM     12  C   UNL     1      -0.689  10.144  23.325  0.00  0.00    +0.000 A 
ATOM     13  C   UNL     1      -1.240  11.155  22.504  0.00  0.00    +0.000 A 
ATOM     14  C   UNL     1      -2.126  12.225  22.719  0.00  0.00    +0.000 A 
ATOM     15  C   UNL     1      -2.465  13.025  21.631  0.00  0.00    +0.000 A 
ATOM     16  C   UNL     1      -1.909  12.738  20.397  0.00  0.00    +0.000 A 
ATOM     17  N   UNL     1      -1.049  11.732  20.137  0.00  0.00    +0.000 NA
ATOM     18  C   UNL     1      -0.744  10.965  21.211  0.00  0.00    +0.000 A 
ENDBRANCH   7  10
ENDBRANCH   1   2
BRANCH   1  19
ATOM     19  C   UNL     1       2.326   4.116  19.828  0.00  0.00    +0.000 C 
BRANCH  19  20
ATOM     20  C   UNL     1       3.703   3.467  19.762  0.00  0.00    +0.000 C 
BRANCH  20  23
ATOM     21  O   UNL     1       5.835   5.050  18.815  0.00  0.00    +0.000 OA
ATOM     22  C   UNL     1       5.272   4.286  18.037  0.00  0.00    +0.000 C 
ATOM     23  N   UNL     1       4.225   3.465  18.409  0.00  0.00    +0.000 N 
ATOM     24  H   UNL     1       3.751   2.901  17.717  0.00  0.00    +0.000 HD
BRANCH  22  25
ATOM     25  C   UNL     1       5.675   4.254  16.605  0.00  0.00    +0.000 A 
ATOM     26  C   UNL     1       6.930   4.696  16.166  0.00  0.00    +0.000 A 
ATOM     27  C   UNL     1       7.264   4.619  14.809  0.00  0.00    +0.000 A 
ATOM     28  C   UNL     1       6.351   4.106  13.872  0.00  0.00    +0.000 A 
ATOM     29  C   UNL     1       5.087   3.691  14.317  0.00  0.00    +0.000 A 
ATOM     30  C   UNL     1       4.751   3.769  15.671  0.00  0.00    +0.000 A 
BRANCH  28  31
ATOM     31  C   UNL     1       6.710   3.997  12.409  0.00  0.00    +0.000 C 
ATOM     32  F   UNL     1       5.663   4.245  11.573  0.00  0.00    +0.000 F 
ATOM     33  F   UNL     1       7.689   4.873  12.048  0.00  0.00    +0.000 F 
ATOM     34  F   UNL     1       7.171   2.761  12.074  0.00  0.00    +0.000 F 
ENDBRANCH  28  31
ENDBRANCH  22  25
ENDBRANCH  20  23
ENDBRANCH  19  20
ENDBRANCH   1  19
TORSDOF 7
ENDMDL
MODEL 7
REMARK VINA RESULT:      -8.1      5.153     10.901
REMARK  Name = 
REMARK  7 active torsions:
REMARK  status: ('A' for Active; 'I' for Inactive)
REMARK    1  A    between atoms: C_2  and  C_23
REMARK    2  A    between atoms: N_3  and  C_4
REMARK    3  A    between atoms: C_4  and  C_5
REMARK    4  A    between atoms: C_5  and  C_6
REMARK    5  A    between atoms: C_6  and  N_7
REMARK    6  A    between atoms: C_12  and  N_13
REMARK    7  A    between atoms: C_26  and  C_27
REMARK                            x       y       z     vdW  Elec       q    Type
REMARK                         _______ _______ _______ _____ _____    ______ ____
ROOT
ATOM      1  C   UNL     1      -0.139   9.508  21.730  0.00  0.00    +0.000 C 
ENDROOT
BRANCH   1   2
ATOM      2  N   UNL     1       0.299  10.886  21.617  0.00  0.00    +0.000 N 
ATOM      3  C   UNL     1      -0.084  11.545  20.459  0.00  0.00    +0.000 A 
ATOM      4  N   UNL     1       0.782  12.461  20.017  0.00  0.00    +0.000 NA
ATOM      5  C   UNL     1       0.438  13.138  18.909  0.00  0.00    +0.000 A 
ATOM      6  C   UNL     1      -0.731  12.929  18.223  0.00  0.00    +0.000 A 
ATOM      7  C   UNL     1      -1.571  11.969  18.744  0.00  0.00    +0.000 A 
ATOM      8  N   UNL     1      -1.250  11.268  19.861  0.00  0.00    +0.000 NA
ATOM      9  H   UNL     1       1.300  11.036  21.692  0.00  0.00    +0.000 HD
BRANCH   7  10
ATOM     10  N   UNL     1      -2.839  11.684  18.139  0.00  0.00    +0.000 N 
ATOM     11  C   UNL     1      -2.979  11.184  16.850  0.00  0.00    +0.000 A 
ATOM     12  C   UNL     1      -4.313  10.977  16.582  0.00  0.00    +0.000 A 
ATOM     13  C   UNL     1      -5.040  11.388  17.722  0.00  0.00    +0.000 A 
ATOM     14  C   UNL     1      -6.406  11.441  18.053  0.00  0.00    +0.000 A 
ATOM     15  C   UNL     1      -6.758  11.940  19.304  0.00  0.00    +0.000 A 
ATOM     16  C   UNL     1      -5.754  12.346  20.164  0.00  0.00    +0.000 A 
ATOM     17  N   UNL     1      -4.432  12.308  19.902  0.00  0.00    +0.000 NA
ATOM     18  C   UNL     1      -4.118  11.828  18.675  0.00  0.00    +0.000 A 
ENDBRANCH   7  10
ENDBRANCH   1   2
BRANCH   1  19
ATOM     19  C   UNL     1       0.499   8.694  20.602  0.00  0.00    +0.000 C 
BRANCH  19  20
ATOM     20  C   UNL     1       1.511   7.692  21.146  0.00  0.00    +0.000 C 
BRANCH  20  23
ATOM     21  O   UNL     1       1.572   5.073  20.105  0.00  0.00    +0.000 OA
ATOM     22  C   UNL     1       2.358   5.906  19.663  0.00  0.00    +0.000 C 
ATOM     23  N   UNL     1       2.398   7.214  20.102  0.00  0.00    +0.000 N 
ATOM     24  H   UNL     1       3.106   7.846  19.755  0.00  0.00    +0.000 HD
BRANCH  22  25
ATOM     25  C   UNL     1       3.365   5.508  18.642  0.00  0.00    +0.000 A 
ATOM     26  C   UNL     1       3.850   4.199  18.532  0.00  0.00    +0.000 A 
ATOM     27  C   UNL     1       4.779   3.877  17.536  0.00  0.00    +0.000 A 
ATOM     28  C   UNL     1       5.240   4.856  16.640  0.00  0.00    +0.000 A 
ATOM     29  C   UNL     1       4.768   6.171  16.773  0.00  0.00    +0.000 A 
ATOM     30  C   UNL     1       3.843   6.494  17.769  0.00  0.00    +0.000 A 
BRANCH  28  31
ATOM     31  C   UNL     1       6.224   4.515  15.546  0.00  0.00    +0.000 C 
ATOM     32  F   UNL     1       6.003   3.297  14.977  0.00  0.00    +0.000 F 
ATOM     33  F   UNL     1       6.194   5.414  14.523  0.00  0.00    +0.000 F 
ATOM     34  F   UNL     1       7.511   4.493  15.989  0.00  0.00    +0.000 F 
ENDBRANCH  28  31
ENDBRANCH  22  25
ENDBRANCH  20  23
ENDBRANCH  19  20
ENDBRANCH   1  19
TORSDOF 7
ENDMDL
MODEL 8
REMARK VINA RESULT:      -8.1      5.175     10.799
REMARK  Name = 
REMARK  7 active torsions:
REMARK  status: ('A' for Active; 'I' for Inactive)
REMARK    1  A    between atoms: C_2  and  C_23
REMARK    2  A    between atoms: N_3  and  C_4
REMARK    3  A    between atoms: C_4  and  C_5
REMARK    4  A    between atoms: C_5  and  C_6
REMARK    5  A    between atoms: C_6  and  N_7
REMARK    6  A    between atoms: C_12  and  N_13
REMARK    7  A    between atoms: C_26  and  C_27
REMARK                            x       y       z     vdW  Elec       q    Type
REMARK                         _______ _______ _______ _____ _____    ______ ____
ROOT
ATOM      1  C   UNL     1       1.234   9.073  19.893  0.00  0.00    +0.000 C 
ENDROOT
BRANCH   1   2
ATOM      2  N   UNL     1       1.374  10.463  20.284  0.00  0.00    +0.000 N 
ATOM      3  C   UNL     1       0.662  11.376  19.521  0.00  0.00    +0.000 A 
ATOM      4  N   UNL     1       1.241  12.573  19.386  0.00  0.00    +0.000 NA
ATOM      5  C   UNL     1       0.572  13.493  18.672  0.00  0.00    +0.000 A 
ATOM      6  C   UNL     1      -0.645  13.262  18.082  0.00  0.00    +0.000 A 
ATOM      7  C   UNL     1      -1.175  12.004  18.271  0.00  0.00    +0.000 A 
ATOM      8  N   UNL     1      -0.522  11.053  18.985  0.00  0.00    +0.000 NA
ATOM      9  H   UNL     1       2.325  10.817  20.307  0.00  0.00    +0.000 HD
BRANCH   7  10
ATOM     10  N   UNL     1      -2.457  11.652  17.736  0.00  0.00    +0.000 N 
ATOM     11  C   UNL     1      -2.639  11.108  16.470  0.00  0.00    +0.000 A 
ATOM     12  C   UNL     1      -3.974  10.841  16.273  0.00  0.00    +0.000 A 
ATOM     13  C   UNL     1      -4.662  11.256  17.436  0.00  0.00    +0.000 A 
ATOM     14  C   UNL     1      -6.011  11.264  17.831  0.00  0.00    +0.000 A 
ATOM     15  C   UNL     1      -6.324  11.785  19.084  0.00  0.00    +0.000 A 
ATOM     16  C   UNL     1      -5.298  12.257  19.883  0.00  0.00    +0.000 A 
ATOM     17  N   UNL     1      -3.989  12.263  19.557  0.00  0.00    +0.000 NA
ATOM     18  C   UNL     1      -3.715  11.760  18.331  0.00  0.00    +0.000 A 
ENDBRANCH   7  10
ENDBRANCH   1   2
BRANCH   1  19
ATOM     19  C   UNL     1       0.693   8.278  21.082  0.00  0.00    +0.000 C 
BRANCH  19  20
ATOM     20  C   UNL     1       1.337   6.899  21.167  0.00  0.00    +0.000 C 
BRANCH  20  23
ATOM     21  O   UNL     1       1.718   4.408  19.905  0.00  0.00    +0.000 OA
ATOM     22  C   UNL     1       2.330   5.385  19.486  0.00  0.00    +0.000 C 
ATOM     23  N   UNL     1       2.203   6.647  20.031  0.00  0.00    +0.000 N 
ATOM     24  H   UNL     1       2.777   7.407  19.693  0.00  0.00    +0.000 HD
BRANCH  22  25
ATOM     25  C   UNL     1       3.303   5.229  18.370  0.00  0.00    +0.000 A 
ATOM     26  C   UNL     1       4.031   6.307  17.850  0.00  0.00    +0.000 A 
ATOM     27  C   UNL     1       4.952   6.097  16.817  0.00  0.00    +0.000 A 
ATOM     28  C   UNL     1       5.155   4.812  16.285  0.00  0.00    +0.000 A 
ATOM     29  C   UNL     1       4.402   3.743  16.795  0.00  0.00    +0.000 A 
ATOM     30  C   UNL     1       3.481   3.951  17.824  0.00  0.00    +0.000 A 
BRANCH  28  31
ATOM     31  C   UNL     1       6.162   4.570  15.186  0.00  0.00    +0.000 C 
ATOM     32  F   UNL     1       6.240   5.590  14.286  0.00  0.00    +0.000 F 
ATOM     33  F   UNL     1       7.425   4.402  15.668  0.00  0.00    +0.000 F 
ATOM     34  F   UNL     1       5.886   3.452  14.460  0.00  0.00    +0.000 F 
ENDBRANCH  28  31
ENDBRANCH  22  25
ENDBRANCH  20  23
ENDBRANCH  19  20
ENDBRANCH   1  19
TORSDOF 7
ENDMDL
MODEL 9
REMARK VINA RESULT:      -8.1      5.091     11.167
REMARK  Name = 
REMARK  7 active torsions:
REMARK  status: ('A' for Active; 'I' for Inactive)
REMARK    1  A    between atoms: C_2  and  C_23
REMARK    2  A    between atoms: N_3  and  C_4
REMARK    3  A    between atoms: C_4  and  C_5
REMARK    4  A    between atoms: C_5  and  C_6
REMARK    5  A    between atoms: C_6  and  N_7
REMARK    6  A    between atoms: C_12  and  N_13
REMARK    7  A    between atoms: C_26  and  C_27
REMARK                            x       y       z     vdW  Elec       q    Type
REMARK                         _______ _______ _______ _____ _____    ______ ____
ROOT
ATOM      1  C   UNL     1      -0.538  11.012  19.008  0.00  0.00    +0.000 C 
ENDROOT
BRANCH   1   2
ATOM      2  N   UNL     1      -1.198  11.484  17.806  0.00  0.00    +0.000 N 
ATOM      3  C   UNL     1      -2.577  11.601  17.884  0.00  0.00    +0.000 A 
ATOM      4  N   UNL     1      -3.230  11.363  16.742  0.00  0.00    +0.000 NA
ATOM      5  C   UNL     1      -4.567  11.487  16.771  0.00  0.00    +0.000 A 
ATOM      6  C   UNL     1      -5.275  11.829  17.895  0.00  0.00    +0.000 A 
ATOM      7  C   UNL     1      -4.529  12.059  19.030  0.00  0.00    +0.000 A 
ATOM      8  N   UNL     1      -3.177  11.940  19.032  0.00  0.00    +0.000 NA
ATOM      9  H   UNL     1      -1.022  10.940  16.967  0.00  0.00    +0.000 HD
BRANCH   7  10
ATOM     10  N   UNL     1      -5.150  12.458  20.258  0.00  0.00    +0.000 N 
ATOM     11  C   UNL     1      -6.494  12.794  20.366  0.00  0.00    +0.000 A 
ATOM     12  C   UNL     1      -6.789  13.087  21.677  0.00  0.00    +0.000 A 
ATOM     13  C   UNL     1      -5.590  12.965  22.416  0.00  0.00    +0.000 A 
ATOM     14  C   UNL     1      -5.242  13.147  23.766  0.00  0.00    +0.000 A 
ATOM     15  C   UNL     1      -3.914  12.946  24.134  0.00  0.00    +0.000 A 
ATOM     16  C   UNL     1      -3.006  12.567  23.162  0.00  0.00    +0.000 A 
ATOM     17  N   UNL     1      -3.287  12.370  21.858  0.00  0.00    +0.000 NA
ATOM     18  C   UNL     1      -4.583  12.581  21.527  0.00  0.00    +0.000 A 
ENDBRANCH   7  10
ENDBRANCH   1   2
BRANCH   1  19
ATOM     19  C   UNL     1       0.949  11.363  18.925  0.00  0.00    +0.000 C 
BRANCH  19  20
ATOM     20  C   UNL     1       1.712  10.346  18.084  0.00  0.00    +0.000 C 
BRANCH  20  23
ATOM     21  O   UNL     1       3.055   8.064  17.117  0.00  0.00    +0.000 OA
ATOM     22  C   UNL     1       2.408   7.976  18.155  0.00  0.00    +0.000 C 
ATOM     23  N   UNL     1       1.724   9.039  18.712  0.00  0.00    +0.000 N 
ATOM     24  H   UNL     1       1.151   8.901  19.534  0.00  0.00    +0.000 HD
BRANCH  22  25
ATOM     25  C   UNL     1       2.288   6.664  18.847  0.00  0.00    +0.000 A 
ATOM     26  C   UNL     1       1.982   6.555  20.210  0.00  0.00    +0.000 A 
ATOM     27  C   UNL     1       1.858   5.293  20.801  0.00  0.00    +0.000 A 
ATOM     28  C   UNL     1       2.042   4.123  20.045  0.00  0.00    +0.000 A 
ATOM     29  C   UNL     1       2.375   4.242  18.687  0.00  0.00    +0.000 A 
ATOM     30  C   UNL     1       2.501   5.501  18.095  0.00  0.00    +0.000 A 
BRANCH  28  31
ATOM     31  C   UNL     1       1.888   2.756  20.668  0.00  0.00    +0.000 C 
ATOM     32  F   UNL     1       0.937   2.708  21.643  0.00  0.00    +0.000 F 
ATOM     33  F   UNL     1       1.534   1.808  19.757  0.00  0.00    +0.000 F 
ATOM     34  F   UNL     1       3.038   2.312  21.245  0.00  0.00    +0.000 F 
ENDBRANCH  28  31
ENDBRANCH  22  25
ENDBRANCH  20  23
ENDBRANCH  19  20
ENDBRANCH   1  19
TORSDOF 7
ENDMDL
