MODEL 1
REMARK VINA RESULT:      -7.2      0.000      0.000
REMARK  Name = 
REMARK  6 active torsions:
REMARK  status: ('A' for Active; 'I' for Inactive)
REMARK    1  A    between atoms: C_4  and  C_5
REMARK    2  A    between atoms: C_5  and  O_6
REMARK    3  A    between atoms: O_6  and  C_7
REMARK    4  A    between atoms: C_7  and  C_8
REMARK    5  A    between atoms: CA_17  and  CB_18
REMARK    6  A    between atoms: CB_18  and  OG_19
REMARK                            x       y       z     vdW  Elec       q    Type
REMARK                         _______ _______ _______ _____ _____    ______ ____
ROOT
ATOM      1  O   SER A   2       8.483   3.939  17.809  0.00  0.00    +0.000 OA
ATOM      2  C   SER A   2       7.585   4.620  17.323  0.00  0.00    +0.000 C 
ATOM      3  N   UNK A   1       6.792   4.101  16.329  0.00  0.00    +0.000 N 
ATOM      4  C   UNK A   1       5.524   4.699  15.906  0.00  0.00    +0.000 C 
ATOM      5  C   UNK A   1       5.598   6.234  15.940  0.00  0.00    +0.000 C 
ATOM      6  O   UNK A   1       4.890   6.959  15.245  0.00  0.00    +0.000 OA
ATOM      7  N   SER A   2       6.465   6.776  16.852  0.00  0.00    +0.000 N 
ATOM      8  CA  SER A   2       7.202   6.007  17.855  0.00  0.00    +0.000 C 
ATOM      9  H   UNK A   1       7.027   3.160  16.038  0.00  0.00    +0.000 HD
ATOM     10  H   SER A   2       6.401   7.782  16.966  0.00  0.00    +0.000 HD
ENDROOT
BRANCH   4  11
ATOM     11  C   UNK A   1       4.315   4.196  16.711  0.00  0.00    +0.000 C 
BRANCH  11  12
ATOM     12  O   UNK A   1       4.588   3.091  17.570  0.00  0.00    +0.000 OA
BRANCH  12  13
ATOM     13  C   UNK A   1       3.509   2.175  17.701  0.00  0.00    +0.000 C 
BRANCH  13  14
ATOM     14  C   UNK A   1       2.745   2.535  18.938  0.00  0.00    +0.000 A 
ATOM     15  C   UNK A   1       3.361   2.473  20.195  0.00  0.00    +0.000 A 
ATOM     16  C   UNK A   1       2.652   2.808  21.349  0.00  0.00    +0.000 A 
ATOM     17  C   UNK A   1       1.316   3.190  21.257  0.00  0.00    +0.000 A 
ATOM     18  C   UNK A   1       0.685   3.232  20.014  0.00  0.00    +0.000 A 
ATOM     19  C   UNK A   1       1.394   2.897  18.860  0.00  0.00    +0.000 A 
ENDBRANCH  13  14
ENDBRANCH  12  13
ENDBRANCH  11  12
ENDBRANCH   4  11
BRANCH   8  20
ATOM     20  CB  SER A   2       6.472   5.846  19.190  0.00  0.00    +0.000 C 
BRANCH  20  21
ATOM     21  OG  SER A   2       6.218   4.472  19.468  0.00  0.00    +0.000 OA
ATOM     22  H   SER A   2       7.050   4.092  19.801  0.00  0.00    +0.000 HD
ENDBRANCH  20  21
ENDBRANCH   8  20
TORSDOF 6
ENDMDL
MODEL 2
REMARK VINA RESULT:      -7.2      1.165      1.655
REMARK  Name = 
REMARK  6 active torsions:
REMARK  status: ('A' for Active; 'I' for Inactive)
REMARK    1  A    between atoms: C_4  and  C_5
REMARK    2  A    between atoms: C_5  and  O_6
REMARK    3  A    between atoms: O_6  and  C_7
REMARK    4  A    between atoms: C_7  and  C_8
REMARK    5  A    between atoms: CA_17  and  CB_18
REMARK    6  A    between atoms: CB_18  and  OG_19
REMARK                            x       y       z     vdW  Elec       q    Type
REMARK                         _______ _______ _______ _____ _____    ______ ____
ROOT
ATOM      1  O   SER A   2       8.487   3.922  17.818  0.00  0.00    +0.000 OA
ATOM      2  C   SER A   2       7.607   4.626  17.331  0.00  0.00    +0.000 C 
ATOM      3  N   UNK A   1       6.678   4.075  16.485  0.00  0.00    +0.000 N 
ATOM      4  C   UNK A   1       5.430   4.743  16.103  0.00  0.00    +0.000 C 
ATOM      5  C   UNK A   1       5.641   6.256  15.937  0.00  0.00    +0.000 C 
ATOM      6  O   UNK A   1       4.933   6.960  15.222  0.00  0.00    +0.000 OA
ATOM      7  N   SER A   2       6.638   6.813  16.694  0.00  0.00    +0.000 N 
ATOM      8  CA  SER A   2       7.401   6.097  17.717  0.00  0.00    +0.000 C 
ATOM      9  H   UNK A   1       6.799   3.088  16.294  0.00  0.00    +0.000 HD
ATOM     10  H   SER A   2       6.673   7.826  16.685  0.00  0.00    +0.000 HD
ENDROOT
BRANCH   4  11
ATOM     11  C   UNK A   1       4.269   4.458  17.069  0.00  0.00    +0.000 C 
BRANCH  11  12
ATOM     12  O   UNK A   1       3.890   5.560  17.890  0.00  0.00    +0.000 OA
BRANCH  12  13
ATOM     13  C   UNK A   1       2.488   5.685  18.088  0.00  0.00    +0.000 C 
BRANCH  13  14
ATOM     14  C   UNK A   1       2.079   4.691  19.131  0.00  0.00    +0.000 A 
ATOM     15  C   UNK A   1       1.220   3.633  18.804  0.00  0.00    +0.000 A 
ATOM     16  C   UNK A   1       0.838   2.705  19.773  0.00  0.00    +0.000 A 
ATOM     17  C   UNK A   1       1.295   2.839  21.082  0.00  0.00    +0.000 A 
ATOM     18  C   UNK A   1       2.131   3.901  21.425  0.00  0.00    +0.000 A 
ATOM     19  C   UNK A   1       2.514   4.829  20.455  0.00  0.00    +0.000 A 
ENDBRANCH  13  14
ENDBRANCH  12  13
ENDBRANCH  11  12
ENDBRANCH   4  11
BRANCH   8  20
ATOM     20  CB  SER A   2       6.798   6.167  19.120  0.00  0.00    +0.000 C 
BRANCH  20  21
ATOM     21  OG  SER A   2       6.452   4.866  19.590  0.00  0.00    +0.000 OA
ATOM     22  H   SER A   2       7.274   4.343  19.604  0.00  0.00    +0.000 HD
ENDBRANCH  20  21
ENDBRANCH   8  20
TORSDOF 6
ENDMDL
MODEL 3
REMARK VINA RESULT:      -7.2      1.094      1.282
REMARK  Name = 
REMARK  6 active torsions:
REMARK  status: ('A' for Active; 'I' for Inactive)
REMARK    1  A    between atoms: C_4  and  C_5
REMARK    2  A    between atoms: C_5  and  O_6
REMARK    3  A    between atoms: O_6  and  C_7
REMARK    4  A    between atoms: C_7  and  C_8
REMARK    5  A    between atoms: CA_17  and  CB_18
REMARK    6  A    between atoms: CB_18  and  OG_19
REMARK                            x       y       z     vdW  Elec       q    Type
REMARK                         _______ _______ _______ _____ _____    ______ ____
ROOT
ATOM      1  O   SER A   2       8.523   4.267  18.380  0.00  0.00    +0.000 OA
ATOM      2  C   SER A   2       7.635   4.831  17.748  0.00  0.00    +0.000 C 
ATOM      3  N   UNK A   1       7.375   4.462  16.452  0.00  0.00    +0.000 N 
ATOM      4  C   UNK A   1       6.161   4.844  15.726  0.00  0.00    +0.000 C 
ATOM      5  C   UNK A   1       5.722   6.271  16.093  0.00  0.00    +0.000 C 
ATOM      6  O   UNK A   1       5.051   6.982  15.351  0.00  0.00    +0.000 OA
ATOM      7  N   SER A   2       6.065   6.703  17.348  0.00  0.00    +0.000 N 
ATOM      8  CA  SER A   2       6.688   5.864  18.373  0.00  0.00    +0.000 C 
ATOM      9  H   UNK A   1       7.974   3.734  16.082  0.00  0.00    +0.000 HD
ATOM     10  H   SER A   2       5.650   7.584  17.631  0.00  0.00    +0.000 HD
ENDROOT
BRANCH   4  11
ATOM     11  C   UNK A   1       5.001   3.853  15.918  0.00  0.00    +0.000 C 
BRANCH  11  12
ATOM     12  O   UNK A   1       3.961   4.309  16.779  0.00  0.00    +0.000 OA
BRANCH  12  13
ATOM     13  C   UNK A   1       2.871   3.406  16.904  0.00  0.00    +0.000 C 
BRANCH  13  14
ATOM     14  C   UNK A   1       2.259   3.605  18.258  0.00  0.00    +0.000 A 
ATOM     15  C   UNK A   1       1.625   2.541  18.912  0.00  0.00    +0.000 A 
ATOM     16  C   UNK A   1       1.055   2.723  20.172  0.00  0.00    +0.000 A 
ATOM     17  C   UNK A   1       1.098   3.975  20.780  0.00  0.00    +0.000 A 
ATOM     18  C   UNK A   1       1.705   5.048  20.127  0.00  0.00    +0.000 A 
ATOM     19  C   UNK A   1       2.275   4.866  18.867  0.00  0.00    +0.000 A 
ENDBRANCH  13  14
ENDBRANCH  12  13
ENDBRANCH  11  12
ENDBRANCH   4  11
BRANCH   8  20
ATOM     20  CB  SER A   2       5.697   5.145  19.289  0.00  0.00    +0.000 C 
BRANCH  20  21
ATOM     21  OG  SER A   2       5.798   3.732  19.138  0.00  0.00    +0.000 OA
ATOM     22  H   SER A   2       6.682   3.549  18.771  0.00  0.00    +0.000 HD
ENDBRANCH  20  21
ENDBRANCH   8  20
TORSDOF 6
ENDMDL
MODEL 4
REMARK VINA RESULT:      -7.1      1.025      1.262
REMARK  Name = 
REMARK  6 active torsions:
REMARK  status: ('A' for Active; 'I' for Inactive)
REMARK    1  A    between atoms: C_4  and  C_5
REMARK    2  A    between atoms: C_5  and  O_6
REMARK    3  A    between atoms: O_6  and  C_7
REMARK    4  A    between atoms: C_7  and  C_8
REMARK    5  A    between atoms: CA_17  and  CB_18
REMARK    6  A    between atoms: CB_18  and  OG_19
REMARK                            x       y       z     vdW  Elec       q    Type
REMARK                         _______ _______ _______ _____ _____    ______ ____
ROOT
ATOM      1  O   SER A   2       8.485   4.220  18.393  0.00  0.00    +0.000 OA
ATOM      2  C   SER A   2       7.609   4.801  17.760  0.00  0.00    +0.000 C 
ATOM      3  N   UNK A   1       7.349   4.443  16.461  0.00  0.00    +0.000 N 
ATOM      4  C   UNK A   1       6.144   4.849  15.732  0.00  0.00    +0.000 C 
ATOM      5  C   UNK A   1       5.728   6.281  16.105  0.00  0.00    +0.000 C 
ATOM      6  O   UNK A   1       5.072   7.007  15.364  0.00  0.00    +0.000 OA
ATOM      7  N   SER A   2       6.072   6.701  17.363  0.00  0.00    +0.000 N 
ATOM      8  CA  SER A   2       6.677   5.847  18.387  0.00  0.00    +0.000 C 
ATOM      9  H   UNK A   1       7.938   3.708  16.090  0.00  0.00    +0.000 HD
ATOM     10  H   SER A   2       5.670   7.587  17.649  0.00  0.00    +0.000 HD
ENDROOT
BRANCH   4  11
ATOM     11  C   UNK A   1       4.968   3.876  15.913  0.00  0.00    +0.000 C 
BRANCH  11  12
ATOM     12  O   UNK A   1       4.036   4.247  16.925  0.00  0.00    +0.000 OA
BRANCH  12  13
ATOM     13  C   UNK A   1       2.871   3.433  16.972  0.00  0.00    +0.000 C 
BRANCH  13  14
ATOM     14  C   UNK A   1       2.335   3.475  18.370  0.00  0.00    +0.000 A 
ATOM     15  C   UNK A   1       1.926   4.691  18.936  0.00  0.00    +0.000 A 
ATOM     16  C   UNK A   1       1.425   4.734  20.237  0.00  0.00    +0.000 A 
ATOM     17  C   UNK A   1       1.347   3.565  20.991  0.00  0.00    +0.000 A 
ATOM     18  C   UNK A   1       1.774   2.354  20.447  0.00  0.00    +0.000 A 
ATOM     19  C   UNK A   1       2.275   2.310  19.145  0.00  0.00    +0.000 A 
ENDBRANCH  13  14
ENDBRANCH  12  13
ENDBRANCH  11  12
ENDBRANCH   4  11
BRANCH   8  20
ATOM     20  CB  SER A   2       5.670   5.139  19.295  0.00  0.00    +0.000 C 
BRANCH  20  21
ATOM     21  OG  SER A   2       5.827   3.724  19.223  0.00  0.00    +0.000 OA
ATOM     22  H   SER A   2       5.283   3.417  18.476  0.00  0.00    +0.000 HD
ENDBRANCH  20  21
ENDBRANCH   8  20
TORSDOF 6
ENDMDL
MODEL 5
REMARK VINA RESULT:      -7.1      1.748      3.098
REMARK  Name = 
REMARK  6 active torsions:
REMARK  status: ('A' for Active; 'I' for Inactive)
REMARK    1  A    between atoms: C_4  and  C_5
REMARK    2  A    between atoms: C_5  and  O_6
REMARK    3  A    between atoms: O_6  and  C_7
REMARK    4  A    between atoms: C_7  and  C_8
REMARK    5  A    between atoms: CA_17  and  CB_18
REMARK    6  A    between atoms: CB_18  and  OG_19
REMARK                            x       y       z     vdW  Elec       q    Type
REMARK                         _______ _______ _______ _____ _____    ______ ____
ROOT
ATOM      1  O   SER A   2       7.732   5.383  14.541  0.00  0.00    +0.000 OA
ATOM      2  C   SER A   2       7.408   5.364  15.725  0.00  0.00    +0.000 C 
ATOM      3  N   UNK A   1       7.300   6.539  16.426  0.00  0.00    +0.000 N 
ATOM      4  C   UNK A   1       6.634   6.652  17.726  0.00  0.00    +0.000 C 
ATOM      5  C   UNK A   1       6.889   5.405  18.588  0.00  0.00    +0.000 C 
ATOM      6  O   UNK A   1       6.845   5.414  19.815  0.00  0.00    +0.000 OA
ATOM      7  N   SER A   2       7.107   4.236  17.908  0.00  0.00    +0.000 N 
ATOM      8  CA  SER A   2       6.983   4.084  16.457  0.00  0.00    +0.000 C 
ATOM      9  H   UNK A   1       7.526   7.376  15.902  0.00  0.00    +0.000 HD
ATOM     10  H   SER A   2       7.131   3.399  18.481  0.00  0.00    +0.000 HD
ENDROOT
BRANCH   4  11
ATOM     11  C   UNK A   1       5.127   6.937  17.614  0.00  0.00    +0.000 C 
BRANCH  11  12
ATOM     12  O   UNK A   1       4.300   6.108  18.427  0.00  0.00    +0.000 OA
BRANCH  12  13
ATOM     13  C   UNK A   1       3.100   5.684  17.796  0.00  0.00    +0.000 C 
BRANCH  13  14
ATOM     14  C   UNK A   1       2.385   4.761  18.735  0.00  0.00    +0.000 A 
ATOM     15  C   UNK A   1       1.559   3.744  18.238  0.00  0.00    +0.000 A 
ATOM     16  C   UNK A   1       0.893   2.883  19.110  0.00  0.00    +0.000 A 
ATOM     17  C   UNK A   1       1.031   3.044  20.487  0.00  0.00    +0.000 A 
ATOM     18  C   UNK A   1       1.830   4.069  20.993  0.00  0.00    +0.000 A 
ATOM     19  C   UNK A   1       2.498   4.930  20.121  0.00  0.00    +0.000 A 
ENDBRANCH  13  14
ENDBRANCH  12  13
ENDBRANCH  11  12
ENDBRANCH   4  11
BRANCH   8  20
ATOM     20  CB  SER A   2       5.589   3.674  15.981  0.00  0.00    +0.000 C 
BRANCH  20  21
ATOM     21  OG  SER A   2       5.119   4.556  14.966  0.00  0.00    +0.000 OA
ATOM     22  H   SER A   2       5.905   4.911  14.513  0.00  0.00    +0.000 HD
ENDBRANCH  20  21
ENDBRANCH   8  20
TORSDOF 6
ENDMDL
MODEL 6
REMARK VINA RESULT:      -7.0      1.826      3.115
REMARK  Name = 
REMARK  6 active torsions:
REMARK  status: ('A' for Active; 'I' for Inactive)
REMARK    1  A    between atoms: C_4  and  C_5
REMARK    2  A    between atoms: C_5  and  O_6
REMARK    3  A    between atoms: O_6  and  C_7
REMARK    4  A    between atoms: C_7  and  C_8
REMARK    5  A    between atoms: CA_17  and  CB_18
REMARK    6  A    between atoms: CB_18  and  OG_19
REMARK                            x       y       z     vdW  Elec       q    Type
REMARK                         _______ _______ _______ _____ _____    ______ ____
ROOT
ATOM      1  O   SER A   2       7.710   5.531  14.452  0.00  0.00    +0.000 OA
ATOM      2  C   SER A   2       7.424   5.469  15.644  0.00  0.00    +0.000 C 
ATOM      3  N   UNK A   1       7.380   6.614  16.399  0.00  0.00    +0.000 N 
ATOM      4  C   UNK A   1       6.760   6.691  17.725  0.00  0.00    +0.000 C 
ATOM      5  C   UNK A   1       6.998   5.398  18.521  0.00  0.00    +0.000 C 
ATOM      6  O   UNK A   1       6.994   5.352  19.748  0.00  0.00    +0.000 OA
ATOM      7  N   SER A   2       7.153   4.254  17.783  0.00  0.00    +0.000 N 
ATOM      8  CA  SER A   2       6.977   4.173  16.332  0.00  0.00    +0.000 C 
ATOM      9  H   UNK A   1       7.620   7.466  15.906  0.00  0.00    +0.000 HD
ATOM     10  H   SER A   2       7.165   3.392  18.317  0.00  0.00    +0.000 HD
ENDROOT
BRANCH   4  11
ATOM     11  C   UNK A   1       5.262   7.031  17.676  0.00  0.00    +0.000 C 
BRANCH  11  12
ATOM     12  O   UNK A   1       4.411   6.074  18.300  0.00  0.00    +0.000 OA
BRANCH  12  13
ATOM     13  C   UNK A   1       3.101   6.013  17.751  0.00  0.00    +0.000 C 
BRANCH  13  14
ATOM     14  C   UNK A   1       2.320   5.000  18.531  0.00  0.00    +0.000 A 
ATOM     15  C   UNK A   1       2.129   5.161  19.910  0.00  0.00    +0.000 A 
ATOM     16  C   UNK A   1       1.402   4.219  20.639  0.00  0.00    +0.000 A 
ATOM     17  C   UNK A   1       0.877   3.099  19.998  0.00  0.00    +0.000 A 
ATOM     18  C   UNK A   1       1.081   2.916  18.631  0.00  0.00    +0.000 A 
ATOM     19  C   UNK A   1       1.808   3.858  17.902  0.00  0.00    +0.000 A 
ENDBRANCH  13  14
ENDBRANCH  12  13
ENDBRANCH  11  12
ENDBRANCH   4  11
BRANCH   8  20
ATOM     20  CB  SER A   2       5.555   3.833  15.885  0.00  0.00    +0.000 C 
BRANCH  20  21
ATOM     21  OG  SER A   2       5.375   4.117  14.501  0.00  0.00    +0.000 OA
ATOM     22  H   SER A   2       5.554   3.291  14.017  0.00  0.00    +0.000 HD
ENDBRANCH  20  21
ENDBRANCH   8  20
TORSDOF 6
ENDMDL
MODEL 7
REMARK VINA RESULT:      -7.0      1.962      3.402
REMARK  Name = 
REMARK  6 active torsions:
REMARK  status: ('A' for Active; 'I' for Inactive)
REMARK    1  A    between atoms: C_4  and  C_5
REMARK    2  A    between atoms: C_5  and  O_6
REMARK    3  A    between atoms: O_6  and  C_7
REMARK    4  A    between atoms: C_7  and  C_8
REMARK    5  A    between atoms: CA_17  and  CB_18
REMARK    6  A    between atoms: CB_18  and  OG_19
REMARK                            x       y       z     vdW  Elec       q    Type
REMARK                         _______ _______ _______ _____ _____    ______ ____
ROOT
ATOM      1  O   SER A   2       7.873   5.479  14.172  0.00  0.00    +0.000 OA
ATOM      2  C   SER A   2       7.295   5.243  15.228  0.00  0.00    +0.000 C 
ATOM      3  N   UNK A   1       7.337   6.155  16.253  0.00  0.00    +0.000 N 
ATOM      4  C   UNK A   1       6.445   6.116  17.414  0.00  0.00    +0.000 C 
ATOM      5  C   UNK A   1       6.166   4.668  17.848  0.00  0.00    +0.000 C 
ATOM      6  O   UNK A   1       5.847   4.357  18.992  0.00  0.00    +0.000 OA
ATOM      7  N   SER A   2       6.223   3.720  16.860  0.00  0.00    +0.000 N 
ATOM      8  CA  SER A   2       6.398   4.015  15.437  0.00  0.00    +0.000 C 
ATOM      9  H   UNK A   1       7.885   6.987  16.068  0.00  0.00    +0.000 HD
ATOM     10  H   SER A   2       5.899   2.797  17.126  0.00  0.00    +0.000 HD
ENDROOT
BRANCH   4  11
ATOM     11  C   UNK A   1       5.129   6.881  17.196  0.00  0.00    +0.000 C 
BRANCH  11  12
ATOM     12  O   UNK A   1       3.950   6.091  17.322  0.00  0.00    +0.000 OA
BRANCH  12  13
ATOM     13  C   UNK A   1       3.085   6.498  18.374  0.00  0.00    +0.000 C 
BRANCH  13  14
ATOM     14  C   UNK A   1       2.332   5.292  18.845  0.00  0.00    +0.000 A 
ATOM     15  C   UNK A   1       1.975   4.282  17.941  0.00  0.00    +0.000 A 
ATOM     16  C   UNK A   1       1.274   3.158  18.377  0.00  0.00    +0.000 A 
ATOM     17  C   UNK A   1       0.906   3.043  19.716  0.00  0.00    +0.000 A 
ATOM     18  C   UNK A   1       1.234   4.053  20.619  0.00  0.00    +0.000 A 
ATOM     19  C   UNK A   1       1.936   5.178  20.184  0.00  0.00    +0.000 A 
ENDBRANCH  13  14
ENDBRANCH  12  13
ENDBRANCH  11  12
ENDBRANCH   4  11
BRANCH   8  20
ATOM     20  CB  SER A   2       5.092   4.212  14.667  0.00  0.00    +0.000 C 
BRANCH  20  21
ATOM     21  OG  SER A   2       5.260   3.886  13.290  0.00  0.00    +0.000 OA
ATOM     22  H   SER A   2       4.739   3.079  13.125  0.00  0.00    +0.000 HD
ENDBRANCH  20  21
ENDBRANCH   8  20
TORSDOF 6
ENDMDL
MODEL 8
REMARK VINA RESULT:      -7.0      1.373      1.592
REMARK  Name = 
REMARK  6 active torsions:
REMARK  status: ('A' for Active; 'I' for Inactive)
REMARK    1  A    between atoms: C_4  and  C_5
REMARK    2  A    between atoms: C_5  and  O_6
REMARK    3  A    between atoms: O_6  and  C_7
REMARK    4  A    between atoms: C_7  and  C_8
REMARK    5  A    between atoms: CA_17  and  CB_18
REMARK    6  A    between atoms: CB_18  and  OG_19
REMARK                            x       y       z     vdW  Elec       q    Type
REMARK                         _______ _______ _______ _____ _____    ______ ____
ROOT
ATOM      1  O   SER A   2       6.689   5.354  19.843  0.00  0.00    +0.000 OA
ATOM      2  C   SER A   2       6.772   5.348  18.618  0.00  0.00    +0.000 C 
ATOM      3  N   UNK A   1       6.819   4.156  17.940  0.00  0.00    +0.000 N 
ATOM      4  C   UNK A   1       6.609   4.034  16.495  0.00  0.00    +0.000 C 
ATOM      5  C   UNK A   1       7.216   5.230  15.745  0.00  0.00    +0.000 C 
ATOM      6  O   UNK A   1       7.575   5.178  14.572  0.00  0.00    +0.000 OA
ATOM      7  N   SER A   2       7.279   6.409  16.440  0.00  0.00    +0.000 N 
ATOM      8  CA  SER A   2       6.698   6.622  17.766  0.00  0.00    +0.000 C 
ATOM      9  H   UNK A   1       6.805   3.327  18.522  0.00  0.00    +0.000 HD
ATOM     10  H   SER A   2       7.545   7.220  15.893  0.00  0.00    +0.000 HD
ENDROOT
BRANCH   4  11
ATOM     11  C   UNK A   1       5.132   3.843  16.110  0.00  0.00    +0.000 C 
BRANCH  11  12
ATOM     12  O   UNK A   1       4.222   3.862  17.206  0.00  0.00    +0.000 OA
BRANCH  12  13
ATOM     13  C   UNK A   1       3.666   2.593  17.525  0.00  0.00    +0.000 C 
BRANCH  13  14
ATOM     14  C   UNK A   1       2.858   2.744  18.777  0.00  0.00    +0.000 A 
ATOM     15  C   UNK A   1       3.477   2.677  20.032  0.00  0.00    +0.000 A 
ATOM     16  C   UNK A   1       2.728   2.818  21.200  0.00  0.00    +0.000 A 
ATOM     17  C   UNK A   1       1.350   3.008  21.124  0.00  0.00    +0.000 A 
ATOM     18  C   UNK A   1       0.719   3.052  19.881  0.00  0.00    +0.000 A 
ATOM     19  C   UNK A   1       1.469   2.911  18.712  0.00  0.00    +0.000 A 
ENDBRANCH  13  14
ENDBRANCH  12  13
ENDBRANCH  11  12
ENDBRANCH   4  11
BRANCH   8  20
ATOM     20  CB  SER A   2       5.256   7.131  17.751  0.00  0.00    +0.000 C 
BRANCH  20  21
ATOM     21  OG  SER A   2       4.398   6.247  18.467  0.00  0.00    +0.000 OA
ATOM     22  H   SER A   2       4.017   5.632  17.814  0.00  0.00    +0.000 HD
ENDBRANCH  20  21
ENDBRANCH   8  20
TORSDOF 6
ENDMDL
MODEL 9
REMARK VINA RESULT:      -6.9      1.391      1.956
REMARK  Name = 
REMARK  6 active torsions:
REMARK  status: ('A' for Active; 'I' for Inactive)
REMARK    1  A    between atoms: C_4  and  C_5
REMARK    2  A    between atoms: C_5  and  O_6
REMARK    3  A    between atoms: O_6  and  C_7
REMARK    4  A    between atoms: C_7  and  C_8
REMARK    5  A    between atoms: CA_17  and  CB_18
REMARK    6  A    between atoms: CB_18  and  OG_19
REMARK                            x       y       z     vdW  Elec       q    Type
REMARK                         _______ _______ _______ _____ _____    ______ ____
ROOT
ATOM      1  O   SER A   2       6.570   5.324  19.850  0.00  0.00    +0.000 OA
ATOM      2  C   SER A   2       6.683   5.325  18.628  0.00  0.00    +0.000 C 
ATOM      3  N   UNK A   1       6.713   4.137  17.941  0.00  0.00    +0.000 N 
ATOM      4  C   UNK A   1       6.535   4.032  16.490  0.00  0.00    +0.000 C 
ATOM      5  C   UNK A   1       7.195   5.216  15.766  0.00  0.00    +0.000 C 
ATOM      6  O   UNK A   1       7.582   5.163  14.601  0.00  0.00    +0.000 OA
ATOM      7  N   SER A   2       7.275   6.388  16.472  0.00  0.00    +0.000 N 
ATOM      8  CA  SER A   2       6.668   6.607  17.786  0.00  0.00    +0.000 C 
ATOM      9  H   UNK A   1       6.660   3.304  18.516  0.00  0.00    +0.000 HD
ATOM     10  H   SER A   2       7.578   7.195  15.939  0.00  0.00    +0.000 HD
ENDROOT
BRANCH   4  11
ATOM     11  C   UNK A   1       5.064   3.888  16.067  0.00  0.00    +0.000 C 
BRANCH  11  12
ATOM     12  O   UNK A   1       4.126   3.938  17.139  0.00  0.00    +0.000 OA
BRANCH  12  13
ATOM     13  C   UNK A   1       3.779   2.666  17.670  0.00  0.00    +0.000 C 
BRANCH  13  14
ATOM     14  C   UNK A   1       2.944   2.889  18.894  0.00  0.00    +0.000 A 
ATOM     15  C   UNK A   1       1.668   3.459  18.786  0.00  0.00    +0.000 A 
ATOM     16  C   UNK A   1       0.887   3.667  19.923  0.00  0.00    +0.000 A 
ATOM     17  C   UNK A   1       1.383   3.325  21.179  0.00  0.00    +0.000 A 
ATOM     18  C   UNK A   1       2.661   2.781  21.301  0.00  0.00    +0.000 A 
ATOM     19  C   UNK A   1       3.442   2.572  20.163  0.00  0.00    +0.000 A 
ENDBRANCH  13  14
ENDBRANCH  12  13
ENDBRANCH  11  12
ENDBRANCH   4  11
BRANCH   8  20
ATOM     20  CB  SER A   2       5.242   7.158  17.739  0.00  0.00    +0.000 C 
BRANCH  20  21
ATOM     21  OG  SER A   2       4.346   6.311  18.453  0.00  0.00    +0.000 OA
ATOM     22  H   SER A   2       3.638   6.061  17.833  0.00  0.00    +0.000 HD
ENDBRANCH  20  21
ENDBRANCH   8  20
TORSDOF 6
ENDMDL
