MODEL 1
REMARK VINA RESULT:      -6.8      0.000      0.000
REMARK  Name = 
REMARK  6 active torsions:
REMARK  status: ('A' for Active; 'I' for Inactive)
REMARK    1  A    between atoms: C_1  and  C_2
REMARK    2  A    between atoms: C_2  and  S_3
REMARK    3  A    between atoms: S_3  and  C_4
REMARK    4  A    between atoms: C_6  and  S_7
REMARK    5  A    between atoms: S_7  and  C_8
REMARK    6  A    between atoms: C_8  and  C_9
REMARK                            x       y       z     vdW  Elec       q    Type
REMARK                         _______ _______ _______ _____ _____    ______ ____
ROOT
ATOM      1  C   UNL     1       6.312   5.218  16.673  0.00  0.00    +0.000 A 
ATOM      2  N   UNL     1       5.182   5.815  16.697  0.00  0.00    +0.000 NA
ATOM      3  C   UNL     1       4.737   6.196  17.929  0.00  0.00    +0.000 A 
ATOM      4  N   UNL     1       5.382   6.020  19.026  0.00  0.00    +0.000 NA
ATOM      5  C   UNL     1       6.586   5.386  18.980  0.00  0.00    +0.000 A 
ATOM      6  O   UNL     1       7.263   5.170  19.979  0.00  0.00    +0.000 OA
ATOM      7  N   UNL     1       7.040   4.976  17.773  0.00  0.00    +0.000 N 
ATOM      8  H   UNL     1       7.927   4.500  17.725  0.00  0.00    +0.000 HD
ENDROOT
BRANCH   1   9
ATOM      9  S   UNL     1       7.064   4.626  15.226  0.00  0.00    +0.000 S 
BRANCH   9  11
ATOM     10  C   UNL     1       6.021   3.622  12.902  0.00  0.00    +0.000 C 
ATOM     11  C   UNL     1       5.598   4.207  14.239  0.00  0.00    +0.000 C 
ENDBRANCH   9  11
ENDBRANCH   1   9
BRANCH   3  12
ATOM     12  S   UNL     1       3.152   6.941  17.951  0.00  0.00    +0.000 S 
BRANCH  12  13
ATOM     13  C   UNL     1       2.564   6.458  19.598  0.00  0.00    +0.000 C 
BRANCH  13  14
ATOM     14  C   UNL     1       2.021   5.046  19.582  0.00  0.00    +0.000 A 
ATOM     15  C   UNL     1       1.756   4.397  18.367  0.00  0.00    +0.000 A 
ATOM     16  C   UNL     1       1.207   3.111  18.351  0.00  0.00    +0.000 A 
ATOM     17  C   UNL     1       0.916   2.461  19.548  0.00  0.00    +0.000 A 
ATOM     18  C   UNL     1       1.179   3.092  20.762  0.00  0.00    +0.000 A 
ATOM     19  C   UNL     1       1.726   4.377  20.780  0.00  0.00    +0.000 A 
ENDBRANCH  13  14
ENDBRANCH  12  13
ENDBRANCH   3  12
TORSDOF 5
ENDMDL
MODEL 2
REMARK VINA RESULT:      -6.8      0.177      1.150
REMARK  Name = 
REMARK  6 active torsions:
REMARK  status: ('A' for Active; 'I' for Inactive)
REMARK    1  A    between atoms: C_1  and  C_2
REMARK    2  A    between atoms: C_2  and  S_3
REMARK    3  A    between atoms: S_3  and  C_4
REMARK    4  A    between atoms: C_6  and  S_7
REMARK    5  A    between atoms: S_7  and  C_8
REMARK    6  A    between atoms: C_8  and  C_9
REMARK                            x       y       z     vdW  Elec       q    Type
REMARK                         _______ _______ _______ _____ _____    ______ ____
ROOT
ATOM      1  C   UNL     1       6.338   5.319  16.609  0.00  0.00    +0.000 A 
ATOM      2  N   UNL     1       5.174   5.847  16.658  0.00  0.00    +0.000 NA
ATOM      3  C   UNL     1       4.704   6.135  17.907  0.00  0.00    +0.000 A 
ATOM      4  N   UNL     1       5.356   5.939  18.996  0.00  0.00    +0.000 NA
ATOM      5  C   UNL     1       6.596   5.379  18.924  0.00  0.00    +0.000 A 
ATOM      6  O   UNL     1       7.282   5.151  19.913  0.00  0.00    +0.000 OA
ATOM      7  N   UNL     1       7.076   5.062  17.699  0.00  0.00    +0.000 N 
ATOM      8  H   UNL     1       7.989   4.642  17.630  0.00  0.00    +0.000 HD
ENDROOT
BRANCH   1   9
ATOM      9  S   UNL     1       7.126   4.851  15.137  0.00  0.00    +0.000 S 
BRANCH   9  11
ATOM     10  C   UNL     1       6.147   3.643  12.883  0.00  0.00    +0.000 C 
ATOM     11  C   UNL     1       5.800   3.899  14.340  0.00  0.00    +0.000 C 
ENDBRANCH   9  11
ENDBRANCH   1   9
BRANCH   3  12
ATOM     12  S   UNL     1       3.079   6.783  17.960  0.00  0.00    +0.000 S 
BRANCH  12  13
ATOM     13  C   UNL     1       2.576   6.323  19.641  0.00  0.00    +0.000 C 
BRANCH  13  14
ATOM     14  C   UNL     1       1.988   4.929  19.663  0.00  0.00    +0.000 A 
ATOM     15  C   UNL     1       1.796   4.254  20.878  0.00  0.00    +0.000 A 
ATOM     16  C   UNL     1       1.300   2.947  20.895  0.00  0.00    +0.000 A 
ATOM     17  C   UNL     1       0.992   2.300  19.701  0.00  0.00    +0.000 A 
ATOM     18  C   UNL     1       1.173   2.960  18.488  0.00  0.00    +0.000 A 
ATOM     19  C   UNL     1       1.671   4.265  18.468  0.00  0.00    +0.000 A 
ENDBRANCH  13  14
ENDBRANCH  12  13
ENDBRANCH   3  12
TORSDOF 5
ENDMDL
MODEL 3
REMARK VINA RESULT:      -6.8      3.030      3.978
REMARK  Name = 
REMARK  6 active torsions:
REMARK  status: ('A' for Active; 'I' for Inactive)
REMARK    1  A    between atoms: C_1  and  C_2
REMARK    2  A    between atoms: C_2  and  S_3
REMARK    3  A    between atoms: S_3  and  C_4
REMARK    4  A    between atoms: C_6  and  S_7
REMARK    5  A    between atoms: S_7  and  C_8
REMARK    6  A    between atoms: C_8  and  C_9
REMARK                            x       y       z     vdW  Elec       q    Type
REMARK                         _______ _______ _______ _____ _____    ______ ____
ROOT
ATOM      1  C   UNL     1       6.454   3.802  12.954  0.00  0.00    +0.000 A 
ATOM      2  N   UNL     1       6.056   3.714  14.166  0.00  0.00    +0.000 NA
ATOM      3  C   UNL     1       6.701   4.515  15.063  0.00  0.00    +0.000 A 
ATOM      4  N   UNL     1       7.634   5.346  14.762  0.00  0.00    +0.000 NA
ATOM      5  C   UNL     1       8.041   5.428  13.466  0.00  0.00    +0.000 A 
ATOM      6  O   UNL     1       8.929   6.187  13.093  0.00  0.00    +0.000 OA
ATOM      7  N   UNL     1       7.434   4.627  12.559  0.00  0.00    +0.000 N 
ATOM      8  H   UNL     1       7.729   4.673  11.597  0.00  0.00    +0.000 HD
ENDROOT
BRANCH   1   9
ATOM      9  S   UNL     1       5.796   2.867  11.650  0.00  0.00    +0.000 S 
BRANCH   9  11
ATOM     10  C   UNL     1       3.531   3.596  10.293  0.00  0.00    +0.000 C 
ATOM     11  C   UNL     1       4.059   3.399  11.704  0.00  0.00    +0.000 C 
ENDBRANCH   9  11
ENDBRANCH   1   9
BRANCH   3  12
ATOM     12  S   UNL     1       6.198   4.324  16.729  0.00  0.00    +0.000 S 
BRANCH  12  13
ATOM     13  C   UNL     1       4.532   5.040  16.673  0.00  0.00    +0.000 C 
BRANCH  13  14
ATOM     14  C   UNL     1       3.544   4.158  17.404  0.00  0.00    +0.000 A 
ATOM     15  C   UNL     1       3.822   2.800  17.618  0.00  0.00    +0.000 A 
ATOM     16  C   UNL     1       2.887   1.973  18.249  0.00  0.00    +0.000 A 
ATOM     17  C   UNL     1       1.665   2.493  18.670  0.00  0.00    +0.000 A 
ATOM     18  C   UNL     1       1.378   3.841  18.467  0.00  0.00    +0.000 A 
ATOM     19  C   UNL     1       2.310   4.668  17.836  0.00  0.00    +0.000 A 
ENDBRANCH  13  14
ENDBRANCH  12  13
ENDBRANCH   3  12
TORSDOF 5
ENDMDL
MODEL 4
REMARK VINA RESULT:      -6.8      1.212      1.602
REMARK  Name = 
REMARK  6 active torsions:
REMARK  status: ('A' for Active; 'I' for Inactive)
REMARK    1  A    between atoms: C_1  and  C_2
REMARK    2  A    between atoms: C_2  and  S_3
REMARK    3  A    between atoms: S_3  and  C_4
REMARK    4  A    between atoms: C_6  and  S_7
REMARK    5  A    between atoms: S_7  and  C_8
REMARK    6  A    between atoms: C_8  and  C_9
REMARK                            x       y       z     vdW  Elec       q    Type
REMARK                         _______ _______ _______ _____ _____    ______ ____
ROOT
ATOM      1  C   UNL     1       6.629   5.211  15.929  0.00  0.00    +0.000 A 
ATOM      2  N   UNL     1       5.478   5.686  16.221  0.00  0.00    +0.000 NA
ATOM      3  C   UNL     1       5.231   5.868  17.550  0.00  0.00    +0.000 A 
ATOM      4  N   UNL     1       6.072   5.625  18.490  0.00  0.00    +0.000 NA
ATOM      5  C   UNL     1       7.294   5.124  18.159  0.00  0.00    +0.000 A 
ATOM      6  O   UNL     1       8.152   4.858  18.993  0.00  0.00    +0.000 OA
ATOM      7  N   UNL     1       7.557   4.912  16.849  0.00  0.00    +0.000 N 
ATOM      8  H   UNL     1       8.455   4.536  16.590  0.00  0.00    +0.000 HD
ENDROOT
BRANCH   1   9
ATOM      9  S   UNL     1       7.156   4.878  14.310  0.00  0.00    +0.000 S 
BRANCH   9  11
ATOM     10  C   UNL     1       6.052   3.362  12.314  0.00  0.00    +0.000 C 
ATOM     11  C   UNL     1       5.740   3.922  13.691  0.00  0.00    +0.000 C 
ENDBRANCH   9  11
ENDBRANCH   1   9
BRANCH   3  12
ATOM     12  S   UNL     1       3.623   6.443  17.937  0.00  0.00    +0.000 S 
BRANCH  12  13
ATOM     13  C   UNL     1       2.651   4.926  17.726  0.00  0.00    +0.000 C 
BRANCH  13  14
ATOM     14  C   UNL     1       2.576   4.151  19.023  0.00  0.00    +0.000 A 
ATOM     15  C   UNL     1       1.579   4.436  19.969  0.00  0.00    +0.000 A 
ATOM     16  C   UNL     1       1.540   3.755  21.189  0.00  0.00    +0.000 A 
ATOM     17  C   UNL     1       2.496   2.784  21.478  0.00  0.00    +0.000 A 
ATOM     18  C   UNL     1       3.489   2.488  20.547  0.00  0.00    +0.000 A 
ATOM     19  C   UNL     1       3.531   3.169  19.328  0.00  0.00    +0.000 A 
ENDBRANCH  13  14
ENDBRANCH  12  13
ENDBRANCH   3  12
TORSDOF 5
ENDMDL
MODEL 5
REMARK VINA RESULT:      -6.8      2.961      3.936
REMARK  Name = 
REMARK  6 active torsions:
REMARK  status: ('A' for Active; 'I' for Inactive)
REMARK    1  A    between atoms: C_1  and  C_2
REMARK    2  A    between atoms: C_2  and  S_3
REMARK    3  A    between atoms: S_3  and  C_4
REMARK    4  A    between atoms: C_6  and  S_7
REMARK    5  A    between atoms: S_7  and  C_8
REMARK    6  A    between atoms: C_8  and  C_9
REMARK                            x       y       z     vdW  Elec       q    Type
REMARK                         _______ _______ _______ _____ _____    ______ ____
ROOT
ATOM      1  C   UNL     1       6.192   3.906  13.220  0.00  0.00    +0.000 A 
ATOM      2  N   UNL     1       5.875   3.914  14.459  0.00  0.00    +0.000 NA
ATOM      3  C   UNL     1       6.659   4.686  15.267  0.00  0.00    +0.000 A 
ATOM      4  N   UNL     1       7.644   5.403  14.861  0.00  0.00    +0.000 NA
ATOM      5  C   UNL     1       7.964   5.384  13.537  0.00  0.00    +0.000 A 
ATOM      6  O   UNL     1       8.893   6.031  13.067  0.00  0.00    +0.000 OA
ATOM      7  N   UNL     1       7.218   4.608  12.717  0.00  0.00    +0.000 N 
ATOM      8  H   UNL     1       7.446   4.579  11.737  0.00  0.00    +0.000 HD
ENDROOT
BRANCH   1   9
ATOM      9  S   UNL     1       5.353   2.983  12.014  0.00  0.00    +0.000 S 
BRANCH   9  11
ATOM     10  C   UNL     1       6.328   0.582  11.127  0.00  0.00    +0.000 C 
ATOM     11  C   UNL     1       6.732   2.036  11.303  0.00  0.00    +0.000 C 
ENDBRANCH   9  11
ENDBRANCH   1   9
BRANCH   3  12
ATOM     12  S   UNL     1       6.260   4.624  16.971  0.00  0.00    +0.000 S 
BRANCH  12  13
ATOM     13  C   UNL     1       4.595   5.341  16.964  0.00  0.00    +0.000 C 
BRANCH  13  14
ATOM     14  C   UNL     1       3.570   4.326  17.422  0.00  0.00    +0.000 A 
ATOM     15  C   UNL     1       2.292   4.735  17.828  0.00  0.00    +0.000 A 
ATOM     16  C   UNL     1       1.362   3.803  18.299  0.00  0.00    +0.000 A 
ATOM     17  C   UNL     1       1.700   2.453  18.369  0.00  0.00    +0.000 A 
ATOM     18  C   UNL     1       2.964   2.033  17.964  0.00  0.00    +0.000 A 
ATOM     19  C   UNL     1       3.895   2.963  17.496  0.00  0.00    +0.000 A 
ENDBRANCH  13  14
ENDBRANCH  12  13
ENDBRANCH   3  12
TORSDOF 5
ENDMDL
MODEL 6
REMARK VINA RESULT:      -6.8      2.569      3.734
REMARK  Name = 
REMARK  6 active torsions:
REMARK  status: ('A' for Active; 'I' for Inactive)
REMARK    1  A    between atoms: C_1  and  C_2
REMARK    2  A    between atoms: C_2  and  S_3
REMARK    3  A    between atoms: S_3  and  C_4
REMARK    4  A    between atoms: C_6  and  S_7
REMARK    5  A    between atoms: S_7  and  C_8
REMARK    6  A    between atoms: C_8  and  C_9
REMARK                            x       y       z     vdW  Elec       q    Type
REMARK                         _______ _______ _______ _____ _____    ______ ____
ROOT
ATOM      1  C   UNL     1       6.978   5.640  17.218  0.00  0.00    +0.000 A 
ATOM      2  N   UNL     1       6.002   4.869  17.516  0.00  0.00    +0.000 NA
ATOM      3  C   UNL     1       5.450   4.181  16.475  0.00  0.00    +0.000 A 
ATOM      4  N   UNL     1       5.862   4.240  15.259  0.00  0.00    +0.000 NA
ATOM      5  C   UNL     1       6.905   5.063  14.963  0.00  0.00    +0.000 A 
ATOM      6  O   UNL     1       7.356   5.185  13.829  0.00  0.00    +0.000 OA
ATOM      7  N   UNL     1       7.456   5.776  15.972  0.00  0.00    +0.000 N 
ATOM      8  H   UNL     1       8.225   6.393  15.767  0.00  0.00    +0.000 HD
ENDROOT
BRANCH   1   9
ATOM      9  S   UNL     1       7.818   6.626  18.371  0.00  0.00    +0.000 S 
BRANCH   9  11
ATOM     10  C   UNL     1       8.549   9.265  18.335  0.00  0.00    +0.000 C 
ATOM     11  C   UNL     1       7.812   8.225  17.509  0.00  0.00    +0.000 C 
ENDBRANCH   9  11
ENDBRANCH   1   9
BRANCH   3  12
ATOM     12  S   UNL     1       4.065   3.192  16.886  0.00  0.00    +0.000 S 
BRANCH  12  13
ATOM     13  C   UNL     1       2.915   4.448  17.512  0.00  0.00    +0.000 C 
BRANCH  13  14
ATOM     14  C   UNL     1       2.371   4.050  18.867  0.00  0.00    +0.000 A 
ATOM     15  C   UNL     1       2.640   4.832  20.001  0.00  0.00    +0.000 A 
ATOM     16  C   UNL     1       2.180   4.439  21.261  0.00  0.00    +0.000 A 
ATOM     17  C   UNL     1       1.449   3.262  21.403  0.00  0.00    +0.000 A 
ATOM     18  C   UNL     1       1.172   2.478  20.285  0.00  0.00    +0.000 A 
ATOM     19  C   UNL     1       1.632   2.869  19.025  0.00  0.00    +0.000 A 
ENDBRANCH  13  14
ENDBRANCH  12  13
ENDBRANCH   3  12
TORSDOF 5
ENDMDL
MODEL 7
REMARK VINA RESULT:      -6.7      2.898      4.188
REMARK  Name = 
REMARK  6 active torsions:
REMARK  status: ('A' for Active; 'I' for Inactive)
REMARK    1  A    between atoms: C_1  and  C_2
REMARK    2  A    between atoms: C_2  and  S_3
REMARK    3  A    between atoms: S_3  and  C_4
REMARK    4  A    between atoms: C_6  and  S_7
REMARK    5  A    between atoms: S_7  and  C_8
REMARK    6  A    between atoms: C_8  and  C_9
REMARK                            x       y       z     vdW  Elec       q    Type
REMARK                         _______ _______ _______ _____ _____    ______ ____
ROOT
ATOM      1  C   UNL     1       7.663   7.918  17.779  0.00  0.00    +0.000 A 
ATOM      2  N   UNL     1       6.726   7.472  17.031  0.00  0.00    +0.000 NA
ATOM      3  C   UNL     1       6.341   6.184  17.267  0.00  0.00    +0.000 A 
ATOM      4  N   UNL     1       6.830   5.431  18.186  0.00  0.00    +0.000 NA
ATOM      5  C   UNL     1       7.824   5.926  18.974  0.00  0.00    +0.000 A 
ATOM      6  O   UNL     1       8.352   5.274  19.869  0.00  0.00    +0.000 OA
ATOM      7  N   UNL     1       8.242   7.193  18.746  0.00  0.00    +0.000 N 
ATOM      8  H   UNL     1       8.981   7.570  19.318  0.00  0.00    +0.000 HD
ENDROOT
BRANCH   1   9
ATOM      9  S   UNL     1       8.327   9.515  17.646  0.00  0.00    +0.000 S 
BRANCH   9  11
ATOM     10  C   UNL     1       9.883  10.980  19.360  0.00  0.00    +0.000 C 
ATOM     11  C   UNL     1       9.043   9.715  19.304  0.00  0.00    +0.000 C 
ENDBRANCH   9  11
ENDBRANCH   1   9
BRANCH   3  12
ATOM     12  S   UNL     1       5.113   5.563  16.185  0.00  0.00    +0.000 S 
BRANCH  12  13
ATOM     13  C   UNL     1       5.064   3.819  16.678  0.00  0.00    +0.000 C 
BRANCH  13  14
ATOM     14  C   UNL     1       3.763   3.495  17.379  0.00  0.00    +0.000 A 
ATOM     15  C   UNL     1       3.547   2.223  17.932  0.00  0.00    +0.000 A 
ATOM     16  C   UNL     1       2.326   1.907  18.535  0.00  0.00    +0.000 A 
ATOM     17  C   UNL     1       1.308   2.856  18.591  0.00  0.00    +0.000 A 
ATOM     18  C   UNL     1       1.510   4.123  18.050  0.00  0.00    +0.000 A 
ATOM     19  C   UNL     1       2.729   4.441  17.445  0.00  0.00    +0.000 A 
ENDBRANCH  13  14
ENDBRANCH  12  13
ENDBRANCH   3  12
TORSDOF 5
ENDMDL
MODEL 8
REMARK VINA RESULT:      -6.7      1.640      2.664
REMARK  Name = 
REMARK  6 active torsions:
REMARK  status: ('A' for Active; 'I' for Inactive)
REMARK    1  A    between atoms: C_1  and  C_2
REMARK    2  A    between atoms: C_2  and  S_3
REMARK    3  A    between atoms: S_3  and  C_4
REMARK    4  A    between atoms: C_6  and  S_7
REMARK    5  A    between atoms: S_7  and  C_8
REMARK    6  A    between atoms: C_8  and  C_9
REMARK                            x       y       z     vdW  Elec       q    Type
REMARK                         _______ _______ _______ _____ _____    ______ ____
ROOT
ATOM      1  C   UNL     1       6.289   4.537  16.705  0.00  0.00    +0.000 A 
ATOM      2  N   UNL     1       5.228   3.846  16.892  0.00  0.00    +0.000 NA
ATOM      3  C   UNL     1       4.848   3.683  18.193  0.00  0.00    +0.000 A 
ATOM      4  N   UNL     1       5.458   4.193  19.202  0.00  0.00    +0.000 NA
ATOM      5  C   UNL     1       6.582   4.929  18.982  0.00  0.00    +0.000 A 
ATOM      6  O   UNL     1       7.229   5.444  19.888  0.00  0.00    +0.000 OA
ATOM      7  N   UNL     1       6.996   5.086  17.704  0.00  0.00    +0.000 N 
ATOM      8  H   UNL     1       7.829   5.623  17.526  0.00  0.00    +0.000 HD
ENDROOT
BRANCH   1   9
ATOM      9  S   UNL     1       6.971   4.857  15.143  0.00  0.00    +0.000 S 
BRANCH   9  11
ATOM     10  C   UNL     1       6.381   3.731  12.717  0.00  0.00    +0.000 C 
ATOM     11  C   UNL     1       5.764   4.016  14.076  0.00  0.00    +0.000 C 
ENDBRANCH   9  11
ENDBRANCH   1   9
BRANCH   3  12
ATOM     12  S   UNL     1       3.441   2.670  18.436  0.00  0.00    +0.000 S 
BRANCH  12  13
ATOM     13  C   UNL     1       2.119   3.767  17.854  0.00  0.00    +0.000 C 
BRANCH  13  14
ATOM     14  C   UNL     1       2.124   5.070  18.622  0.00  0.00    +0.000 A 
ATOM     15  C   UNL     1       1.779   5.098  19.982  0.00  0.00    +0.000 A 
ATOM     16  C   UNL     1       1.735   6.309  20.680  0.00  0.00    +0.000 A 
ATOM     17  C   UNL     1       2.033   7.503  20.027  0.00  0.00    +0.000 A 
ATOM     18  C   UNL     1       2.381   7.489  18.679  0.00  0.00    +0.000 A 
ATOM     19  C   UNL     1       2.424   6.280  17.979  0.00  0.00    +0.000 A 
ENDBRANCH  13  14
ENDBRANCH  12  13
ENDBRANCH   3  12
TORSDOF 5
ENDMDL
MODEL 9
REMARK VINA RESULT:      -6.7      2.935      4.323
REMARK  Name = 
REMARK  6 active torsions:
REMARK  status: ('A' for Active; 'I' for Inactive)
REMARK    1  A    between atoms: C_1  and  C_2
REMARK    2  A    between atoms: C_2  and  S_3
REMARK    3  A    between atoms: S_3  and  C_4
REMARK    4  A    between atoms: C_6  and  S_7
REMARK    5  A    between atoms: S_7  and  C_8
REMARK    6  A    between atoms: C_8  and  C_9
REMARK                            x       y       z     vdW  Elec       q    Type
REMARK                         _______ _______ _______ _____ _____    ______ ____
ROOT
ATOM      1  C   UNL     1       7.779   8.035  17.784  0.00  0.00    +0.000 A 
ATOM      2  N   UNL     1       6.947   7.575  16.928  0.00  0.00    +0.000 NA
ATOM      3  C   UNL     1       6.601   6.264  17.081  0.00  0.00    +0.000 A 
ATOM      4  N   UNL     1       7.027   5.501  18.023  0.00  0.00    +0.000 NA
ATOM      5  C   UNL     1       7.909   6.010  18.927  0.00  0.00    +0.000 A 
ATOM      6  O   UNL     1       8.370   5.349  19.852  0.00  0.00    +0.000 OA
ATOM      7  N   UNL     1       8.287   7.301  18.785  0.00  0.00    +0.000 N 
ATOM      8  H   UNL     1       8.943   7.689  19.443  0.00  0.00    +0.000 HD
ENDROOT
BRANCH   1   9
ATOM      9  S   UNL     1       8.377   9.663  17.774  0.00  0.00    +0.000 S 
BRANCH   9  11
ATOM     10  C   UNL     1       9.834  11.088  19.603  0.00  0.00    +0.000 C 
ATOM     11  C   UNL     1       9.169   9.736  19.407  0.00  0.00    +0.000 C 
ENDBRANCH   9  11
ENDBRANCH   1   9
BRANCH   3  12
ATOM     12  S   UNL     1       5.524   5.630  15.855  0.00  0.00    +0.000 S 
BRANCH  12  13
ATOM     13  C   UNL     1       5.214   3.961  16.495  0.00  0.00    +0.000 C 
BRANCH  13  14
ATOM     14  C   UNL     1       3.863   3.888  17.173  0.00  0.00    +0.000 A 
ATOM     15  C   UNL     1       3.236   5.053  17.642  0.00  0.00    +0.000 A 
ATOM     16  C   UNL     1       2.011   4.981  18.313  0.00  0.00    +0.000 A 
ATOM     17  C   UNL     1       1.401   3.746  18.523  0.00  0.00    +0.000 A 
ATOM     18  C   UNL     1       2.011   2.583  18.059  0.00  0.00    +0.000 A 
ATOM     19  C   UNL     1       3.235   2.652  17.390  0.00  0.00    +0.000 A 
ENDBRANCH  13  14
ENDBRANCH  12  13
ENDBRANCH   3  12
TORSDOF 5
ENDMDL
