MODEL 1
REMARK VINA RESULT:      -9.5      0.000      0.000
REMARK  Name = 
REMARK  7 active torsions:
REMARK  status: ('A' for Active; 'I' for Inactive)
REMARK    1  A    between atoms: N_5  and  C_6
REMARK    2  A    between atoms: C_6  and  C_7
REMARK    3  A    between atoms: C_7  and  C_8
REMARK    4  A    between atoms: C_8  and  C_9
REMARK    5  A    between atoms: C_14  and  C_15
REMARK    6  A    between atoms: N_30  and  C_31
REMARK    7  A    between atoms: C_31  and  C_32
REMARK                            x       y       z     vdW  Elec       q    Type
REMARK                         _______ _______ _______ _____ _____    ______ ____
ROOT
ATOM      1  O   UNL     1       0.729   9.435  22.273  0.00  0.00    +0.000 OA
ATOM      2  C   UNL     1       0.698   8.852  21.189  0.00  0.00    +0.000 A 
ATOM      3  N   UNL     1       0.967   7.518  21.122  0.00  0.00    +0.000 NA
ATOM      4  C   UNL     1       1.730   7.099  20.163  0.00  0.00    +0.000 A 
ATOM      5  N   UNL     1       2.251   5.833  20.043  0.00  0.00    +0.000 N 
ATOM      6  N   UNL     1       3.286   5.582  19.194  0.00  0.00    +0.000 NA
ATOM      7  C   UNL     1       3.691   6.526  18.394  0.00  0.00    +0.000 A 
ATOM      8  N   UNL     1       3.090   7.757  18.256  0.00  0.00    +0.000 NA
ATOM      9  C   UNL     1       2.139   8.055  19.090  0.00  0.00    +0.000 A 
ATOM     10  C   UNL     1       1.411   9.374  19.018  0.00  0.00    +0.000 A 
ATOM     11  O   UNL     1       1.751  10.217  18.200  0.00  0.00    +0.000 OA
ATOM     12  N   UNL     1       0.457   9.528  20.005  0.00  0.00    +0.000 N 
ENDROOT
BRANCH   7  13
ATOM     13  C   UNL     1       4.973   6.305  17.661  0.00  0.00    +0.000 A 
ATOM     14  C   UNL     1       6.075   5.665  18.276  0.00  0.00    +0.000 A 
ATOM     15  C   UNL     1       7.095   5.108  17.494  0.00  0.00    +0.000 A 
ATOM     16  C   UNL     1       6.953   5.192  16.125  0.00  0.00    +0.000 A 
ATOM     17  C   UNL     1       5.949   5.934  15.538  0.00  0.00    +0.000 A 
ATOM     18  C   UNL     1       4.955   6.520  16.275  0.00  0.00    +0.000 A 
ATOM     19  O   UNL     1       5.943   5.822  14.179  0.00  0.00    +0.000 OA
ATOM     20  C   UNL     1       6.695   4.608  14.105  0.00  0.00    +0.000 C 
ATOM     21  F   UNL     1       5.806   3.576  14.137  0.00  0.00    +0.000 F 
ATOM     22  F   UNL     1       7.350   4.546  12.925  0.00  0.00    +0.000 F 
ATOM     23  O   UNL     1       7.626   4.454  15.193  0.00  0.00    +0.000 OA
ENDBRANCH   7  13
BRANCH   5  24
ATOM     24  C   UNL     1       2.147   4.877  21.151  0.00  0.00    +0.000 C 
BRANCH  24  25
ATOM     25  C   UNL     1       1.243   3.709  20.778  0.00  0.00    +0.000 C 
BRANCH  25  26
ATOM     26  C   UNL     1       1.951   2.681  19.895  0.00  0.00    +0.000 C 
BRANCH  26  27
ATOM     27  C   UNL     1       1.328   2.584  18.517  0.00  0.00    +0.000 C 
ATOM     28  F   UNL     1       2.126   1.954  17.631  0.00  0.00    +0.000 F 
ATOM     29  F   UNL     1       0.160   1.906  18.568  0.00  0.00    +0.000 F 
ATOM     30  F   UNL     1       1.063   3.815  18.026  0.00  0.00    +0.000 F 
ENDBRANCH  26  27
ENDBRANCH  25  26
ENDBRANCH  24  25
ENDBRANCH   5  24
BRANCH  12  31
ATOM     31  C   UNL     1      -0.174  10.829  20.180  0.00  0.00    +0.000 C 
BRANCH  31  32
ATOM     32  C   UNL     1      -1.427  11.053  19.382  0.00  0.00    +0.000 C 
ATOM     33  C   UNL     1      -2.334  12.250  19.530  0.00  0.00    +0.000 C 
ATOM     34  C   UNL     1      -1.433  12.146  18.335  0.00  0.00    +0.000 C 
ENDBRANCH  31  32
ENDBRANCH  12  31
TORSDOF 7
ENDMDL
MODEL 2
REMARK VINA RESULT:      -8.8      2.897      7.637
REMARK  Name = 
REMARK  7 active torsions:
REMARK  status: ('A' for Active; 'I' for Inactive)
REMARK    1  A    between atoms: N_5  and  C_6
REMARK    2  A    between atoms: C_6  and  C_7
REMARK    3  A    between atoms: C_7  and  C_8
REMARK    4  A    between atoms: C_8  and  C_9
REMARK    5  A    between atoms: C_14  and  C_15
REMARK    6  A    between atoms: N_30  and  C_31
REMARK    7  A    between atoms: C_31  and  C_32
REMARK                            x       y       z     vdW  Elec       q    Type
REMARK                         _______ _______ _______ _____ _____    ______ ____
ROOT
ATOM      1  O   UNL     1       4.492   3.145  17.066  0.00  0.00    +0.000 OA
ATOM      2  C   UNL     1       4.716   4.256  17.548  0.00  0.00    +0.000 A 
ATOM      3  N   UNL     1       4.092   4.641  18.697  0.00  0.00    +0.000 NA
ATOM      4  C   UNL     1       3.620   5.845  18.757  0.00  0.00    +0.000 A 
ATOM      5  N   UNL     1       2.812   6.344  19.750  0.00  0.00    +0.000 N 
ATOM      6  N   UNL     1       2.110   7.497  19.566  0.00  0.00    +0.000 NA
ATOM      7  C   UNL     1       2.316   8.197  18.488  0.00  0.00    +0.000 A 
ATOM      8  N   UNL     1       3.273   7.921  17.538  0.00  0.00    +0.000 NA
ATOM      9  C   UNL     1       3.920   6.800  17.648  0.00  0.00    +0.000 A 
ATOM     10  C   UNL     1       4.994   6.408  16.663  0.00  0.00    +0.000 A 
ATOM     11  O   UNL     1       5.232   7.124  15.701  0.00  0.00    +0.000 OA
ATOM     12  N   UNL     1       5.546   5.168  16.920  0.00  0.00    +0.000 N 
ENDROOT
BRANCH   7  13
ATOM     13  C   UNL     1       1.364   9.310  18.198  0.00  0.00    +0.000 A 
ATOM     14  C   UNL     1       0.068   9.061  17.689  0.00  0.00    +0.000 A 
ATOM     15  C   UNL     1      -0.934  10.033  17.800  0.00  0.00    +0.000 A 
ATOM     16  C   UNL     1      -0.600  11.207  18.443  0.00  0.00    +0.000 A 
ATOM     17  C   UNL     1       0.697  11.495  18.813  0.00  0.00    +0.000 A 
ATOM     18  C   UNL     1       1.707  10.580  18.686  0.00  0.00    +0.000 A 
ATOM     19  O   UNL     1       0.795  12.669  19.499  0.00  0.00    +0.000 OA
ATOM     20  C   UNL     1      -0.577  12.753  19.891  0.00  0.00    +0.000 C 
ATOM     21  F   UNL     1      -0.698  12.125  21.093  0.00  0.00    +0.000 F 
ATOM     22  F   UNL     1      -0.924  14.047  20.069  0.00  0.00    +0.000 F 
ATOM     23  O   UNL     1      -1.471  12.130  18.949  0.00  0.00    +0.000 OA
ENDBRANCH   7  13
BRANCH   5  24
ATOM     24  C   UNL     1       2.228   5.449  20.756  0.00  0.00    +0.000 C 
BRANCH  24  25
ATOM     25  C   UNL     1       0.991   4.748  20.208  0.00  0.00    +0.000 C 
BRANCH  25  26
ATOM     26  C   UNL     1       1.130   3.225  20.219  0.00  0.00    +0.000 C 
BRANCH  26  27
ATOM     27  C   UNL     1       1.149   2.642  18.820  0.00  0.00    +0.000 C 
ATOM     28  F   UNL     1       2.197   1.818  18.616  0.00  0.00    +0.000 F 
ATOM     29  F   UNL     1       0.022   1.935  18.582  0.00  0.00    +0.000 F 
ATOM     30  F   UNL     1       1.216   3.625  17.895  0.00  0.00    +0.000 F 
ENDBRANCH  26  27
ENDBRANCH  25  26
ENDBRANCH  24  25
ENDBRANCH   5  24
BRANCH  12  31
ATOM     31  C   UNL     1       6.443   4.578  15.935  0.00  0.00    +0.000 C 
BRANCH  31  32
ATOM     32  C   UNL     1       6.129   4.896  14.502  0.00  0.00    +0.000 C 
ATOM     33  C   UNL     1       6.885   4.345  13.317  0.00  0.00    +0.000 C 
ATOM     34  C   UNL     1       5.518   3.814  13.636  0.00  0.00    +0.000 C 
ENDBRANCH  31  32
ENDBRANCH  12  31
TORSDOF 7
ENDMDL
MODEL 3
REMARK VINA RESULT:      -8.6      0.955      1.288
REMARK  Name = 
REMARK  7 active torsions:
REMARK  status: ('A' for Active; 'I' for Inactive)
REMARK    1  A    between atoms: N_5  and  C_6
REMARK    2  A    between atoms: C_6  and  C_7
REMARK    3  A    between atoms: C_7  and  C_8
REMARK    4  A    between atoms: C_8  and  C_9
REMARK    5  A    between atoms: C_14  and  C_15
REMARK    6  A    between atoms: N_30  and  C_31
REMARK    7  A    between atoms: C_31  and  C_32
REMARK                            x       y       z     vdW  Elec       q    Type
REMARK                         _______ _______ _______ _____ _____    ______ ____
ROOT
ATOM      1  O   UNL     1       0.599   9.517  22.153  0.00  0.00    +0.000 OA
ATOM      2  C   UNL     1       0.603   8.960  21.055  0.00  0.00    +0.000 A 
ATOM      3  N   UNL     1       0.813   7.616  20.972  0.00  0.00    +0.000 NA
ATOM      4  C   UNL     1       1.609   7.182  20.047  0.00  0.00    +0.000 A 
ATOM      5  N   UNL     1       2.076   5.896  19.925  0.00  0.00    +0.000 N 
ATOM      6  N   UNL     1       3.145   5.614  19.130  0.00  0.00    +0.000 NA
ATOM      7  C   UNL     1       3.640   6.554  18.378  0.00  0.00    +0.000 A 
ATOM      8  N   UNL     1       3.105   7.815  18.236  0.00  0.00    +0.000 NA
ATOM      9  C   UNL     1       2.123   8.141  19.022  0.00  0.00    +0.000 A 
ATOM     10  C   UNL     1       1.463   9.495  18.942  0.00  0.00    +0.000 A 
ATOM     11  O   UNL     1       1.888  10.338  18.165  0.00  0.00    +0.000 OA
ATOM     12  N   UNL     1       0.462   9.673  19.877  0.00  0.00    +0.000 N 
ENDROOT
BRANCH   7  13
ATOM     13  C   UNL     1       4.949   6.288  17.712  0.00  0.00    +0.000 A 
ATOM     14  C   UNL     1       5.975   5.565  18.364  0.00  0.00    +0.000 A 
ATOM     15  C   UNL     1       7.009   4.979  17.622  0.00  0.00    +0.000 A 
ATOM     16  C   UNL     1       6.955   5.122  16.251  0.00  0.00    +0.000 A 
ATOM     17  C   UNL     1       6.031   5.941  15.637  0.00  0.00    +0.000 A 
ATOM     18  C   UNL     1       5.028   6.555  16.338  0.00  0.00    +0.000 A 
ATOM     19  O   UNL     1       6.101   5.879  14.277  0.00  0.00    +0.000 OA
ATOM     20  C   UNL     1       6.789   4.628  14.198  0.00  0.00    +0.000 C 
ATOM     21  F   UNL     1       5.845   3.648  14.137  0.00  0.00    +0.000 F 
ATOM     22  F   UNL     1       7.510   4.573  13.057  0.00  0.00    +0.000 F 
ATOM     23  O   UNL     1       7.642   4.382  15.331  0.00  0.00    +0.000 OA
ENDBRANCH   7  13
BRANCH   5  24
ATOM     24  C   UNL     1       1.865   4.922  21.002  0.00  0.00    +0.000 C 
BRANCH  24  25
ATOM     25  C   UNL     1       2.889   3.797  20.926  0.00  0.00    +0.000 C 
BRANCH  25  26
ATOM     26  C   UNL     1       2.430   2.649  20.025  0.00  0.00    +0.000 C 
BRANCH  26  27
ATOM     27  C   UNL     1       3.548   2.131  19.144  0.00  0.00    +0.000 C 
ATOM     28  F   UNL     1       3.748   2.901  18.054  0.00  0.00    +0.000 F 
ATOM     29  F   UNL     1       4.713   2.082  19.827  0.00  0.00    +0.000 F 
ATOM     30  F   UNL     1       3.275   0.879  18.715  0.00  0.00    +0.000 F 
ENDBRANCH  26  27
ENDBRANCH  25  26
ENDBRANCH  24  25
ENDBRANCH   5  24
BRANCH  12  31
ATOM     31  C   UNL     1      -0.117  10.999  20.048  0.00  0.00    +0.000 C 
BRANCH  31  32
ATOM     32  C   UNL     1      -0.958  11.490  18.905  0.00  0.00    +0.000 C 
ATOM     33  C   UNL     1      -1.966  10.648  18.161  0.00  0.00    +0.000 C 
ATOM     34  C   UNL     1      -2.441  11.691  19.130  0.00  0.00    +0.000 C 
ENDBRANCH  31  32
ENDBRANCH  12  31
TORSDOF 7
ENDMDL
MODEL 4
REMARK VINA RESULT:      -8.6      0.712      1.016
REMARK  Name = 
REMARK  7 active torsions:
REMARK  status: ('A' for Active; 'I' for Inactive)
REMARK    1  A    between atoms: N_5  and  C_6
REMARK    2  A    between atoms: C_6  and  C_7
REMARK    3  A    between atoms: C_7  and  C_8
REMARK    4  A    between atoms: C_8  and  C_9
REMARK    5  A    between atoms: C_14  and  C_15
REMARK    6  A    between atoms: N_30  and  C_31
REMARK    7  A    between atoms: C_31  and  C_32
REMARK                            x       y       z     vdW  Elec       q    Type
REMARK                         _______ _______ _______ _____ _____    ______ ____
ROOT
ATOM      1  O   UNL     1       0.807   9.810  22.070  0.00  0.00    +0.000 OA
ATOM      2  C   UNL     1       0.758   9.148  21.033  0.00  0.00    +0.000 A 
ATOM      3  N   UNL     1       1.010   7.809  21.065  0.00  0.00    +0.000 NA
ATOM      4  C   UNL     1       1.758   7.310  20.132  0.00  0.00    +0.000 A 
ATOM      5  N   UNL     1       2.262   6.033  20.103  0.00  0.00    +0.000 N 
ATOM      6  N   UNL     1       3.286   5.705  19.265  0.00  0.00    +0.000 NA
ATOM      7  C   UNL     1       3.694   6.581  18.393  0.00  0.00    +0.000 A 
ATOM      8  N   UNL     1       3.106   7.806  18.169  0.00  0.00    +0.000 NA
ATOM      9  C   UNL     1       2.167   8.178  18.986  0.00  0.00    +0.000 A 
ATOM     10  C   UNL     1       1.454   9.497  18.823  0.00  0.00    +0.000 A 
ATOM     11  O   UNL     1       1.796  10.271  17.941  0.00  0.00    +0.000 OA
ATOM     12  N   UNL     1       0.512   9.737  19.804  0.00  0.00    +0.000 N 
ENDROOT
BRANCH   7  13
ATOM     13  C   UNL     1       4.965   6.290  17.666  0.00  0.00    +0.000 A 
ATOM     14  C   UNL     1       6.014   5.563  18.276  0.00  0.00    +0.000 A 
ATOM     15  C   UNL     1       7.002   4.954  17.491  0.00  0.00    +0.000 A 
ATOM     16  C   UNL     1       6.880   5.079  16.123  0.00  0.00    +0.000 A 
ATOM     17  C   UNL     1       5.935   5.900  15.544  0.00  0.00    +0.000 A 
ATOM     18  C   UNL     1       4.977   6.536  16.286  0.00  0.00    +0.000 A 
ATOM     19  O   UNL     1       5.936   5.819  14.183  0.00  0.00    +0.000 OA
ATOM     20  C   UNL     1       6.604   4.559  14.088  0.00  0.00    +0.000 C 
ATOM     21  F   UNL     1       5.647   3.590  14.088  0.00  0.00    +0.000 F 
ATOM     22  F   UNL     1       7.266   4.479  12.912  0.00  0.00    +0.000 F 
ATOM     23  O   UNL     1       7.511   4.317  15.180  0.00  0.00    +0.000 OA
ENDBRANCH   7  13
BRANCH   5  24
ATOM     24  C   UNL     1       2.159   5.164  21.280  0.00  0.00    +0.000 C 
BRANCH  24  25
ATOM     25  C   UNL     1       2.287   3.698  20.887  0.00  0.00    +0.000 C 
BRANCH  25  26
ATOM     26  C   UNL     1       0.989   3.132  20.310  0.00  0.00    +0.000 C 
BRANCH  26  27
ATOM     27  C   UNL     1       1.129   2.751  18.851  0.00  0.00    +0.000 C 
ATOM     28  F   UNL     1       0.198   1.857  18.457  0.00  0.00    +0.000 F 
ATOM     29  F   UNL     1       1.011   3.839  18.059  0.00  0.00    +0.000 F 
ATOM     30  F   UNL     1       2.343   2.206  18.615  0.00  0.00    +0.000 F 
ENDBRANCH  26  27
ENDBRANCH  25  26
ENDBRANCH  24  25
ENDBRANCH   5  24
BRANCH  12  31
ATOM     31  C   UNL     1      -0.101  11.056  19.887  0.00  0.00    +0.000 C 
BRANCH  31  32
ATOM     32  C   UNL     1       0.348  12.044  18.849  0.00  0.00    +0.000 C 
ATOM     33  C   UNL     1      -0.442  13.257  18.424  0.00  0.00    +0.000 C 
ATOM     34  C   UNL     1       0.765  13.428  19.299  0.00  0.00    +0.000 C 
ENDBRANCH  31  32
ENDBRANCH  12  31
TORSDOF 7
ENDMDL
MODEL 5
REMARK VINA RESULT:      -8.5      1.294      1.562
REMARK  Name = 
REMARK  7 active torsions:
REMARK  status: ('A' for Active; 'I' for Inactive)
REMARK    1  A    between atoms: N_5  and  C_6
REMARK    2  A    between atoms: C_6  and  C_7
REMARK    3  A    between atoms: C_7  and  C_8
REMARK    4  A    between atoms: C_8  and  C_9
REMARK    5  A    between atoms: C_14  and  C_15
REMARK    6  A    between atoms: N_30  and  C_31
REMARK    7  A    between atoms: C_31  and  C_32
REMARK                            x       y       z     vdW  Elec       q    Type
REMARK                         _______ _______ _______ _____ _____    ______ ____
ROOT
ATOM      1  O   UNL     1       1.052   9.840  22.332  0.00  0.00    +0.000 OA
ATOM      2  C   UNL     1       0.908   9.318  21.226  0.00  0.00    +0.000 A 
ATOM      3  N   UNL     1       1.092   7.976  21.074  0.00  0.00    +0.000 NA
ATOM      4  C   UNL     1       1.757   7.568  20.040  0.00  0.00    +0.000 A 
ATOM      5  N   UNL     1       2.193   6.284  19.819  0.00  0.00    +0.000 N 
ATOM      6  N   UNL     1       3.146   6.022  18.882  0.00  0.00    +0.000 NA
ATOM      7  C   UNL     1       3.547   6.984  18.102  0.00  0.00    +0.000 A 
ATOM      8  N   UNL     1       3.010   8.251  18.070  0.00  0.00    +0.000 NA
ATOM      9  C   UNL     1       2.142   8.556  18.987  0.00  0.00    +0.000 A 
ATOM     10  C   UNL     1       1.490   9.916  19.036  0.00  0.00    +0.000 A 
ATOM     11  O   UNL     1       1.818  10.781  18.237  0.00  0.00    +0.000 OA
ATOM     12  N   UNL     1       0.621  10.069  20.099  0.00  0.00    +0.000 N 
ENDROOT
BRANCH   7  13
ATOM     13  C   UNL     1       4.756   6.732  17.263  0.00  0.00    +0.000 A 
ATOM     14  C   UNL     1       6.050   6.675  17.832  0.00  0.00    +0.000 A 
ATOM     15  C   UNL     1       7.099   6.055  17.141  0.00  0.00    +0.000 A 
ATOM     16  C   UNL     1       6.799   5.492  15.918  0.00  0.00    +0.000 A 
ATOM     17  C   UNL     1       5.572   5.671  15.313  0.00  0.00    +0.000 A 
ATOM     18  C   UNL     1       4.537   6.302  15.946  0.00  0.00    +0.000 A 
ATOM     19  O   UNL     1       5.458   4.970  14.149  0.00  0.00    +0.000 OA
ATOM     20  C   UNL     1       6.507   4.034  14.409  0.00  0.00    +0.000 C 
ATOM     21  F   UNL     1       5.951   2.964  15.042  0.00  0.00    +0.000 F 
ATOM     22  F   UNL     1       7.028   3.594  13.243  0.00  0.00    +0.000 F 
ATOM     23  O   UNL     1       7.551   4.575  15.240  0.00  0.00    +0.000 OA
ENDBRANCH   7  13
BRANCH   5  24
ATOM     24  C   UNL     1       2.114   5.277  20.883  0.00  0.00    +0.000 C 
BRANCH  24  25
ATOM     25  C   UNL     1       1.963   3.879  20.298  0.00  0.00    +0.000 C 
BRANCH  25  26
ATOM     26  C   UNL     1       2.957   2.884  20.900  0.00  0.00    +0.000 C 
BRANCH  26  27
ATOM     27  C   UNL     1       3.999   2.437  19.895  0.00  0.00    +0.000 C 
ATOM     28  F   UNL     1       4.709   3.467  19.391  0.00  0.00    +0.000 F 
ATOM     29  F   UNL     1       4.873   1.578  20.464  0.00  0.00    +0.000 F 
ATOM     30  F   UNL     1       3.416   1.796  18.858  0.00  0.00    +0.000 F 
ENDBRANCH  26  27
ENDBRANCH  25  26
ENDBRANCH  24  25
ENDBRANCH   5  24
BRANCH  12  31
ATOM     31  C   UNL     1       0.082  11.392  20.385  0.00  0.00    +0.000 C 
BRANCH  31  32
ATOM     32  C   UNL     1      -1.393  11.442  20.664  0.00  0.00    +0.000 C 
ATOM     33  C   UNL     1      -2.030  12.273  21.751  0.00  0.00    +0.000 C 
ATOM     34  C   UNL     1      -2.153  12.705  20.319  0.00  0.00    +0.000 C 
ENDBRANCH  31  32
ENDBRANCH  12  31
TORSDOF 7
ENDMDL
MODEL 6
REMARK VINA RESULT:      -8.4      0.994      1.324
REMARK  Name = 
REMARK  7 active torsions:
REMARK  status: ('A' for Active; 'I' for Inactive)
REMARK    1  A    between atoms: N_5  and  C_6
REMARK    2  A    between atoms: C_6  and  C_7
REMARK    3  A    between atoms: C_7  and  C_8
REMARK    4  A    between atoms: C_8  and  C_9
REMARK    5  A    between atoms: C_14  and  C_15
REMARK    6  A    between atoms: N_30  and  C_31
REMARK    7  A    between atoms: C_31  and  C_32
REMARK                            x       y       z     vdW  Elec       q    Type
REMARK                         _______ _______ _______ _____ _____    ______ ____
ROOT
ATOM      1  O   UNL     1       0.788   9.369  22.362  0.00  0.00    +0.000 OA
ATOM      2  C   UNL     1       0.733   8.835  21.254  0.00  0.00    +0.000 A 
ATOM      3  N   UNL     1       1.012   7.508  21.120  0.00  0.00    +0.000 NA
ATOM      4  C   UNL     1       1.753   7.141  20.123  0.00  0.00    +0.000 A 
ATOM      5  N   UNL     1       2.281   5.888  19.931  0.00  0.00    +0.000 N 
ATOM      6  N   UNL     1       3.296   5.685  19.045  0.00  0.00    +0.000 NA
ATOM      7  C   UNL     1       3.672   6.669  18.280  0.00  0.00    +0.000 A 
ATOM      8  N   UNL     1       3.057   7.899  18.214  0.00  0.00    +0.000 NA
ATOM      9  C   UNL     1       2.126   8.149  19.084  0.00  0.00    +0.000 A 
ATOM     10  C   UNL     1       1.385   9.463  19.092  0.00  0.00    +0.000 A 
ATOM     11  O   UNL     1       1.696  10.346  18.305  0.00  0.00    +0.000 OA
ATOM     12  N   UNL     1       0.455   9.563  20.109  0.00  0.00    +0.000 N 
ENDROOT
BRANCH   7  13
ATOM     13  C   UNL     1       4.936   6.494  17.504  0.00  0.00    +0.000 A 
ATOM     14  C   UNL     1       6.139   6.096  18.133  0.00  0.00    +0.000 A 
ATOM     15  C   UNL     1       7.185   5.552  17.377  0.00  0.00    +0.000 A 
ATOM     16  C   UNL     1       6.970   5.405  16.023  0.00  0.00    +0.000 A 
ATOM     17  C   UNL     1       5.852   5.919  15.400  0.00  0.00    +0.000 A 
ATOM     18  C   UNL     1       4.826   6.487  16.106  0.00  0.00    +0.000 A 
ATOM     19  O   UNL     1       5.797   5.597  14.076  0.00  0.00    +0.000 OA
ATOM     20  C   UNL     1       6.696   4.487  14.133  0.00  0.00    +0.000 C 
ATOM     21  F   UNL     1       5.952   3.373  14.376  0.00  0.00    +0.000 F 
ATOM     22  F   UNL     1       7.298   4.323  12.934  0.00  0.00    +0.000 F 
ATOM     23  O   UNL     1       7.689   4.619  15.168  0.00  0.00    +0.000 OA
ENDBRANCH   7  13
BRANCH   5  24
ATOM     24  C   UNL     1       2.215   4.881  20.996  0.00  0.00    +0.000 C 
BRANCH  24  25
ATOM     25  C   UNL     1       1.690   3.555  20.459  0.00  0.00    +0.000 C 
BRANCH  25  26
ATOM     26  C   UNL     1       2.785   2.493  20.355  0.00  0.00    +0.000 C 
BRANCH  26  27
ATOM     27  C   UNL     1       3.224   2.262  18.923  0.00  0.00    +0.000 C 
ATOM     28  F   UNL     1       3.401   0.955  18.640  0.00  0.00    +0.000 F 
ATOM     29  F   UNL     1       2.306   2.746  18.058  0.00  0.00    +0.000 F 
ATOM     30  F   UNL     1       4.391   2.896  18.674  0.00  0.00    +0.000 F 
ENDBRANCH  26  27
ENDBRANCH  25  26
ENDBRANCH  24  25
ENDBRANCH   5  24
BRANCH  12  31
ATOM     31  C   UNL     1      -0.182  10.849  20.360  0.00  0.00    +0.000 C 
BRANCH  31  32
ATOM     32  C   UNL     1       0.747  11.969  20.729  0.00  0.00    +0.000 C 
ATOM     33  C   UNL     1       0.753  13.328  20.073  0.00  0.00    +0.000 C 
ATOM     34  C   UNL     1       0.180  13.173  21.451  0.00  0.00    +0.000 C 
ENDBRANCH  31  32
ENDBRANCH  12  31
TORSDOF 7
ENDMDL
MODEL 7
REMARK VINA RESULT:      -8.3      2.980      7.435
REMARK  Name = 
REMARK  7 active torsions:
REMARK  status: ('A' for Active; 'I' for Inactive)
REMARK    1  A    between atoms: N_5  and  C_6
REMARK    2  A    between atoms: C_6  and  C_7
REMARK    3  A    between atoms: C_7  and  C_8
REMARK    4  A    between atoms: C_8  and  C_9
REMARK    5  A    between atoms: C_14  and  C_15
REMARK    6  A    between atoms: N_30  and  C_31
REMARK    7  A    between atoms: C_31  and  C_32
REMARK                            x       y       z     vdW  Elec       q    Type
REMARK                         _______ _______ _______ _____ _____    ______ ____
ROOT
ATOM      1  O   UNL     1       4.644   3.002  16.617  0.00  0.00    +0.000 OA
ATOM      2  C   UNL     1       4.907   4.052  17.202  0.00  0.00    +0.000 A 
ATOM      3  N   UNL     1       4.359   4.311  18.422  0.00  0.00    +0.000 NA
ATOM      4  C   UNL     1       3.902   5.503  18.642  0.00  0.00    +0.000 A 
ATOM      5  N   UNL     1       3.161   5.892  19.731  0.00  0.00    +0.000 N 
ATOM      6  N   UNL     1       2.461   7.061  19.717  0.00  0.00    +0.000 NA
ATOM      7  C   UNL     1       2.607   7.874  18.711  0.00  0.00    +0.000 A 
ATOM      8  N   UNL     1       3.502   7.701  17.680  0.00  0.00    +0.000 NA
ATOM      9  C   UNL     1       4.143   6.573  17.626  0.00  0.00    +0.000 A 
ATOM     10  C   UNL     1       5.151   6.287  16.541  0.00  0.00    +0.000 A 
ATOM     11  O   UNL     1       5.337   7.103  15.650  0.00  0.00    +0.000 OA
ATOM     12  N   UNL     1       5.706   5.025  16.626  0.00  0.00    +0.000 N 
ENDROOT
BRANCH   7  13
ATOM     13  C   UNL     1       1.650   9.015  18.603  0.00  0.00    +0.000 A 
ATOM     14  C   UNL     1       0.411   9.008  19.285  0.00  0.00    +0.000 A 
ATOM     15  C   UNL     1      -0.280  10.205  19.509  0.00  0.00    +0.000 A 
ATOM     16  C   UNL     1       0.316  11.366  19.063  0.00  0.00    +0.000 A 
ATOM     17  C   UNL     1       1.453  11.351  18.282  0.00  0.00    +0.000 A 
ATOM     18  C   UNL     1       2.134  10.193  18.016  0.00  0.00    +0.000 A 
ATOM     19  O   UNL     1       1.919  12.604  18.013  0.00  0.00    +0.000 OA
ATOM     20  C   UNL     1       1.247  13.269  19.086  0.00  0.00    +0.000 C 
ATOM     21  F   UNL     1       2.080  13.251  20.162  0.00  0.00    +0.000 F 
ATOM     22  F   UNL     1       1.030  14.562  18.758  0.00  0.00    +0.000 F 
ATOM     23  O   UNL     1       0.004  12.639  19.449  0.00  0.00    +0.000 OA
ENDBRANCH   7  13
BRANCH   5  24
ATOM     24  C   UNL     1       2.632   4.895  20.667  0.00  0.00    +0.000 C 
BRANCH  24  25
ATOM     25  C   UNL     1       1.147   4.656  20.425  0.00  0.00    +0.000 C 
BRANCH  25  26
ATOM     26  C   UNL     1       0.813   3.172  20.264  0.00  0.00    +0.000 C 
BRANCH  26  27
ATOM     27  C   UNL     1       1.090   2.672  18.860  0.00  0.00    +0.000 C 
ATOM     28  F   UNL     1       0.131   1.840  18.408  0.00  0.00    +0.000 F 
ATOM     29  F   UNL     1       1.177   3.705  17.993  0.00  0.00    +0.000 F 
ATOM     30  F   UNL     1       2.265   2.005  18.816  0.00  0.00    +0.000 F 
ENDBRANCH  26  27
ENDBRANCH  25  26
ENDBRANCH  24  25
ENDBRANCH   5  24
BRANCH  12  31
ATOM     31  C   UNL     1       6.536   4.544  15.530  0.00  0.00    +0.000 C 
BRANCH  31  32
ATOM     32  C   UNL     1       5.820   3.739  14.483  0.00  0.00    +0.000 C 
ATOM     33  C   UNL     1       5.126   4.326  13.279  0.00  0.00    +0.000 C 
ATOM     34  C   UNL     1       6.441   3.624  13.107  0.00  0.00    +0.000 C 
ENDBRANCH  31  32
ENDBRANCH  12  31
TORSDOF 7
ENDMDL
MODEL 8
REMARK VINA RESULT:      -8.1      4.583      6.541
REMARK  Name = 
REMARK  7 active torsions:
REMARK  status: ('A' for Active; 'I' for Inactive)
REMARK    1  A    between atoms: N_5  and  C_6
REMARK    2  A    between atoms: C_6  and  C_7
REMARK    3  A    between atoms: C_7  and  C_8
REMARK    4  A    between atoms: C_8  and  C_9
REMARK    5  A    between atoms: C_14  and  C_15
REMARK    6  A    between atoms: N_30  and  C_31
REMARK    7  A    between atoms: C_31  and  C_32
REMARK                            x       y       z     vdW  Elec       q    Type
REMARK                         _______ _______ _______ _____ _____    ______ ____
ROOT
ATOM      1  O   UNL     1       2.593   6.619  20.022  0.00  0.00    +0.000 OA
ATOM      2  C   UNL     1       3.205   5.644  19.583  0.00  0.00    +0.000 A 
ATOM      3  N   UNL     1       4.556   5.706  19.412  0.00  0.00    +0.000 NA
ATOM      4  C   UNL     1       5.052   5.215  18.321  0.00  0.00    +0.000 A 
ATOM      5  N   UNL     1       6.353   5.348  17.898  0.00  0.00    +0.000 N 
ATOM      6  N   UNL     1       6.697   5.084  16.607  0.00  0.00    +0.000 NA
ATOM      7  C   UNL     1       5.807   4.573  15.807  0.00  0.00    +0.000 A 
ATOM      8  N   UNL     1       4.543   4.175  16.182  0.00  0.00    +0.000 NA
ATOM      9  C   UNL     1       4.158   4.465  17.388  0.00  0.00    +0.000 A 
ATOM     10  C   UNL     1       2.796   4.067  17.899  0.00  0.00    +0.000 A 
ATOM     11  O   UNL     1       2.003   3.509  17.155  0.00  0.00    +0.000 OA
ATOM     12  N   UNL     1       2.550   4.490  19.191  0.00  0.00    +0.000 N 
ENDROOT
BRANCH   7  13
ATOM     13  C   UNL     1       6.134   4.527  14.351  0.00  0.00    +0.000 A 
ATOM     14  C   UNL     1       7.268   5.192  13.827  0.00  0.00    +0.000 A 
ATOM     15  C   UNL     1       7.789   4.826  12.580  0.00  0.00    +0.000 A 
ATOM     16  C   UNL     1       7.166   3.787  11.921  0.00  0.00    +0.000 A 
ATOM     17  C   UNL     1       5.984   3.238  12.373  0.00  0.00    +0.000 A 
ATOM     18  C   UNL     1       5.430   3.598  13.572  0.00  0.00    +0.000 A 
ATOM     19  O   UNL     1       5.580   2.176  11.619  0.00  0.00    +0.000 OA
ATOM     20  C   UNL     1       6.851   1.890  11.031  0.00  0.00    +0.000 C 
ATOM     21  F   UNL     1       7.485   0.999  11.843  0.00  0.00    +0.000 F 
ATOM     22  F   UNL     1       6.677   1.296   9.830  0.00  0.00    +0.000 F 
ATOM     23  O   UNL     1       7.680   3.059  10.885  0.00  0.00    +0.000 OA
ENDBRANCH   7  13
BRANCH   5  24
ATOM     24  C   UNL     1       7.267   6.272  18.578  0.00  0.00    +0.000 C 
BRANCH  24  25
ATOM     25  C   UNL     1       7.927   7.216  17.582  0.00  0.00    +0.000 C 
BRANCH  25  26
ATOM     26  C   UNL     1       7.449   8.660  17.740  0.00  0.00    +0.000 C 
BRANCH  26  27
ATOM     27  C   UNL     1       8.544   9.573  18.254  0.00  0.00    +0.000 C 
ATOM     28  F   UNL     1       8.072  10.768  18.666  0.00  0.00    +0.000 F 
ATOM     29  F   UNL     1       9.188   9.007  19.297  0.00  0.00    +0.000 F 
ATOM     30  F   UNL     1       9.460   9.807  17.288  0.00  0.00    +0.000 F 
ENDBRANCH  26  27
ENDBRANCH  25  26
ENDBRANCH  24  25
ENDBRANCH   5  24
BRANCH  12  31
ATOM     31  C   UNL     1       1.205   4.354  19.734  0.00  0.00    +0.000 C 
BRANCH  31  32
ATOM     32  C   UNL     1       0.951   3.105  20.527  0.00  0.00    +0.000 C 
ATOM     33  C   UNL     1       1.973   2.020  20.767  0.00  0.00    +0.000 C 
ATOM     34  C   UNL     1       1.613   2.958  21.881  0.00  0.00    +0.000 C 
ENDBRANCH  31  32
ENDBRANCH  12  31
TORSDOF 7
ENDMDL
MODEL 9
REMARK VINA RESULT:      -8.0      2.967      7.706
REMARK  Name = 
REMARK  7 active torsions:
REMARK  status: ('A' for Active; 'I' for Inactive)
REMARK    1  A    between atoms: N_5  and  C_6
REMARK    2  A    between atoms: C_6  and  C_7
REMARK    3  A    between atoms: C_7  and  C_8
REMARK    4  A    between atoms: C_8  and  C_9
REMARK    5  A    between atoms: C_14  and  C_15
REMARK    6  A    between atoms: N_30  and  C_31
REMARK    7  A    between atoms: C_31  and  C_32
REMARK                            x       y       z     vdW  Elec       q    Type
REMARK                         _______ _______ _______ _____ _____    ______ ____
ROOT
ATOM      1  O   UNL     1       3.634   3.993  16.563  0.00  0.00    +0.000 OA
ATOM      2  C   UNL     1       3.922   4.859  17.390  0.00  0.00    +0.000 A 
ATOM      3  N   UNL     1       3.617   4.675  18.706  0.00  0.00    +0.000 NA
ATOM      4  C   UNL     1       3.115   5.675  19.358  0.00  0.00    +0.000 A 
ATOM      5  N   UNL     1       2.584   5.625  20.624  0.00  0.00    +0.000 N 
ATOM      6  N   UNL     1       1.798   6.635  21.092  0.00  0.00    +0.000 NA
ATOM      7  C   UNL     1       1.662   7.714  20.377  0.00  0.00    +0.000 A 
ATOM      8  N   UNL     1       2.337   7.975  19.206  0.00  0.00    +0.000 NA
ATOM      9  C   UNL     1       3.048   7.014  18.697  0.00  0.00    +0.000 A 
ATOM     10  C   UNL     1       3.830   7.200  17.421  0.00  0.00    +0.000 A 
ATOM     11  O   UNL     1       3.757   8.255  16.808  0.00  0.00    +0.000 OA
ATOM     12  N   UNL     1       4.498   6.061  17.016  0.00  0.00    +0.000 N 
ENDROOT
BRANCH   7  13
ATOM     13  C   UNL     1       0.610   8.688  20.793  0.00  0.00    +0.000 A 
ATOM     14  C   UNL     1       0.057   8.668  22.094  0.00  0.00    +0.000 A 
ATOM     15  C   UNL     1      -0.604   9.794  22.599  0.00  0.00    +0.000 A 
ATOM     16  C   UNL     1      -0.661  10.906  21.785  0.00  0.00    +0.000 A 
ATOM     17  C   UNL     1      -0.241  10.872  20.471  0.00  0.00    +0.000 A 
ATOM     18  C   UNL     1       0.379   9.775  19.937  0.00  0.00    +0.000 A 
ATOM     19  O   UNL     1      -0.312  12.093  19.869  0.00  0.00    +0.000 OA
ATOM     20  C   UNL     1      -0.339  12.873  21.067  0.00  0.00    +0.000 C 
ATOM     21  F   UNL     1       0.950  13.170  21.389  0.00  0.00    +0.000 F 
ATOM     22  F   UNL     1      -0.983  14.039  20.839  0.00  0.00    +0.000 F 
ATOM     23  O   UNL     1      -0.949  12.183  22.174  0.00  0.00    +0.000 OA
ENDBRANCH   7  13
BRANCH   5  24
ATOM     24  C   UNL     1       2.347   4.336  21.282  0.00  0.00    +0.000 C 
BRANCH  24  25
ATOM     25  C   UNL     1       1.043   3.711  20.803  0.00  0.00    +0.000 C 
BRANCH  25  26
ATOM     26  C   UNL     1       1.248   2.321  20.200  0.00  0.00    +0.000 C 
BRANCH  26  27
ATOM     27  C   UNL     1       1.137   2.329  18.689  0.00  0.00    +0.000 C 
ATOM     28  F   UNL     1       0.942   3.567  18.191  0.00  0.00    +0.000 F 
ATOM     29  F   UNL     1       2.261   1.835  18.124  0.00  0.00    +0.000 F 
ATOM     30  F   UNL     1       0.105   1.557  18.283  0.00  0.00    +0.000 F 
ENDBRANCH  26  27
ENDBRANCH  25  26
ENDBRANCH  24  25
ENDBRANCH   5  24
BRANCH  12  31
ATOM     31  C   UNL     1       5.121   6.039  15.699  0.00  0.00    +0.000 C 
BRANCH  31  32
ATOM     32  C   UNL     1       6.569   5.643  15.677  0.00  0.00    +0.000 C 
ATOM     33  C   UNL     1       7.164   4.524  16.497  0.00  0.00    +0.000 C 
ATOM     34  C   UNL     1       6.953   4.332  15.024  0.00  0.00    +0.000 C 
ENDBRANCH  31  32
ENDBRANCH  12  31
TORSDOF 7
ENDMDL
