MODEL 1
REMARK VINA RESULT:      -7.6      0.000      0.000
REMARK  Name = 
REMARK  12 active torsions:
REMARK  status: ('A' for Active; 'I' for Inactive)
REMARK    1  A    between atoms: C_1  and  C_2
REMARK    2  A    between atoms: C_2  and  CA_3
REMARK    3  A    between atoms: CA_3  and  C_4
REMARK    4  A    between atoms: CA_3  and  N_6
REMARK    5  A    between atoms: C_4  and  O_5
REMARK    6  A    between atoms: N_6  and  C_7
REMARK    7  A    between atoms: C_9  and  S_10
REMARK    8  A    between atoms: S_10  and  C_11
REMARK    9  A    between atoms: C_11  and  C_12
REMARK   10  A    between atoms: N_24  and  C_25
REMARK   11  A    between atoms: C_25  and  C_26
REMARK   12  A    between atoms: C_25  and  C_27
REMARK                            x       y       z     vdW  Elec       q    Type
REMARK                         _______ _______ _______ _____ _____    ______ ____
ROOT
ATOM      1  C   UNL     1       6.840   5.168  16.075  0.00  0.00    +0.000 A 
ATOM      2  N   UNL     1       7.670   6.126  16.571  0.00  0.00    +0.000 NA
ATOM      3  C   UNL     1       7.301   6.810  17.680  0.00  0.00    +0.000 A 
ATOM      4  N   UNL     1       6.189   6.615  18.392  0.00  0.00    +0.000 NA
ATOM      5  C   UNL     1       5.378   5.648  17.924  0.00  0.00    +0.000 A 
ATOM      6  N   UNL     1       4.232   5.283  18.605  0.00  0.00    +0.000 NA
ATOM      7  C   UNL     1       3.606   4.325  17.968  0.00  0.00    +0.000 A 
ATOM      8  N   UNL     1       2.455   3.729  18.370  0.00  0.00    +0.000 N 
ATOM      9  S   UNL     1       4.356   3.832  16.494  0.00  0.00    +0.000 S 
ATOM     10  C   UNL     1       5.647   4.937  16.768  0.00  0.00    +0.000 A 
ATOM     11  H   UNL     1       2.126   2.951  17.809  0.00  0.00    +0.000 HD
ENDROOT
BRANCH   8  12
ATOM     12  C   UNL     1       2.162   3.604  19.797  0.00  0.00    +0.000 C 
ATOM     13  C   UNL     1       0.718   3.133  19.969  0.00  0.00    +0.000 C 
ATOM     14  C   UNL     1       3.115   2.587  20.429  0.00  0.00    +0.000 C 
ENDBRANCH   8  12
BRANCH   1  15
ATOM     15  N   UNL     1       7.147   4.421  14.952  0.00  0.00    +0.000 N 
ATOM     16  H   UNL     1       7.524   3.496  15.127  0.00  0.00    +0.000 HD
BRANCH  15  17
ATOM     17  CA  UNL     1       6.645   4.714  13.609  0.00  0.00    +0.000 C 
BRANCH  17  19
ATOM     18  C   UNL     1       4.896   3.550  12.143  0.00  0.00    +0.000 C 
ATOM     19  C   UNL     1       6.202   3.422  12.905  0.00  0.00    +0.000 C 
ENDBRANCH  17  19
BRANCH  17  20
ATOM     20  C   UNL     1       7.805   5.320  12.771  0.00  0.00    +0.000 C 
BRANCH  20  21
ATOM     21  O   UNL     1       8.782   5.961  13.585  0.00  0.00    +0.000 OA
ATOM     22  H   UNL     1       9.612   5.937  13.074  0.00  0.00    +0.000 HD
ENDBRANCH  20  21
ENDBRANCH  17  20
ENDBRANCH  15  17
ENDBRANCH   1  15
BRANCH   3  23
ATOM     23  S   UNL     1       8.408   7.998  18.423  0.00  0.00    +0.000 S 
BRANCH  23  24
ATOM     24  C   UNL     1       7.906   9.574  17.666  0.00  0.00    +0.000 C 
BRANCH  24  25
ATOM     25  C   UNL     1       8.771  10.716  18.179  0.00  0.00    +0.000 A 
ATOM     26  C   UNL     1       9.820  10.498  19.087  0.00  0.00    +0.000 A 
ATOM     27  C   UNL     1      10.625  11.561  19.531  0.00  0.00    +0.000 A 
ATOM     28  C   UNL     1      10.400  12.854  19.064  0.00  0.00    +0.000 A 
ATOM     29  C   UNL     1       9.367  13.078  18.157  0.00  0.00    +0.000 A 
ATOM     30  F   UNL     1       9.154  14.320  17.706  0.00  0.00    +0.000 F 
ATOM     31  C   UNL     1       8.562  12.027  17.720  0.00  0.00    +0.000 A 
ATOM     32  F   UNL     1       7.574  12.273  16.857  0.00  0.00    +0.000 F 
ENDBRANCH  24  25
ENDBRANCH  23  24
ENDBRANCH   3  23
TORSDOF 9
ENDMDL
MODEL 2
REMARK VINA RESULT:      -7.6      5.161      7.829
REMARK  Name = 
REMARK  12 active torsions:
REMARK  status: ('A' for Active; 'I' for Inactive)
REMARK    1  A    between atoms: C_1  and  C_2
REMARK    2  A    between atoms: C_2  and  CA_3
REMARK    3  A    between atoms: CA_3  and  C_4
REMARK    4  A    between atoms: CA_3  and  N_6
REMARK    5  A    between atoms: C_4  and  O_5
REMARK    6  A    between atoms: N_6  and  C_7
REMARK    7  A    between atoms: C_9  and  S_10
REMARK    8  A    between atoms: S_10  and  C_11
REMARK    9  A    between atoms: C_11  and  C_12
REMARK   10  A    between atoms: N_24  and  C_25
REMARK   11  A    between atoms: C_25  and  C_26
REMARK   12  A    between atoms: C_25  and  C_27
REMARK                            x       y       z     vdW  Elec       q    Type
REMARK                         _______ _______ _______ _____ _____    ______ ____
ROOT
ATOM      1  C   UNL     1       3.375   5.348  18.455  0.00  0.00    +0.000 A 
ATOM      2  N   UNL     1       2.767   6.556  18.611  0.00  0.00    +0.000 NA
ATOM      3  C   UNL     1       3.117   7.582  17.800  0.00  0.00    +0.000 A 
ATOM      4  N   UNL     1       4.000   7.529  16.799  0.00  0.00    +0.000 NA
ATOM      5  C   UNL     1       4.583   6.329  16.620  0.00  0.00    +0.000 A 
ATOM      6  N   UNL     1       5.456   6.107  15.571  0.00  0.00    +0.000 NA
ATOM      7  C   UNL     1       5.894   4.873  15.594  0.00  0.00    +0.000 A 
ATOM      8  N   UNL     1       6.755   4.324  14.701  0.00  0.00    +0.000 N 
ATOM      9  S   UNL     1       5.295   3.921  16.903  0.00  0.00    +0.000 S 
ATOM     10  C   UNL     1       4.327   5.241  17.436  0.00  0.00    +0.000 A 
ATOM     11  H   UNL     1       6.949   3.333  14.806  0.00  0.00    +0.000 HD
ENDROOT
BRANCH   8  12
ATOM     12  C   UNL     1       6.760   4.791  13.315  0.00  0.00    +0.000 C 
ATOM     13  C   UNL     1       8.130   5.391  12.997  0.00  0.00    +0.000 C 
ATOM     14  C   UNL     1       6.481   3.615  12.377  0.00  0.00    +0.000 C 
ENDBRANCH   8  12
BRANCH   1  15
ATOM     15  N   UNL     1       3.068   4.250  19.237  0.00  0.00    +0.000 N 
ATOM     16  H   UNL     1       3.707   4.059  20.002  0.00  0.00    +0.000 HD
BRANCH  15  17
ATOM     17  CA  UNL     1       1.755   3.603  19.263  0.00  0.00    +0.000 C 
BRANCH  17  19
ATOM     18  C   UNL     1       1.551   2.680  21.644  0.00  0.00    +0.000 C 
ATOM     19  C   UNL     1       1.113   3.741  20.652  0.00  0.00    +0.000 C 
ENDBRANCH  17  19
BRANCH  17  20
ATOM     20  C   UNL     1       1.950   2.084  18.995  0.00  0.00    +0.000 C 
BRANCH  20  21
ATOM     21  O   UNL     1       2.398   1.822  17.669  0.00  0.00    +0.000 OA
ATOM     22  H   UNL     1       2.678   2.683  17.307  0.00  0.00    +0.000 HD
ENDBRANCH  20  21
ENDBRANCH  17  20
ENDBRANCH  15  17
ENDBRANCH   1  15
BRANCH   3  23
ATOM     23  S   UNL     1       2.268   9.149  17.901  0.00  0.00    +0.000 S 
BRANCH  23  24
ATOM     24  C   UNL     1       1.181   8.948  19.346  0.00  0.00    +0.000 C 
BRANCH  24  25
ATOM     25  C   UNL     1       0.238  10.135  19.479  0.00  0.00    +0.000 A 
ATOM     26  C   UNL     1       0.313  11.019  20.568  0.00  0.00    +0.000 A 
ATOM     27  C   UNL     1      -0.550  12.125  20.661  0.00  0.00    +0.000 A 
ATOM     28  C   UNL     1      -1.491  12.367  19.663  0.00  0.00    +0.000 A 
ATOM     29  C   UNL     1      -1.566  11.500  18.576  0.00  0.00    +0.000 A 
ATOM     30  F   UNL     1      -2.468  11.736  17.615  0.00  0.00    +0.000 F 
ATOM     31  C   UNL     1      -0.717  10.398  18.482  0.00  0.00    +0.000 A 
ATOM     32  F   UNL     1      -0.817   9.579  17.434  0.00  0.00    +0.000 F 
ENDBRANCH  24  25
ENDBRANCH  23  24
ENDBRANCH   3  23
TORSDOF 9
ENDMDL
MODEL 3
REMARK VINA RESULT:      -7.6      4.978      7.748
REMARK  Name = 
REMARK  12 active torsions:
REMARK  status: ('A' for Active; 'I' for Inactive)
REMARK    1  A    between atoms: C_1  and  C_2
REMARK    2  A    between atoms: C_2  and  CA_3
REMARK    3  A    between atoms: CA_3  and  C_4
REMARK    4  A    between atoms: CA_3  and  N_6
REMARK    5  A    between atoms: C_4  and  O_5
REMARK    6  A    between atoms: N_6  and  C_7
REMARK    7  A    between atoms: C_9  and  S_10
REMARK    8  A    between atoms: S_10  and  C_11
REMARK    9  A    between atoms: C_11  and  C_12
REMARK   10  A    between atoms: N_24  and  C_25
REMARK   11  A    between atoms: C_25  and  C_26
REMARK   12  A    between atoms: C_25  and  C_27
REMARK                            x       y       z     vdW  Elec       q    Type
REMARK                         _______ _______ _______ _____ _____    ______ ____
ROOT
ATOM      1  C   UNL     1       3.340   5.446  18.560  0.00  0.00    +0.000 A 
ATOM      2  N   UNL     1       2.788   6.680  18.715  0.00  0.00    +0.000 NA
ATOM      3  C   UNL     1       3.175   7.685  17.895  0.00  0.00    +0.000 A 
ATOM      4  N   UNL     1       4.043   7.587  16.885  0.00  0.00    +0.000 NA
ATOM      5  C   UNL     1       4.570   6.362  16.706  0.00  0.00    +0.000 A 
ATOM      6  N   UNL     1       5.420   6.095  15.649  0.00  0.00    +0.000 NA
ATOM      7  C   UNL     1       5.803   4.843  15.675  0.00  0.00    +0.000 A 
ATOM      8  N   UNL     1       6.629   4.252  14.775  0.00  0.00    +0.000 N 
ATOM      9  S   UNL     1       5.177   3.925  16.995  0.00  0.00    +0.000 S 
ATOM     10  C   UNL     1       4.275   5.291  17.531  0.00  0.00    +0.000 A 
ATOM     11  H   UNL     1       6.779   3.254  14.883  0.00  0.00    +0.000 HD
ENDROOT
BRANCH   8  12
ATOM     12  C   UNL     1       6.640   4.711  13.387  0.00  0.00    +0.000 C 
ATOM     13  C   UNL     1       8.017   5.292  13.066  0.00  0.00    +0.000 C 
ATOM     14  C   UNL     1       6.346   3.533  12.455  0.00  0.00    +0.000 C 
ENDBRANCH   8  12
BRANCH   1  15
ATOM     15  N   UNL     1       2.993   4.366  19.351  0.00  0.00    +0.000 N 
ATOM     16  H   UNL     1       3.519   4.262  20.212  0.00  0.00    +0.000 HD
BRANCH  15  17
ATOM     17  CA  UNL     1       1.738   3.623  19.220  0.00  0.00    +0.000 C 
BRANCH  17  19
ATOM     18  C   UNL     1       1.693   2.886  21.674  0.00  0.00    +0.000 C 
ATOM     19  C   UNL     1       0.975   3.615  20.553  0.00  0.00    +0.000 C 
ENDBRANCH  17  19
BRANCH  17  20
ATOM     20  C   UNL     1       2.076   2.145  18.874  0.00  0.00    +0.000 C 
BRANCH  20  21
ATOM     21  O   UNL     1       2.116   1.914  17.470  0.00  0.00    +0.000 OA
ATOM     22  H   UNL     1       1.893   2.766  17.053  0.00  0.00    +0.000 HD
ENDBRANCH  20  21
ENDBRANCH  17  20
ENDBRANCH  15  17
ENDBRANCH   1  15
BRANCH   3  23
ATOM     23  S   UNL     1       2.398   9.289  17.996  0.00  0.00    +0.000 S 
BRANCH  23  24
ATOM     24  C   UNL     1       0.700   8.903  18.523  0.00  0.00    +0.000 C 
BRANCH  24  25
ATOM     25  C   UNL     1       0.333   9.690  19.773  0.00  0.00    +0.000 A 
ATOM     26  C   UNL     1      -0.299  10.942  19.699  0.00  0.00    +0.000 A 
ATOM     27  C   UNL     1      -0.653  11.643  20.864  0.00  0.00    +0.000 A 
ATOM     28  C   UNL     1      -0.390  11.098  22.118  0.00  0.00    +0.000 A 
ATOM     29  C   UNL     1       0.228   9.853  22.201  0.00  0.00    +0.000 A 
ATOM     30  F   UNL     1       0.478   9.328  23.407  0.00  0.00    +0.000 F 
ATOM     31  C   UNL     1       0.588   9.157  21.048  0.00  0.00    +0.000 A 
ATOM     32  F   UNL     1       1.188   7.971  21.157  0.00  0.00    +0.000 F 
ENDBRANCH  24  25
ENDBRANCH  23  24
ENDBRANCH   3  23
TORSDOF 9
ENDMDL
MODEL 4
REMARK VINA RESULT:      -7.5      5.139      7.820
REMARK  Name = 
REMARK  12 active torsions:
REMARK  status: ('A' for Active; 'I' for Inactive)
REMARK    1  A    between atoms: C_1  and  C_2
REMARK    2  A    between atoms: C_2  and  CA_3
REMARK    3  A    between atoms: CA_3  and  C_4
REMARK    4  A    between atoms: CA_3  and  N_6
REMARK    5  A    between atoms: C_4  and  O_5
REMARK    6  A    between atoms: N_6  and  C_7
REMARK    7  A    between atoms: C_9  and  S_10
REMARK    8  A    between atoms: S_10  and  C_11
REMARK    9  A    between atoms: C_11  and  C_12
REMARK   10  A    between atoms: N_24  and  C_25
REMARK   11  A    between atoms: C_25  and  C_26
REMARK   12  A    between atoms: C_25  and  C_27
REMARK                            x       y       z     vdW  Elec       q    Type
REMARK                         _______ _______ _______ _____ _____    ______ ____
ROOT
ATOM      1  C   UNL     1       4.280   5.127  18.932  0.00  0.00    +0.000 A 
ATOM      2  N   UNL     1       3.361   6.116  19.102  0.00  0.00    +0.000 NA
ATOM      3  C   UNL     1       3.291   7.118  18.194  0.00  0.00    +0.000 A 
ATOM      4  N   UNL     1       4.027   7.227  17.085  0.00  0.00    +0.000 NA
ATOM      5  C   UNL     1       4.917   6.237  16.894  0.00  0.00    +0.000 A 
ATOM      6  N   UNL     1       5.688   6.178  15.749  0.00  0.00    +0.000 NA
ATOM      7  C   UNL     1       6.475   5.131  15.780  0.00  0.00    +0.000 A 
ATOM      8  N   UNL     1       7.351   4.772  14.808  0.00  0.00    +0.000 N 
ATOM      9  S   UNL     1       6.345   4.175  17.211  0.00  0.00    +0.000 S 
ATOM     10  C   UNL     1       5.095   5.204  17.798  0.00  0.00    +0.000 A 
ATOM     11  H   UNL     1       7.843   3.895  14.941  0.00  0.00    +0.000 HD
ENDROOT
BRANCH   8  12
ATOM     12  C   UNL     1       7.055   5.087  13.411  0.00  0.00    +0.000 C 
ATOM     13  C   UNL     1       8.323   5.617  12.741  0.00  0.00    +0.000 C 
ATOM     14  C   UNL     1       6.580   3.824  12.690  0.00  0.00    +0.000 C 
ENDBRANCH   8  12
BRANCH   1  15
ATOM     15  N   UNL     1       4.408   4.066  19.810  0.00  0.00    +0.000 N 
ATOM     16  H   UNL     1       5.051   4.207  20.581  0.00  0.00    +0.000 HD
BRANCH  15  17
ATOM     17  CA  UNL     1       3.454   2.960  19.905  0.00  0.00    +0.000 C 
BRANCH  17  19
ATOM     18  C   UNL     1       1.196   2.956  18.696  0.00  0.00    +0.000 C 
ATOM     19  C   UNL     1       2.699   2.784  18.579  0.00  0.00    +0.000 C 
ENDBRANCH  17  19
BRANCH  17  20
ATOM     20  C   UNL     1       2.401   3.312  20.992  0.00  0.00    +0.000 C 
BRANCH  20  21
ATOM     21  O   UNL     1       2.560   2.533  22.173  0.00  0.00    +0.000 OA
ATOM     22  H   UNL     1       1.848   1.868  22.152  0.00  0.00    +0.000 HD
ENDBRANCH  20  21
ENDBRANCH  17  20
ENDBRANCH  15  17
ENDBRANCH   1  15
BRANCH   3  23
ATOM     23  S   UNL     1       2.030   8.375  18.324  0.00  0.00    +0.000 S 
BRANCH  23  24
ATOM     24  C   UNL     1       1.542   8.305  20.075  0.00  0.00    +0.000 C 
BRANCH  24  25
ATOM     25  C   UNL     1       0.612   9.458  20.421  0.00  0.00    +0.000 A 
ATOM     26  C   UNL     1       0.007  10.242  19.425  0.00  0.00    +0.000 A 
ATOM     27  C   UNL     1      -0.870  11.288  19.762  0.00  0.00    +0.000 A 
ATOM     28  C   UNL     1      -1.161  11.558  21.097  0.00  0.00    +0.000 A 
ATOM     29  C   UNL     1      -0.571  10.780  22.090  0.00  0.00    +0.000 A 
ATOM     30  F   UNL     1      -0.854  11.037  23.373  0.00  0.00    +0.000 F 
ATOM     31  C   UNL     1       0.304   9.746  21.761  0.00  0.00    +0.000 A 
ATOM     32  F   UNL     1       0.862   9.023  22.734  0.00  0.00    +0.000 F 
ENDBRANCH  24  25
ENDBRANCH  23  24
ENDBRANCH   3  23
TORSDOF 9
ENDMDL
MODEL 5
REMARK VINA RESULT:      -7.5      5.797      8.252
REMARK  Name = 
REMARK  12 active torsions:
REMARK  status: ('A' for Active; 'I' for Inactive)
REMARK    1  A    between atoms: C_1  and  C_2
REMARK    2  A    between atoms: C_2  and  CA_3
REMARK    3  A    between atoms: CA_3  and  C_4
REMARK    4  A    between atoms: CA_3  and  N_6
REMARK    5  A    between atoms: C_4  and  O_5
REMARK    6  A    between atoms: N_6  and  C_7
REMARK    7  A    between atoms: C_9  and  S_10
REMARK    8  A    between atoms: S_10  and  C_11
REMARK    9  A    between atoms: C_11  and  C_12
REMARK   10  A    between atoms: N_24  and  C_25
REMARK   11  A    between atoms: C_25  and  C_26
REMARK   12  A    between atoms: C_25  and  C_27
REMARK                            x       y       z     vdW  Elec       q    Type
REMARK                         _______ _______ _______ _____ _____    ______ ____
ROOT
ATOM      1  C   UNL     1       3.044   5.907  19.583  0.00  0.00    +0.000 A 
ATOM      2  N   UNL     1       2.268   7.025  19.578  0.00  0.00    +0.000 NA
ATOM      3  C   UNL     1       2.427   7.937  18.591  0.00  0.00    +0.000 A 
ATOM      4  N   UNL     1       3.267   7.839  17.557  0.00  0.00    +0.000 NA
ATOM      5  C   UNL     1       4.016   6.722  17.538  0.00  0.00    +0.000 A 
ATOM      6  N   UNL     1       4.871   6.449  16.486  0.00  0.00    +0.000 NA
ATOM      7  C   UNL     1       5.490   5.312  16.682  0.00  0.00    +0.000 A 
ATOM      8  N   UNL     1       6.388   4.747  15.837  0.00  0.00    +0.000 N 
ATOM      9  S   UNL     1       5.095   4.523  18.165  0.00  0.00    +0.000 S 
ATOM     10  C   UNL     1       3.961   5.764  18.536  0.00  0.00    +0.000 A 
ATOM     11  H   UNL     1       6.733   3.826  16.089  0.00  0.00    +0.000 HD
ENDROOT
BRANCH   8  12
ATOM     12  C   UNL     1       6.268   4.966  14.396  0.00  0.00    +0.000 C 
ATOM     13  C   UNL     1       7.662   5.190  13.809  0.00  0.00    +0.000 C 
ATOM     14  C   UNL     1       5.624   3.741  13.743  0.00  0.00    +0.000 C 
ENDBRANCH   8  12
BRANCH   1  15
ATOM     15  N   UNL     1       2.937   4.926  20.552  0.00  0.00    +0.000 N 
ATOM     16  H   UNL     1       2.913   5.254  21.511  0.00  0.00    +0.000 HD
BRANCH  15  17
ATOM     17  CA  UNL     1       2.505   3.553  20.285  0.00  0.00    +0.000 C 
BRANCH  17  19
ATOM     18  C   UNL     1       0.689   2.531  18.795  0.00  0.00    +0.000 C 
ATOM     19  C   UNL     1       1.019   3.522  19.896  0.00  0.00    +0.000 C 
ENDBRANCH  17  19
BRANCH  17  20
ATOM     20  C   UNL     1       2.656   2.728  21.593  0.00  0.00    +0.000 C 
BRANCH  20  21
ATOM     21  O   UNL     1       1.412   2.538  22.261  0.00  0.00    +0.000 OA
ATOM     22  H   UNL     1       1.257   3.353  22.771  0.00  0.00    +0.000 HD
ENDBRANCH  20  21
ENDBRANCH  17  20
ENDBRANCH  15  17
ENDBRANCH   1  15
BRANCH   3  23
ATOM     23  S   UNL     1       1.356   9.362  18.489  0.00  0.00    +0.000 S 
BRANCH  23  24
ATOM     24  C   UNL     1       0.774   9.576  20.199  0.00  0.00    +0.000 C 
BRANCH  24  25
ATOM     25  C   UNL     1      -0.332  10.618  20.264  0.00  0.00    +0.000 A 
ATOM     26  C   UNL     1      -1.018  11.040  19.113  0.00  0.00    +0.000 A 
ATOM     27  C   UNL     1      -2.054  11.986  19.195  0.00  0.00    +0.000 A 
ATOM     28  C   UNL     1      -2.425  12.515  20.429  0.00  0.00    +0.000 A 
ATOM     29  C   UNL     1      -1.756  12.097  21.576  0.00  0.00    +0.000 A 
ATOM     30  F   UNL     1      -2.116  12.603  22.762  0.00  0.00    +0.000 F 
ATOM     31  C   UNL     1      -0.723  11.164  21.499  0.00  0.00    +0.000 A 
ATOM     32  F   UNL     1      -0.093  10.788  22.613  0.00  0.00    +0.000 F 
ENDBRANCH  24  25
ENDBRANCH  23  24
ENDBRANCH   3  23
TORSDOF 9
ENDMDL
MODEL 6
REMARK VINA RESULT:      -7.5      5.208      7.846
REMARK  Name = 
REMARK  12 active torsions:
REMARK  status: ('A' for Active; 'I' for Inactive)
REMARK    1  A    between atoms: C_1  and  C_2
REMARK    2  A    between atoms: C_2  and  CA_3
REMARK    3  A    between atoms: CA_3  and  C_4
REMARK    4  A    between atoms: CA_3  and  N_6
REMARK    5  A    between atoms: C_4  and  O_5
REMARK    6  A    between atoms: N_6  and  C_7
REMARK    7  A    between atoms: C_9  and  S_10
REMARK    8  A    between atoms: S_10  and  C_11
REMARK    9  A    between atoms: C_11  and  C_12
REMARK   10  A    between atoms: N_24  and  C_25
REMARK   11  A    between atoms: C_25  and  C_26
REMARK   12  A    between atoms: C_25  and  C_27
REMARK                            x       y       z     vdW  Elec       q    Type
REMARK                         _______ _______ _______ _____ _____    ______ ____
ROOT
ATOM      1  C   UNL     1       3.618   5.807  18.872  0.00  0.00    +0.000 A 
ATOM      2  N   UNL     1       2.837   6.921  18.890  0.00  0.00    +0.000 NA
ATOM      3  C   UNL     1       2.972   7.840  17.906  0.00  0.00    +0.000 A 
ATOM      4  N   UNL     1       3.792   7.754  16.855  0.00  0.00    +0.000 NA
ATOM      5  C   UNL     1       4.546   6.640  16.814  0.00  0.00    +0.000 A 
ATOM      6  N   UNL     1       5.380   6.380  15.743  0.00  0.00    +0.000 NA
ATOM      7  C   UNL     1       6.009   5.244  15.918  0.00  0.00    +0.000 A 
ATOM      8  N   UNL     1       6.892   4.689  15.051  0.00  0.00    +0.000 N 
ATOM      9  S   UNL     1       5.646   4.442  17.403  0.00  0.00    +0.000 S 
ATOM     10  C   UNL     1       4.514   5.675  17.805  0.00  0.00    +0.000 A 
ATOM     11  H   UNL     1       7.246   3.768  15.290  0.00  0.00    +0.000 HD
ENDROOT
BRANCH   8  12
ATOM     12  C   UNL     1       6.742   4.918  13.615  0.00  0.00    +0.000 C 
ATOM     13  C   UNL     1       8.095   5.327  13.032  0.00  0.00    +0.000 C 
ATOM     14  C   UNL     1       6.256   3.634  12.939  0.00  0.00    +0.000 C 
ENDBRANCH   8  12
BRANCH   1  15
ATOM     15  N   UNL     1       3.535   4.818  19.835  0.00  0.00    +0.000 N 
ATOM     16  H   UNL     1       3.544   5.138  20.798  0.00  0.00    +0.000 HD
BRANCH  15  17
ATOM     17  CA  UNL     1       3.084   3.451  19.571  0.00  0.00    +0.000 C 
BRANCH  17  19
ATOM     18  C   UNL     1       0.816   2.455  18.918  0.00  0.00    +0.000 C 
ATOM     19  C   UNL     1       1.594   3.299  19.911  0.00  0.00    +0.000 C 
ENDBRANCH  17  19
BRANCH  17  20
ATOM     20  C   UNL     1       3.870   2.486  20.503  0.00  0.00    +0.000 C 
BRANCH  20  21
ATOM     21  O   UNL     1       4.950   1.845  19.831  0.00  0.00    +0.000 OA
ATOM     22  H   UNL     1       5.180   1.070  20.376  0.00  0.00    +0.000 HD
ENDBRANCH  20  21
ENDBRANCH  17  20
ENDBRANCH  15  17
ENDBRANCH   1  15
BRANCH   3  23
ATOM     23  S   UNL     1       1.892   9.261  17.836  0.00  0.00    +0.000 S 
BRANCH  23  24
ATOM     24  C   UNL     1       1.072   9.248  19.460  0.00  0.00    +0.000 C 
BRANCH  24  25
ATOM     25  C   UNL     1      -0.082  10.239  19.487  0.00  0.00    +0.000 A 
ATOM     26  C   UNL     1      -0.967  10.371  18.404  0.00  0.00    +0.000 A 
ATOM     27  C   UNL     1      -2.043  11.274  18.456  0.00  0.00    +0.000 A 
ATOM     28  C   UNL     1      -2.255  12.048  19.594  0.00  0.00    +0.000 A 
ATOM     29  C   UNL     1      -1.388  11.917  20.675  0.00  0.00    +0.000 A 
ATOM     30  F   UNL     1      -1.595  12.658  21.770  0.00  0.00    +0.000 F 
ATOM     31  C   UNL     1      -0.315  11.028  20.626  0.00  0.00    +0.000 A 
ATOM     32  F   UNL     1       0.505  10.930  21.673  0.00  0.00    +0.000 F 
ENDBRANCH  24  25
ENDBRANCH  23  24
ENDBRANCH   3  23
TORSDOF 9
ENDMDL
MODEL 7
REMARK VINA RESULT:      -7.5      5.126      7.658
REMARK  Name = 
REMARK  12 active torsions:
REMARK  status: ('A' for Active; 'I' for Inactive)
REMARK    1  A    between atoms: C_1  and  C_2
REMARK    2  A    between atoms: C_2  and  CA_3
REMARK    3  A    between atoms: CA_3  and  C_4
REMARK    4  A    between atoms: CA_3  and  N_6
REMARK    5  A    between atoms: C_4  and  O_5
REMARK    6  A    between atoms: N_6  and  C_7
REMARK    7  A    between atoms: C_9  and  S_10
REMARK    8  A    between atoms: S_10  and  C_11
REMARK    9  A    between atoms: C_11  and  C_12
REMARK   10  A    between atoms: N_24  and  C_25
REMARK   11  A    between atoms: C_25  and  C_26
REMARK   12  A    between atoms: C_25  and  C_27
REMARK                            x       y       z     vdW  Elec       q    Type
REMARK                         _______ _______ _______ _____ _____    ______ ____
ROOT
ATOM      1  C   UNL     1       3.958   5.348  18.689  0.00  0.00    +0.000 A 
ATOM      2  N   UNL     1       3.117   6.411  18.805  0.00  0.00    +0.000 NA
ATOM      3  C   UNL     1       3.192   7.416  17.901  0.00  0.00    +0.000 A 
ATOM      4  N   UNL     1       4.005   7.464  16.843  0.00  0.00    +0.000 NA
ATOM      5  C   UNL     1       4.819   6.401  16.704  0.00  0.00    +0.000 A 
ATOM      6  N   UNL     1       5.656   6.278  15.611  0.00  0.00    +0.000 NA
ATOM      7  C   UNL     1       6.348   5.169  15.687  0.00  0.00    +0.000 A 
ATOM      8  N   UNL     1       7.252   4.738  14.772  0.00  0.00    +0.000 N 
ATOM      9  S   UNL     1       6.044   4.226  17.100  0.00  0.00    +0.000 S 
ATOM     10  C   UNL     1       4.850   5.356  17.611  0.00  0.00    +0.000 A 
ATOM     11  H   UNL     1       7.659   3.822  14.931  0.00  0.00    +0.000 HD
ENDROOT
BRANCH   8  12
ATOM     12  C   UNL     1       7.077   5.079  13.361  0.00  0.00    +0.000 C 
ATOM     13  C   UNL     1       8.386   5.653  12.820  0.00  0.00    +0.000 C 
ATOM     14  C   UNL     1       6.701   3.821  12.573  0.00  0.00    +0.000 C 
ENDBRANCH   8  12
BRANCH   1  15
ATOM     15  N   UNL     1       3.939   4.279  19.566  0.00  0.00    +0.000 N 
ATOM     16  H   UNL     1       4.332   4.454  20.484  0.00  0.00    +0.000 HD
BRANCH  15  17
ATOM     17  CA  UNL     1       3.099   3.092  19.394  0.00  0.00    +0.000 C 
BRANCH  17  19
ATOM     18  C   UNL     1       0.965   3.791  20.627  0.00  0.00    +0.000 C 
ATOM     19  C   UNL     1       2.189   2.894  20.616  0.00  0.00    +0.000 C 
ENDBRANCH  17  19
BRANCH  17  20
ATOM     20  C   UNL     1       4.023   1.846  19.301  0.00  0.00    +0.000 C 
BRANCH  20  21
ATOM     21  O   UNL     1       5.188   1.974  20.109  0.00  0.00    +0.000 OA
ATOM     22  H   UNL     1       5.030   2.745  20.684  0.00  0.00    +0.000 HD
ENDBRANCH  20  21
ENDBRANCH  17  20
ENDBRANCH  15  17
ENDBRANCH   1  15
BRANCH   3  23
ATOM     23  S   UNL     1       2.035   8.775  17.956  0.00  0.00    +0.000 S 
BRANCH  23  24
ATOM     24  C   UNL     1       1.464   8.774  19.684  0.00  0.00    +0.000 C 
BRANCH  24  25
ATOM     25  C   UNL     1       0.764  10.082  20.019  0.00  0.00    +0.000 A 
ATOM     26  C   UNL     1       0.994  11.254  19.279  0.00  0.00    +0.000 A 
ATOM     27  C   UNL     1       0.319  12.447  19.588  0.00  0.00    +0.000 A 
ATOM     28  C   UNL     1      -0.601  12.484  20.632  0.00  0.00    +0.000 A 
ATOM     29  C   UNL     1      -0.842  11.325  21.366  0.00  0.00    +0.000 A 
ATOM     30  F   UNL     1      -1.729  11.359  22.367  0.00  0.00    +0.000 F 
ATOM     31  C   UNL     1      -0.170  10.140  21.068  0.00  0.00    +0.000 A 
ATOM     32  F   UNL     1      -0.413   9.047  21.793  0.00  0.00    +0.000 F 
ENDBRANCH  24  25
ENDBRANCH  23  24
ENDBRANCH   3  23
TORSDOF 9
ENDMDL
MODEL 8
REMARK VINA RESULT:      -7.4      5.246      7.833
REMARK  Name = 
REMARK  12 active torsions:
REMARK  status: ('A' for Active; 'I' for Inactive)
REMARK    1  A    between atoms: C_1  and  C_2
REMARK    2  A    between atoms: C_2  and  CA_3
REMARK    3  A    between atoms: CA_3  and  C_4
REMARK    4  A    between atoms: CA_3  and  N_6
REMARK    5  A    between atoms: C_4  and  O_5
REMARK    6  A    between atoms: N_6  and  C_7
REMARK    7  A    between atoms: C_9  and  S_10
REMARK    8  A    between atoms: S_10  and  C_11
REMARK    9  A    between atoms: C_11  and  C_12
REMARK   10  A    between atoms: N_24  and  C_25
REMARK   11  A    between atoms: C_25  and  C_26
REMARK   12  A    between atoms: C_25  and  C_27
REMARK                            x       y       z     vdW  Elec       q    Type
REMARK                         _______ _______ _______ _____ _____    ______ ____
ROOT
ATOM      1  C   UNL     1       3.651   5.753  18.801  0.00  0.00    +0.000 A 
ATOM      2  N   UNL     1       2.892   6.882  18.842  0.00  0.00    +0.000 NA
ATOM      3  C   UNL     1       3.053   7.823  17.883  0.00  0.00    +0.000 A 
ATOM      4  N   UNL     1       3.878   7.745  16.835  0.00  0.00    +0.000 NA
ATOM      5  C   UNL     1       4.610   6.618  16.771  0.00  0.00    +0.000 A 
ATOM      6  N   UNL     1       5.446   6.367  15.700  0.00  0.00    +0.000 NA
ATOM      7  C   UNL     1       6.050   5.215  15.851  0.00  0.00    +0.000 A 
ATOM      8  N   UNL     1       6.928   4.663  14.976  0.00  0.00    +0.000 N 
ATOM      9  S   UNL     1       5.661   4.384  17.313  0.00  0.00    +0.000 S 
ATOM     10  C   UNL     1       4.551   5.629  17.738  0.00  0.00    +0.000 A 
ATOM     11  H   UNL     1       7.262   3.729  15.194  0.00  0.00    +0.000 HD
ENDROOT
BRANCH   8  12
ATOM     12  C   UNL     1       6.794   4.930  13.545  0.00  0.00    +0.000 C 
ATOM     13  C   UNL     1       8.150   5.366  12.990  0.00  0.00    +0.000 C 
ATOM     14  C   UNL     1       6.327   3.661  12.828  0.00  0.00    +0.000 C 
ENDBRANCH   8  12
BRANCH   1  15
ATOM     15  N   UNL     1       3.540   4.743  19.740  0.00  0.00    +0.000 N 
ATOM     16  H   UNL     1       3.426   5.044  20.701  0.00  0.00    +0.000 HD
BRANCH  15  17
ATOM     17  CA  UNL     1       3.221   3.352  19.414  0.00  0.00    +0.000 C 
BRANCH  17  19
ATOM     18  C   UNL     1       1.019   3.903  20.602  0.00  0.00    +0.000 C 
ATOM     19  C   UNL     1       1.706   3.112  19.505  0.00  0.00    +0.000 C 
ENDBRANCH  17  19
BRANCH  17  20
ATOM     20  C   UNL     1       3.897   2.433  20.469  0.00  0.00    +0.000 C 
BRANCH  20  21
ATOM     21  O   UNL     1       5.039   1.760  19.947  0.00  0.00    +0.000 OA
ATOM     22  H   UNL     1       4.743   0.855  19.740  0.00  0.00    +0.000 HD
ENDBRANCH  20  21
ENDBRANCH  17  20
ENDBRANCH  15  17
ENDBRANCH   1  15
BRANCH   3  23
ATOM     23  S   UNL     1       2.004   9.267  17.840  0.00  0.00    +0.000 S 
BRANCH  23  24
ATOM     24  C   UNL     1       0.971   9.082  19.328  0.00  0.00    +0.000 C 
BRANCH  24  25
ATOM     25  C   UNL     1      -0.030  10.222  19.431  0.00  0.00    +0.000 A 
ATOM     26  C   UNL     1      -0.023  11.115  20.515  0.00  0.00    +0.000 A 
ATOM     27  C   UNL     1      -0.941  12.178  20.582  0.00  0.00    +0.000 A 
ATOM     28  C   UNL     1      -1.870  12.368  19.562  0.00  0.00    +0.000 A 
ATOM     29  C   UNL     1      -1.879  11.492  18.480  0.00  0.00    +0.000 A 
ATOM     30  F   UNL     1      -2.769  11.678  17.499  0.00  0.00    +0.000 F 
ATOM     31  C   UNL     1      -0.975  10.432  18.413  0.00  0.00    +0.000 A 
ATOM     32  F   UNL     1      -1.012   9.603  17.368  0.00  0.00    +0.000 F 
ENDBRANCH  24  25
ENDBRANCH  23  24
ENDBRANCH   3  23
TORSDOF 9
ENDMDL
MODEL 9
REMARK VINA RESULT:      -7.4      5.572      8.263
REMARK  Name = 
REMARK  12 active torsions:
REMARK  status: ('A' for Active; 'I' for Inactive)
REMARK    1  A    between atoms: C_1  and  C_2
REMARK    2  A    between atoms: C_2  and  CA_3
REMARK    3  A    between atoms: CA_3  and  C_4
REMARK    4  A    between atoms: CA_3  and  N_6
REMARK    5  A    between atoms: C_4  and  O_5
REMARK    6  A    between atoms: N_6  and  C_7
REMARK    7  A    between atoms: C_9  and  S_10
REMARK    8  A    between atoms: S_10  and  C_11
REMARK    9  A    between atoms: C_11  and  C_12
REMARK   10  A    between atoms: N_24  and  C_25
REMARK   11  A    between atoms: C_25  and  C_26
REMARK   12  A    between atoms: C_25  and  C_27
REMARK                            x       y       z     vdW  Elec       q    Type
REMARK                         _______ _______ _______ _____ _____    ______ ____
ROOT
ATOM      1  C   UNL     1       2.779   5.944  19.638  0.00  0.00    +0.000 A 
ATOM      2  N   UNL     1       2.174   7.139  19.395  0.00  0.00    +0.000 NA
ATOM      3  C   UNL     1       2.613   7.906  18.370  0.00  0.00    +0.000 A 
ATOM      4  N   UNL     1       3.586   7.591  17.511  0.00  0.00    +0.000 NA
ATOM      5  C   UNL     1       4.168   6.397  17.726  0.00  0.00    +0.000 A 
ATOM      6  N   UNL     1       5.133   5.905  16.867  0.00  0.00    +0.000 NA
ATOM      7  C   UNL     1       5.551   4.732  17.272  0.00  0.00    +0.000 A 
ATOM      8  N   UNL     1       6.486   3.970  16.650  0.00  0.00    +0.000 N 
ATOM      9  S   UNL     1       4.819   4.170  18.730  0.00  0.00    +0.000 S 
ATOM     10  C   UNL     1       3.822   5.573  18.783  0.00  0.00    +0.000 A 
ATOM     11  H   UNL     1       6.656   3.049  17.043  0.00  0.00    +0.000 HD
ENDROOT
BRANCH   8  12
ATOM     12  C   UNL     1       6.629   4.036  15.197  0.00  0.00    +0.000 C 
ATOM     13  C   UNL     1       5.242   4.162  14.566  0.00  0.00    +0.000 C 
ATOM     14  C   UNL     1       7.479   5.251  14.820  0.00  0.00    +0.000 C 
ENDBRANCH   8  12
BRANCH   1  15
ATOM     15  N   UNL     1       2.384   5.100  20.660  0.00  0.00    +0.000 N 
ATOM     16  H   UNL     1       2.770   5.305  21.575  0.00  0.00    +0.000 HD
BRANCH  15  17
ATOM     17  CA  UNL     1       1.223   4.212  20.588  0.00  0.00    +0.000 C 
BRANCH  17  19
ATOM     18  C   UNL     1       2.852   2.454  21.492  0.00  0.00    +0.000 C 
ATOM     19  C   UNL     1       1.429   2.982  21.484  0.00  0.00    +0.000 C 
ENDBRANCH  17  19
BRANCH  17  20
ATOM     20  C   UNL     1       1.085   3.700  19.127  0.00  0.00    +0.000 C 
BRANCH  20  21
ATOM     21  O   UNL     1       0.300   2.515  19.040  0.00  0.00    +0.000 OA
ATOM     22  H   UNL     1       0.895   1.783  19.284  0.00  0.00    +0.000 HD
ENDBRANCH  20  21
ENDBRANCH  17  20
ENDBRANCH  15  17
ENDBRANCH   1  15
BRANCH   3  23
ATOM     23  S   UNL     1       1.779   9.429  17.953  0.00  0.00    +0.000 S 
BRANCH  23  24
ATOM     24  C   UNL     1       0.668   9.703  19.368  0.00  0.00    +0.000 C 
BRANCH  24  25
ATOM     25  C   UNL     1      -0.634  10.342  18.912  0.00  0.00    +0.000 A 
ATOM     26  C   UNL     1      -1.290   9.930  17.741  0.00  0.00    +0.000 A 
ATOM     27  C   UNL     1      -2.506  10.515  17.348  0.00  0.00    +0.000 A 
ATOM     28  C   UNL     1      -3.088  11.512  18.126  0.00  0.00    +0.000 A 
ATOM     29  C   UNL     1      -2.450  11.922  19.294  0.00  0.00    +0.000 A 
ATOM     30  F   UNL     1      -3.012  12.878  20.044  0.00  0.00    +0.000 F 
ATOM     31  C   UNL     1      -1.240  11.349  19.684  0.00  0.00    +0.000 A 
ATOM     32  F   UNL     1      -0.645  11.768  20.803  0.00  0.00    +0.000 F 
ENDBRANCH  24  25
ENDBRANCH  23  24
ENDBRANCH   3  23
TORSDOF 9
ENDMDL
