MODEL 1
REMARK VINA RESULT:      -7.3      0.000      0.000
REMARK  Name = 
REMARK  4 active torsions:
REMARK  status: ('A' for Active; 'I' for Inactive)
REMARK    1  A    between atoms: C_1  and  O_2
REMARK    2  A    between atoms: O_2  and  C_3
REMARK    3  A    between atoms: N_8  and  C_9
REMARK    4  A    between atoms: N_25  and  C_26
REMARK                            x       y       z     vdW  Elec       q    Type
REMARK                         _______ _______ _______ _____ _____    ______ ____
ROOT
ATOM      1  C   UNL     1      -3.708  10.754  16.261  0.00  0.00    +0.000 A 
ATOM      2  C   UNL     1      -4.495  11.546  17.075  0.00  0.00    +0.000 A 
ATOM      3  C   UNL     1      -4.082  11.894  18.376  0.00  0.00    +0.000 A 
ATOM      4  C   UNL     1      -2.823  11.477  18.880  0.00  0.00    +0.000 A 
ATOM      5  C   UNL     1      -2.419  11.842  20.215  0.00  0.00    +0.000 A 
ATOM      6  N   UNL     1      -1.173  11.437  20.634  0.00  0.00    +0.000 N 
ATOM      7  C   UNL     1      -0.557  11.764  21.933  0.00  0.00    +0.000 C 
ATOM      8  C   UNL     1      -0.367  10.639  19.851  0.00  0.00    +0.000 A 
ATOM      9  C   UNL     1       0.762  10.028  20.456  0.00  0.00    +0.000 A 
ATOM     10  C   UNL     1       1.534   9.107  19.799  0.00  0.00    +0.000 A 
ATOM     11  C   UNL     1       1.538   9.114  18.439  0.00  0.00    +0.000 A 
ATOM     12  C   UNL     1       0.377   9.594  17.815  0.00  0.00    +0.000 A 
ATOM     13  C   UNL     1      -0.666  10.318  18.519  0.00  0.00    +0.000 A 
ATOM     14  C   UNL     1      -1.961  10.721  18.028  0.00  0.00    +0.000 A 
ATOM     15  C   UNL     1      -2.438  10.366  16.730  0.00  0.00    +0.000 A 
ATOM     16  C   UNL     1      -3.389  12.615  21.094  0.00  0.00    +0.000 A 
ATOM     17  C   UNL     1      -3.194  12.984  22.464  0.00  0.00    +0.000 A 
ATOM     18  C   UNL     1      -4.006  13.868  23.179  0.00  0.00    +0.000 A 
ATOM     19  C   UNL     1      -5.151  14.335  22.598  0.00  0.00    +0.000 A 
ATOM     20 CL   UNL     1      -6.223  15.326  23.501  0.00  0.00    +0.000 Cl
ATOM     21  C   UNL     1      -5.455  13.937  21.301  0.00  0.00    +0.000 A 
ATOM     22  C   UNL     1      -4.581  13.115  20.519  0.00  0.00    +0.000 A 
ATOM     23  N   UNL     1      -4.912  12.750  19.191  0.00  0.00    +0.000 N 
ATOM     24  C   UNL     1      -6.216  13.142  18.614  0.00  0.00    +0.000 C 
ENDROOT
BRANCH   1  26
ATOM     25  C   UNL     1      -2.997  10.038  14.097  0.00  0.00    +0.000 C 
ATOM     26  O   UNL     1      -4.064  10.369  15.003  0.00  0.00    +0.000 OA
ENDBRANCH   1  26
TORSDOF 1
ENDMDL
MODEL 2
REMARK VINA RESULT:      -7.1      3.425      7.225
REMARK  Name = 
REMARK  4 active torsions:
REMARK  status: ('A' for Active; 'I' for Inactive)
REMARK    1  A    between atoms: C_1  and  O_2
REMARK    2  A    between atoms: O_2  and  C_3
REMARK    3  A    between atoms: N_8  and  C_9
REMARK    4  A    between atoms: N_25  and  C_26
REMARK                            x       y       z     vdW  Elec       q    Type
REMARK                         _______ _______ _______ _____ _____    ______ ____
ROOT
ATOM      1  C   UNL     1      -1.520  13.790  22.605  0.00  0.00    +0.000 A 
ATOM      2  C   UNL     1      -1.207  13.324  21.342  0.00  0.00    +0.000 A 
ATOM      3  C   UNL     1      -2.198  12.803  20.489  0.00  0.00    +0.000 A 
ATOM      4  C   UNL     1      -3.562  12.777  20.881  0.00  0.00    +0.000 A 
ATOM      5  C   UNL     1      -4.562  12.238  19.994  0.00  0.00    +0.000 A 
ATOM      6  N   UNL     1      -5.870  12.272  20.417  0.00  0.00    +0.000 N 
ATOM      7  C   UNL     1      -7.037  11.830  19.632  0.00  0.00    +0.000 C 
ATOM      8  C   UNL     1      -6.216  12.720  21.673  0.00  0.00    +0.000 A 
ATOM      9  C   UNL     1      -7.529  12.457  22.142  0.00  0.00    +0.000 A 
ATOM     10  C   UNL     1      -7.917  12.734  23.425  0.00  0.00    +0.000 A 
ATOM     11  C   UNL     1      -7.233  13.683  24.121  0.00  0.00    +0.000 A 
ATOM     12  C   UNL     1      -5.891  13.871  23.762  0.00  0.00    +0.000 A 
ATOM     13  C   UNL     1      -5.306  13.329  22.549  0.00  0.00    +0.000 A 
ATOM     14  C   UNL     1      -3.918  13.322  22.152  0.00  0.00    +0.000 A 
ATOM     15  C   UNL     1      -2.873  13.809  22.995  0.00  0.00    +0.000 A 
ATOM     16  C   UNL     1      -4.125  11.635  18.668  0.00  0.00    +0.000 A 
ATOM     17  C   UNL     1      -4.963  10.981  17.709  0.00  0.00    +0.000 A 
ATOM     18  C   UNL     1      -4.572  10.626  16.416  0.00  0.00    +0.000 A 
ATOM     19  C   UNL     1      -3.265  10.784  16.049  0.00  0.00    +0.000 A 
ATOM     20 CL   UNL     1      -2.740  10.243  14.507  0.00  0.00    +0.000 Cl
ATOM     21  C   UNL     1      -2.372  11.323  16.968  0.00  0.00    +0.000 A 
ATOM     22  C   UNL     1      -2.779  11.787  18.260  0.00  0.00    +0.000 A 
ATOM     23  N   UNL     1      -1.845  12.354  19.162  0.00  0.00    +0.000 N 
ATOM     24  C   UNL     1      -0.408  12.397  18.817  0.00  0.00    +0.000 C 
ENDROOT
BRANCH   1  26
ATOM     25  C   UNL     1      -1.039  15.339  24.357  0.00  0.00    +0.000 C 
ATOM     26  O   UNL     1      -0.601  14.286  23.481  0.00  0.00    +0.000 OA
ENDBRANCH   1  26
TORSDOF 1
ENDMDL
MODEL 3
REMARK VINA RESULT:      -7.1      2.155      4.571
REMARK  Name = 
REMARK  4 active torsions:
REMARK  status: ('A' for Active; 'I' for Inactive)
REMARK    1  A    between atoms: C_1  and  O_2
REMARK    2  A    between atoms: O_2  and  C_3
REMARK    3  A    between atoms: N_8  and  C_9
REMARK    4  A    between atoms: N_25  and  C_26
REMARK                            x       y       z     vdW  Elec       q    Type
REMARK                         _______ _______ _______ _____ _____    ______ ____
ROOT
ATOM      1  C   UNL     1      -0.284  11.351  21.060  0.00  0.00    +0.000 A 
ATOM      2  C   UNL     1      -1.114  12.114  21.860  0.00  0.00    +0.000 A 
ATOM      3  C   UNL     1      -2.382  12.528  21.411  0.00  0.00    +0.000 A 
ATOM      4  C   UNL     1      -2.870  12.142  20.136  0.00  0.00    +0.000 A 
ATOM      5  C   UNL     1      -4.170  12.579  19.693  0.00  0.00    +0.000 A 
ATOM      6  N   UNL     1      -4.601  12.143  18.462  0.00  0.00    +0.000 N 
ATOM      7  C   UNL     1      -5.919  12.427  17.865  0.00  0.00    +0.000 C 
ATOM      8  C   UNL     1      -3.796  11.390  17.635  0.00  0.00    +0.000 A 
ATOM      9  C   UNL     1      -4.190  11.227  16.282  0.00  0.00    +0.000 A 
ATOM     10  C   UNL     1      -3.386  10.622  15.354  0.00  0.00    +0.000 A 
ATOM     11  C   UNL     1      -2.431   9.755  15.787  0.00  0.00    +0.000 A 
ATOM     12  C   UNL     1      -1.930   9.975  17.079  0.00  0.00    +0.000 A 
ATOM     13  C   UNL     1      -2.558  10.867  18.037  0.00  0.00    +0.000 A 
ATOM     14  C   UNL     1      -2.060  11.292  19.323  0.00  0.00    +0.000 A 
ATOM     15  C   UNL     1      -0.768  10.924  19.808  0.00  0.00    +0.000 A 
ATOM     16  C   UNL     1      -4.977  13.514  20.581  0.00  0.00    +0.000 A 
ATOM     17  C   UNL     1      -6.238  14.115  20.267  0.00  0.00    +0.000 A 
ATOM     18  C   UNL     1      -7.048  14.797  21.178  0.00  0.00    +0.000 A 
ATOM     19  C   UNL     1      -6.574  15.039  22.437  0.00  0.00    +0.000 A 
ATOM     20 CL   UNL     1      -7.503  15.979  23.532  0.00  0.00    +0.000 Cl
ATOM     21  C   UNL     1      -5.311  14.570  22.779  0.00  0.00    +0.000 A 
ATOM     22  C   UNL     1      -4.513  13.780  21.890  0.00  0.00    +0.000 A 
ATOM     23  N   UNL     1      -3.240  13.298  22.282  0.00  0.00    +0.000 N 
ATOM     24  C   UNL     1      -2.671  13.677  23.594  0.00  0.00    +0.000 C 
ENDROOT
BRANCH   1  26
ATOM     25  C   UNL     1       1.082   9.585  21.907  0.00  0.00    +0.000 C 
ATOM     26  O   UNL     1       0.960  10.938  21.433  0.00  0.00    +0.000 OA
ENDBRANCH   1  26
TORSDOF 1
ENDMDL
MODEL 4
REMARK VINA RESULT:      -7.0      2.782      5.871
REMARK  Name = 
REMARK  4 active torsions:
REMARK  status: ('A' for Active; 'I' for Inactive)
REMARK    1  A    between atoms: C_1  and  O_2
REMARK    2  A    between atoms: O_2  and  C_3
REMARK    3  A    between atoms: N_8  and  C_9
REMARK    4  A    between atoms: N_25  and  C_26
REMARK                            x       y       z     vdW  Elec       q    Type
REMARK                         _______ _______ _______ _____ _____    ______ ____
ROOT
ATOM      1  C   UNL     1      -5.851  12.574  17.974  0.00  0.00    +0.000 A 
ATOM      2  C   UNL     1      -4.785  11.852  17.470  0.00  0.00    +0.000 A 
ATOM      3  C   UNL     1      -3.620  11.641  18.232  0.00  0.00    +0.000 A 
ATOM      4  C   UNL     1      -3.516  12.127  19.561  0.00  0.00    +0.000 A 
ATOM      5  C   UNL     1      -2.314  11.903  20.324  0.00  0.00    +0.000 A 
ATOM      6  N   UNL     1      -2.287  12.368  21.618  0.00  0.00    +0.000 N 
ATOM      7  C   UNL     1      -1.180  12.182  22.573  0.00  0.00    +0.000 C 
ATOM      8  C   UNL     1      -3.327  13.100  22.148  0.00  0.00    +0.000 A 
ATOM      9  C   UNL     1      -3.110  13.787  23.371  0.00  0.00    +0.000 A 
ATOM     10  C   UNL     1      -4.031  14.652  23.897  0.00  0.00    +0.000 A 
ATOM     11  C   UNL     1      -5.335  14.512  23.536  0.00  0.00    +0.000 A 
ATOM     12  C   UNL     1      -5.575  13.953  22.272  0.00  0.00    +0.000 A 
ATOM     13  C   UNL     1      -4.552  13.283  21.489  0.00  0.00    +0.000 A 
ATOM     14  C   UNL     1      -4.634  12.811  20.128  0.00  0.00    +0.000 A 
ATOM     15  C   UNL     1      -5.781  13.029  19.305  0.00  0.00    +0.000 A 
ATOM     16  C   UNL     1      -1.138  11.202  19.660  0.00  0.00    +0.000 A 
ATOM     17  C   UNL     1       0.154  10.974  20.232  0.00  0.00    +0.000 A 
ATOM     18  C   UNL     1       1.139  10.150  19.681  0.00  0.00    +0.000 A 
ATOM     19  C   UNL     1       0.935   9.608  18.443  0.00  0.00    +0.000 A 
ATOM     20 CL   UNL     1       2.181   8.692  17.697  0.00  0.00    +0.000 Cl
ATOM     21  C   UNL     1      -0.260   9.871  17.785  0.00  0.00    +0.000 A 
ATOM     22  C   UNL     1      -1.321  10.628  18.381  0.00  0.00    +0.000 A 
ATOM     23  N   UNL     1      -2.536  10.855  17.690  0.00  0.00    +0.000 N 
ATOM     24  C   UNL     1      -2.700  10.385  16.297  0.00  0.00    +0.000 C 
ENDROOT
BRANCH   1  26
ATOM     25  C   UNL     1      -7.917  13.766  17.857  0.00  0.00    +0.000 C 
ATOM     26  O   UNL     1      -6.994  12.827  17.277  0.00  0.00    +0.000 OA
ENDBRANCH   1  26
TORSDOF 1
ENDMDL
MODEL 5
REMARK VINA RESULT:      -7.0      2.314      4.629
REMARK  Name = 
REMARK  4 active torsions:
REMARK  status: ('A' for Active; 'I' for Inactive)
REMARK    1  A    between atoms: C_1  and  O_2
REMARK    2  A    between atoms: O_2  and  C_3
REMARK    3  A    between atoms: N_8  and  C_9
REMARK    4  A    between atoms: N_25  and  C_26
REMARK                            x       y       z     vdW  Elec       q    Type
REMARK                         _______ _______ _______ _____ _____    ______ ____
ROOT
ATOM      1  C   UNL     1      -0.149  12.175  20.514  0.00  0.00    +0.000 A 
ATOM      2  C   UNL     1      -1.026  12.597  21.496  0.00  0.00    +0.000 A 
ATOM      3  C   UNL     1      -2.417  12.598  21.281  0.00  0.00    +0.000 A 
ATOM      4  C   UNL     1      -2.971  12.126  20.063  0.00  0.00    +0.000 A 
ATOM      5  C   UNL     1      -4.398  12.138  19.861  0.00  0.00    +0.000 A 
ATOM      6  N   UNL     1      -4.875  11.635  18.673  0.00  0.00    +0.000 N 
ATOM      7  C   UNL     1      -6.298  11.503  18.308  0.00  0.00    +0.000 C 
ATOM      8  C   UNL     1      -4.029  11.216  17.670  0.00  0.00    +0.000 A 
ATOM      9  C   UNL     1      -4.578  10.988  16.381  0.00  0.00    +0.000 A 
ATOM     10  C   UNL     1      -3.796  10.712  15.292  0.00  0.00    +0.000 A 
ATOM     11  C   UNL     1      -2.559  10.183  15.496  0.00  0.00    +0.000 A 
ATOM     12  C   UNL     1      -1.939  10.501  16.713  0.00  0.00    +0.000 A 
ATOM     13  C   UNL     1      -2.641  11.105  17.832  0.00  0.00    +0.000 A 
ATOM     14  C   UNL     1      -2.088  11.616  19.063  0.00  0.00    +0.000 A 
ATOM     15  C   UNL     1      -0.683  11.665  19.314  0.00  0.00    +0.000 A 
ATOM     16  C   UNL     1      -5.291  12.727  20.941  0.00  0.00    +0.000 A 
ATOM     17  C   UNL     1      -6.711  12.901  20.877  0.00  0.00    +0.000 A 
ATOM     18  C   UNL     1      -7.525  13.249  21.957  0.00  0.00    +0.000 A 
ATOM     19  C   UNL     1      -6.942  13.581  23.148  0.00  0.00    +0.000 A 
ATOM     20 CL   UNL     1      -7.917  14.127  24.452  0.00  0.00    +0.000 Cl
ATOM     21  C   UNL     1      -5.557  13.531  23.253  0.00  0.00    +0.000 A 
ATOM     22  C   UNL     1      -4.717  13.076  22.186  0.00  0.00    +0.000 A 
ATOM     23  N   UNL     1      -3.310  13.015  22.338  0.00  0.00    +0.000 N 
ATOM     24  C   UNL     1      -2.672  13.505  23.579  0.00  0.00    +0.000 C 
ENDROOT
BRANCH   1  26
ATOM     25  C   UNL     1       1.848  13.447  20.817  0.00  0.00    +0.000 C 
ATOM     26  O   UNL     1       1.206  12.170  20.657  0.00  0.00    +0.000 OA
ENDBRANCH   1  26
TORSDOF 1
ENDMDL
MODEL 6
REMARK VINA RESULT:      -6.9      0.959      1.120
REMARK  Name = 
REMARK  4 active torsions:
REMARK  status: ('A' for Active; 'I' for Inactive)
REMARK    1  A    between atoms: C_1  and  O_2
REMARK    2  A    between atoms: O_2  and  C_3
REMARK    3  A    between atoms: N_8  and  C_9
REMARK    4  A    between atoms: N_25  and  C_26
REMARK                            x       y       z     vdW  Elec       q    Type
REMARK                         _______ _______ _______ _____ _____    ______ ____
ROOT
ATOM      1  C   UNL     1      -4.072  10.992  16.448  0.00  0.00    +0.000 A 
ATOM      2  C   UNL     1      -5.025  11.720  17.136  0.00  0.00    +0.000 A 
ATOM      3  C   UNL     1      -4.803  12.149  18.459  0.00  0.00    +0.000 A 
ATOM      4  C   UNL     1      -3.574  11.885  19.117  0.00  0.00    +0.000 A 
ATOM      5  C   UNL     1      -3.366  12.330  20.472  0.00  0.00    +0.000 A 
ATOM      6  N   UNL     1      -2.142  12.074  21.044  0.00  0.00    +0.000 N 
ATOM      7  C   UNL     1      -1.717  12.503  22.389  0.00  0.00    +0.000 C 
ATOM      8  C   UNL     1      -1.174  11.343  20.391  0.00  0.00    +0.000 A 
ATOM      9  C   UNL     1      -0.065  10.875  21.143  0.00  0.00    +0.000 A 
ATOM     10  C   UNL     1       0.868  10.023  20.615  0.00  0.00    +0.000 A 
ATOM     11  C   UNL     1       1.028   9.988  19.265  0.00  0.00    +0.000 A 
ATOM     12  C   UNL     1      -0.096  10.323  18.496  0.00  0.00    +0.000 A 
ATOM     13  C   UNL     1      -1.282  10.952  19.048  0.00  0.00    +0.000 A 
ATOM     14  C   UNL     1      -2.547  11.199  18.399  0.00  0.00    +0.000 A 
ATOM     15  C   UNL     1      -2.831  10.756  17.072  0.00  0.00    +0.000 A 
ATOM     16  C   UNL     1      -4.505  13.022  21.205  0.00  0.00    +0.000 A 
ATOM     17  C   UNL     1      -4.509  13.450  22.571  0.00  0.00    +0.000 A 
ATOM     18  C   UNL     1      -5.484  14.264  23.153  0.00  0.00    +0.000 A 
ATOM     19  C   UNL     1      -6.597  14.588  22.429  0.00  0.00    +0.000 A 
ATOM     20 CL   UNL     1      -7.861  15.485  23.164  0.00  0.00    +0.000 Cl
ATOM     21  C   UNL     1      -6.706  14.121  21.124  0.00  0.00    +0.000 A 
ATOM     22  C   UNL     1      -5.668  13.374  20.480  0.00  0.00    +0.000 A 
ATOM     23  N   UNL     1      -5.804  12.936  19.140  0.00  0.00    +0.000 N 
ATOM     24  C   UNL     1      -7.066  13.169  18.405  0.00  0.00    +0.000 C 
ENDROOT
BRANCH   1  26
ATOM     25  C   UNL     1      -3.082   9.980  14.526  0.00  0.00    +0.000 C 
ATOM     26  O   UNL     1      -4.240  10.534  15.176  0.00  0.00    +0.000 OA
ENDBRANCH   1  26
TORSDOF 1
ENDMDL
MODEL 7
REMARK VINA RESULT:      -6.9      1.577      1.666
REMARK  Name = 
REMARK  4 active torsions:
REMARK  status: ('A' for Active; 'I' for Inactive)
REMARK    1  A    between atoms: C_1  and  O_2
REMARK    2  A    between atoms: O_2  and  C_3
REMARK    3  A    between atoms: N_8  and  C_9
REMARK    4  A    between atoms: N_25  and  C_26
REMARK                            x       y       z     vdW  Elec       q    Type
REMARK                         _______ _______ _______ _____ _____    ______ ____
ROOT
ATOM      1  C   UNL     1      -3.920  11.168  16.797  0.00  0.00    +0.000 A 
ATOM      2  C   UNL     1      -4.945  11.473  17.674  0.00  0.00    +0.000 A 
ATOM      3  C   UNL     1      -4.678  11.915  18.984  0.00  0.00    +0.000 A 
ATOM      4  C   UNL     1      -3.346  12.104  19.436  0.00  0.00    +0.000 A 
ATOM      5  C   UNL     1      -3.094  12.555  20.781  0.00  0.00    +0.000 A 
ATOM      6  N   UNL     1      -1.783  12.753  21.149  0.00  0.00    +0.000 N 
ATOM      7  C   UNL     1      -1.327  13.269  22.453  0.00  0.00    +0.000 C 
ATOM      8  C   UNL     1      -0.738  12.450  20.304  0.00  0.00    +0.000 A 
ATOM      9  C   UNL     1       0.572  12.402  20.847  0.00  0.00    +0.000 A 
ATOM     10  C   UNL     1       1.649  11.970  20.121  0.00  0.00    +0.000 A 
ATOM     11  C   UNL     1       1.587  12.036  18.763  0.00  0.00    +0.000 A 
ATOM     12  C   UNL     1       0.308  11.954  18.193  0.00  0.00    +0.000 A 
ATOM     13  C   UNL     1      -0.917  12.085  18.961  0.00  0.00    +0.000 A 
ATOM     14  C   UNL     1      -2.274  11.867  18.522  0.00  0.00    +0.000 A 
ATOM     15  C   UNL     1      -2.594  11.389  17.215  0.00  0.00    +0.000 A 
ATOM     16  C   UNL     1      -4.269  12.756  21.725  0.00  0.00    +0.000 A 
ATOM     17  C   UNL     1      -4.202  13.113  23.110  0.00  0.00    +0.000 A 
ATOM     18  C   UNL     1      -5.295  13.492  23.893  0.00  0.00    +0.000 A 
ATOM     19  C   UNL     1      -6.553  13.404  23.365  0.00  0.00    +0.000 A 
ATOM     20 CL   UNL     1      -7.917  13.749  24.348  0.00  0.00    +0.000 Cl
ATOM     21  C   UNL     1      -6.699  12.967  22.054  0.00  0.00    +0.000 A 
ATOM     22  C   UNL     1      -5.582  12.675  21.206  0.00  0.00    +0.000 A 
ATOM     23  N   UNL     1      -5.769  12.256  19.866  0.00  0.00    +0.000 N 
ATOM     24  C   UNL     1      -7.133  12.029  19.340  0.00  0.00    +0.000 C 
ENDROOT
BRANCH   1  26
ATOM     25  C   UNL     1      -2.960  10.240  14.817  0.00  0.00    +0.000 C 
ATOM     26  O   UNL     1      -4.118  10.718  15.526  0.00  0.00    +0.000 OA
ENDBRANCH   1  26
TORSDOF 1
ENDMDL
MODEL 8
REMARK VINA RESULT:      -6.9      1.854      4.471
REMARK  Name = 
REMARK  4 active torsions:
REMARK  status: ('A' for Active; 'I' for Inactive)
REMARK    1  A    between atoms: C_1  and  O_2
REMARK    2  A    between atoms: O_2  and  C_3
REMARK    3  A    between atoms: N_8  and  C_9
REMARK    4  A    between atoms: N_25  and  C_26
REMARK                            x       y       z     vdW  Elec       q    Type
REMARK                         _______ _______ _______ _____ _____    ______ ____
ROOT
ATOM      1  C   UNL     1       0.250  10.456  20.208  0.00  0.00    +0.000 A 
ATOM      2  C   UNL     1      -0.328  11.258  21.174  0.00  0.00    +0.000 A 
ATOM      3  C   UNL     1      -1.571  11.883  20.956  0.00  0.00    +0.000 A 
ATOM      4  C   UNL     1      -2.293  11.678  19.752  0.00  0.00    +0.000 A 
ATOM      5  C   UNL     1      -3.563  12.329  19.547  0.00  0.00    +0.000 A 
ATOM      6  N   UNL     1      -4.231  12.062  18.375  0.00  0.00    +0.000 N 
ATOM      7  C   UNL     1      -5.563  12.578  18.011  0.00  0.00    +0.000 C 
ATOM      8  C   UNL     1      -3.679  11.276  17.387  0.00  0.00    +0.000 A 
ATOM      9  C   UNL     1      -4.288  11.283  16.105  0.00  0.00    +0.000 A 
ATOM     10  C   UNL     1      -3.729  10.651  15.027  0.00  0.00    +0.000 A 
ATOM     11  C   UNL     1      -2.864   9.624  15.251  0.00  0.00    +0.000 A 
ATOM     12  C   UNL     1      -2.152   9.663  16.459  0.00  0.00    +0.000 A 
ATOM     13  C   UNL     1      -2.490  10.552  17.556  0.00  0.00    +0.000 A 
ATOM     14  C   UNL     1      -1.750  10.793  18.771  0.00  0.00    +0.000 A 
ATOM     15  C   UNL     1      -0.472  10.208  19.024  0.00  0.00    +0.000 A 
ATOM     16  C   UNL     1      -4.079  13.291  20.606  0.00  0.00    +0.000 A 
ATOM     17  C   UNL     1      -5.266  14.087  20.532  0.00  0.00    +0.000 A 
ATOM     18  C   UNL     1      -5.821  14.798  21.599  0.00  0.00    +0.000 A 
ATOM     19  C   UNL     1      -5.136  14.865  22.780  0.00  0.00    +0.000 A 
ATOM     20 CL   UNL     1      -5.741  15.831  24.063  0.00  0.00    +0.000 Cl
ATOM     21  C   UNL     1      -3.923  14.195  22.890  0.00  0.00    +0.000 A 
ATOM     22  C   UNL     1      -3.393  13.378  21.840  0.00  0.00    +0.000 A 
ATOM     23  N   UNL     1      -2.164  12.690  21.997  0.00  0.00    +0.000 N 
ATOM     24  C   UNL     1      -1.358  12.875  23.223  0.00  0.00    +0.000 C 
ENDROOT
BRANCH   1  26
ATOM     25  C   UNL     1       1.445   8.488  20.841  0.00  0.00    +0.000 C 
ATOM     26  O   UNL     1       1.458   9.842  20.354  0.00  0.00    +0.000 OA
ENDBRANCH   1  26
TORSDOF 1
ENDMDL
MODEL 9
REMARK VINA RESULT:      -6.9      1.139      1.455
REMARK  Name = 
REMARK  4 active torsions:
REMARK  status: ('A' for Active; 'I' for Inactive)
REMARK    1  A    between atoms: C_1  and  O_2
REMARK    2  A    between atoms: O_2  and  C_3
REMARK    3  A    between atoms: N_8  and  C_9
REMARK    4  A    between atoms: N_25  and  C_26
REMARK                            x       y       z     vdW  Elec       q    Type
REMARK                         _______ _______ _______ _____ _____    ______ ____
ROOT
ATOM      1  C   UNL     1      -3.131  10.177  16.253  0.00  0.00    +0.000 A 
ATOM      2  C   UNL     1      -4.164  11.026  16.603  0.00  0.00    +0.000 A 
ATOM      3  C   UNL     1      -4.173  11.695  17.842  0.00  0.00    +0.000 A 
ATOM      4  C   UNL     1      -3.098  11.553  18.758  0.00  0.00    +0.000 A 
ATOM      5  C   UNL     1      -3.127  12.244  20.023  0.00  0.00    +0.000 A 
ATOM      6  N   UNL     1      -2.040  12.094  20.853  0.00  0.00    +0.000 N 
ATOM      7  C   UNL     1      -1.854  12.766  22.152  0.00  0.00    +0.000 C 
ATOM      8  C   UNL     1      -0.999  11.248  20.539  0.00  0.00    +0.000 A 
ATOM      9  C   UNL     1      -0.067  10.924  21.560  0.00  0.00    +0.000 A 
ATOM     10  C   UNL     1       0.912   9.983  21.384  0.00  0.00    +0.000 A 
ATOM     11  C   UNL     1       1.317   9.695  20.118  0.00  0.00    +0.000 A 
ATOM     12  C   UNL     1       0.369   9.885  19.102  0.00  0.00    +0.000 A 
ATOM     13  C   UNL     1      -0.873  10.612  19.296  0.00  0.00    +0.000 A 
ATOM     14  C   UNL     1      -1.985  10.740  18.385  0.00  0.00    +0.000 A 
ATOM     15  C   UNL     1      -2.037  10.057  17.132  0.00  0.00    +0.000 A 
ATOM     16  C   UNL     1      -4.353  13.067  20.387  0.00  0.00    +0.000 A 
ATOM     17  C   UNL     1      -4.591  13.743  21.626  0.00  0.00    +0.000 A 
ATOM     18  C   UNL     1      -5.623  14.657  21.854  0.00  0.00    +0.000 A 
ATOM     19  C   UNL     1      -6.569  14.845  20.886  0.00  0.00    +0.000 A 
ATOM     20 CL   UNL     1      -7.911  15.871  21.192  0.00  0.00    +0.000 Cl
ATOM     21  C   UNL     1      -6.455  14.142  19.692  0.00  0.00    +0.000 A 
ATOM     22  C   UNL     1      -5.347  13.282  19.404  0.00  0.00    +0.000 A 
ATOM     23  N   UNL     1      -5.251  12.600  18.166  0.00  0.00    +0.000 N 
ATOM     24  C   UNL     1      -6.345  12.698  17.175  0.00  0.00    +0.000 C 
ENDROOT
BRANCH   1  26
ATOM     25  C   UNL     1      -3.732  10.087  13.944  0.00  0.00    +0.000 C 
ATOM     26  O   UNL     1      -3.079   9.489  15.078  0.00  0.00    +0.000 OA
ENDBRANCH   1  26
TORSDOF 1
ENDMDL
