MODEL 1
REMARK VINA RESULT:      -7.5      0.000      0.000
REMARK  Name = 
REMARK  7 active torsions:
REMARK  status: ('A' for Active; 'I' for Inactive)
REMARK    1  A    between atoms: C_1  and  C_2
REMARK    2  A    between atoms: C_2  and  C_3
REMARK    3  A    between atoms: C_2  and  C_4
REMARK    4  A    between atoms: C_4  and  C_5
REMARK    5  A    between atoms: N_7  and  C_8
REMARK    6  A    between atoms: C_10  and  C_11
REMARK    7  A    between atoms: N_19  and  C_20
REMARK                            x       y       z     vdW  Elec       q    Type
REMARK                         _______ _______ _______ _____ _____    ______ ____
ROOT
ATOM      1  C   UNL     1       3.635   6.643  17.758  0.00  0.00    +0.000 A 
ATOM      2  C   UNL     1       3.235   7.876  18.201  0.00  0.00    +0.000 A 
ATOM      3  C   UNL     1       2.166   7.625  19.100  0.00  0.00    +0.000 A 
ATOM      4  N   UNL     1       1.908   6.307  19.185  0.00  0.00    +0.000 NA
ATOM      5  N   UNL     1       2.882   5.711  18.452  0.00  0.00    +0.000 N 
ENDROOT
BRANCH   3   6
ATOM      6  C   UNL     1       1.418   8.619  19.870  0.00  0.00    +0.000 A 
ATOM      7  C   UNL     1       1.335   8.523  21.268  0.00  0.00    +0.000 A 
ATOM      8  C   UNL     1       0.683   9.514  22.011  0.00  0.00    +0.000 A 
ATOM      9  C   UNL     1       0.091  10.601  21.369  0.00  0.00    +0.000 A 
ATOM     10  C   UNL     1       0.149  10.700  19.981  0.00  0.00    +0.000 A 
ATOM     11  C   UNL     1       0.807   9.713  19.245  0.00  0.00    +0.000 A 
ATOM     12  F   UNL     1       0.842   9.847  17.910  0.00  0.00    +0.000 F 
ENDBRANCH   3   6
BRANCH   5  13
ATOM     13  C   UNL     1       3.105   4.309  18.498  0.00  0.00    +0.000 A 
ATOM     14  C   UNL     1       3.966   3.770  19.459  0.00  0.00    +0.000 A 
ATOM     15  C   UNL     1       4.162   2.389  19.515  0.00  0.00    +0.000 A 
ATOM     16  C   UNL     1       3.529   1.545  18.598  0.00  0.00    +0.000 A 
ATOM     17  C   UNL     1       2.704   2.080  17.614  0.00  0.00    +0.000 A 
ATOM     18  C   UNL     1       2.491   3.459  17.562  0.00  0.00    +0.000 A 
ENDBRANCH   5  13
BRANCH   1  21
ATOM     19  C   UNL     1       5.939   6.117  17.109  0.00  0.00    +0.000 C 
ATOM     20  O   UNL     1       6.292   6.084  18.276  0.00  0.00    +0.000 OA
ATOM     21  N   UNL     1       4.576   6.389  16.767  0.00  0.00    +0.000 N 
ATOM     22  H   UNL     1       4.240   6.212  15.827  0.00  0.00    +0.000 HD
BRANCH  19  23
ATOM     23  C   UNL     1       6.822   5.779  15.939  0.00  0.00    +0.000 C 
BRANCH  23  25
ATOM     24  C   UNL     1       6.944   4.652  13.684  0.00  0.00    +0.000 C 
ATOM     25  C   UNL     1       6.109   4.854  14.950  0.00  0.00    +0.000 C 
ATOM     26  C   UNL     1       5.819   3.508  15.611  0.00  0.00    +0.000 C 
ENDBRANCH  23  25
ENDBRANCH  19  23
ENDBRANCH   1  21
TORSDOF 5
ENDMDL
MODEL 2
REMARK VINA RESULT:      -7.4      0.933      1.654
REMARK  Name = 
REMARK  7 active torsions:
REMARK  status: ('A' for Active; 'I' for Inactive)
REMARK    1  A    between atoms: C_1  and  C_2
REMARK    2  A    between atoms: C_2  and  C_3
REMARK    3  A    between atoms: C_2  and  C_4
REMARK    4  A    between atoms: C_4  and  C_5
REMARK    5  A    between atoms: N_7  and  C_8
REMARK    6  A    between atoms: C_10  and  C_11
REMARK    7  A    between atoms: N_19  and  C_20
REMARK                            x       y       z     vdW  Elec       q    Type
REMARK                         _______ _______ _______ _____ _____    ______ ____
ROOT
ATOM      1  C   UNL     1       3.746   6.709  17.509  0.00  0.00    +0.000 A 
ATOM      2  C   UNL     1       3.341   7.975  17.841  0.00  0.00    +0.000 A 
ATOM      3  C   UNL     1       2.198   7.801  18.665  0.00  0.00    +0.000 A 
ATOM      4  N   UNL     1       1.904   6.496  18.811  0.00  0.00    +0.000 NA
ATOM      5  N   UNL     1       2.919   5.837  18.196  0.00  0.00    +0.000 N 
ENDROOT
BRANCH   3   6
ATOM      6  C   UNL     1       1.414   8.855  19.309  0.00  0.00    +0.000 A 
ATOM      7  C   UNL     1       0.945   9.948  18.565  0.00  0.00    +0.000 A 
ATOM      8  C   UNL     1       0.132  10.919  19.163  0.00  0.00    +0.000 A 
ATOM      9  C   UNL     1      -0.207  10.819  20.512  0.00  0.00    +0.000 A 
ATOM     10  C   UNL     1       0.267   9.750  21.268  0.00  0.00    +0.000 A 
ATOM     11  C   UNL     1       1.071   8.781  20.664  0.00  0.00    +0.000 A 
ATOM     12  F   UNL     1       1.505   7.765  21.427  0.00  0.00    +0.000 F 
ENDBRANCH   3   6
BRANCH   5  13
ATOM     13  C   UNL     1       3.106   4.437  18.347  0.00  0.00    +0.000 A 
ATOM     14  C   UNL     1       2.445   3.548  17.495  0.00  0.00    +0.000 A 
ATOM     15  C   UNL     1       2.652   2.174  17.632  0.00  0.00    +0.000 A 
ATOM     16  C   UNL     1       3.491   1.681  18.635  0.00  0.00    +0.000 A 
ATOM     17  C   UNL     1       4.119   2.558  19.512  0.00  0.00    +0.000 A 
ATOM     18  C   UNL     1       3.929   3.935  19.370  0.00  0.00    +0.000 A 
ENDBRANCH   5  13
BRANCH   1  21
ATOM     19  C   UNL     1       6.079   6.092  17.082  0.00  0.00    +0.000 C 
ATOM     20  O   UNL     1       6.336   6.119  18.275  0.00  0.00    +0.000 OA
ATOM     21  N   UNL     1       4.757   6.376  16.615  0.00  0.00    +0.000 N 
ATOM     22  H   UNL     1       4.493   6.153  15.661  0.00  0.00    +0.000 HD
BRANCH  19  23
ATOM     23  C   UNL     1       7.044   5.666  16.010  0.00  0.00    +0.000 C 
BRANCH  23  25
ATOM     24  C   UNL     1       7.219   4.805  13.644  0.00  0.00    +0.000 C 
ATOM     25  C   UNL     1       6.331   4.913  14.885  0.00  0.00    +0.000 C 
ATOM     26  C   UNL     1       5.926   3.520  15.365  0.00  0.00    +0.000 C 
ENDBRANCH  23  25
ENDBRANCH  19  23
ENDBRANCH   1  21
TORSDOF 5
ENDMDL
MODEL 3
REMARK VINA RESULT:      -7.4      2.467      6.985
REMARK  Name = 
REMARK  7 active torsions:
REMARK  status: ('A' for Active; 'I' for Inactive)
REMARK    1  A    between atoms: C_1  and  C_2
REMARK    2  A    between atoms: C_2  and  C_3
REMARK    3  A    between atoms: C_2  and  C_4
REMARK    4  A    between atoms: C_4  and  C_5
REMARK    5  A    between atoms: N_7  and  C_8
REMARK    6  A    between atoms: C_10  and  C_11
REMARK    7  A    between atoms: N_19  and  C_20
REMARK                            x       y       z     vdW  Elec       q    Type
REMARK                         _______ _______ _______ _____ _____    ______ ____
ROOT
ATOM      1  C   UNL     1       4.169   5.822  17.435  0.00  0.00    +0.000 A 
ATOM      2  C   UNL     1       4.842   6.037  16.261  0.00  0.00    +0.000 A 
ATOM      3  C   UNL     1       5.115   4.744  15.742  0.00  0.00    +0.000 A 
ATOM      4  N   UNL     1       4.654   3.787  16.567  0.00  0.00    +0.000 NA
ATOM      5  N   UNL     1       3.981   4.455  17.538  0.00  0.00    +0.000 N 
ENDROOT
BRANCH   3   6
ATOM      6  C   UNL     1       5.789   4.432  14.481  0.00  0.00    +0.000 A 
ATOM      7  C   UNL     1       5.147   3.656  13.504  0.00  0.00    +0.000 A 
ATOM      8  C   UNL     1       5.760   3.418  12.268  0.00  0.00    +0.000 A 
ATOM      9  C   UNL     1       7.026   3.938  11.999  0.00  0.00    +0.000 A 
ATOM     10  C   UNL     1       7.684   4.694  12.967  0.00  0.00    +0.000 A 
ATOM     11  C   UNL     1       7.064   4.934  14.194  0.00  0.00    +0.000 A 
ATOM     12  F   UNL     1       7.730   5.670  15.098  0.00  0.00    +0.000 F 
ENDBRANCH   3   6
BRANCH   5  13
ATOM     13  C   UNL     1       3.135   3.785  18.462  0.00  0.00    +0.000 A 
ATOM     14  C   UNL     1       1.800   3.533  18.133  0.00  0.00    +0.000 A 
ATOM     15  C   UNL     1       0.981   2.853  19.036  0.00  0.00    +0.000 A 
ATOM     16  C   UNL     1       1.478   2.448  20.278  0.00  0.00    +0.000 A 
ATOM     17  C   UNL     1       2.794   2.732  20.627  0.00  0.00    +0.000 A 
ATOM     18  C   UNL     1       3.624   3.399  19.722  0.00  0.00    +0.000 A 
ENDBRANCH   5  13
BRANCH   1  21
ATOM     19  C   UNL     1       2.488   7.365  18.330  0.00  0.00    +0.000 C 
ATOM     20  O   UNL     1       1.668   7.000  17.503  0.00  0.00    +0.000 OA
ATOM     21  N   UNL     1       3.798   6.791  18.361  0.00  0.00    +0.000 N 
ATOM     22  H   UNL     1       4.401   6.936  19.163  0.00  0.00    +0.000 HD
BRANCH  19  23
ATOM     23  C   UNL     1       2.204   8.337  19.443  0.00  0.00    +0.000 C 
BRANCH  23  25
ATOM     24  C   UNL     1       1.633   6.316  20.843  0.00  0.00    +0.000 C 
ATOM     25  C   UNL     1       1.232   7.744  20.466  0.00  0.00    +0.000 C 
ATOM     26  C   UNL     1       1.187   8.625  21.713  0.00  0.00    +0.000 C 
ENDBRANCH  23  25
ENDBRANCH  19  23
ENDBRANCH   1  21
TORSDOF 5
ENDMDL
MODEL 4
REMARK VINA RESULT:      -7.3      3.840      5.340
REMARK  Name = 
REMARK  7 active torsions:
REMARK  status: ('A' for Active; 'I' for Inactive)
REMARK    1  A    between atoms: C_1  and  C_2
REMARK    2  A    between atoms: C_2  and  C_3
REMARK    3  A    between atoms: C_2  and  C_4
REMARK    4  A    between atoms: C_4  and  C_5
REMARK    5  A    between atoms: N_7  and  C_8
REMARK    6  A    between atoms: C_10  and  C_11
REMARK    7  A    between atoms: N_19  and  C_20
REMARK                            x       y       z     vdW  Elec       q    Type
REMARK                         _______ _______ _______ _____ _____    ______ ____
ROOT
ATOM      1  C   UNL     1       5.467   4.107  17.158  0.00  0.00    +0.000 A 
ATOM      2  C   UNL     1       4.396   3.358  17.567  0.00  0.00    +0.000 A 
ATOM      3  C   UNL     1       4.085   3.825  18.872  0.00  0.00    +0.000 A 
ATOM      4  N   UNL     1       4.938   4.794  19.251  0.00  0.00    +0.000 NA
ATOM      5  N   UNL     1       5.703   5.037  18.157  0.00  0.00    +0.000 N 
ENDROOT
BRANCH   3   6
ATOM      6  C   UNL     1       2.993   3.365  19.729  0.00  0.00    +0.000 A 
ATOM      7  C   UNL     1       3.265   2.697  20.933  0.00  0.00    +0.000 A 
ATOM      8  C   UNL     1       2.223   2.324  21.790  0.00  0.00    +0.000 A 
ATOM      9  C   UNL     1       0.899   2.596  21.449  0.00  0.00    +0.000 A 
ATOM     10  C   UNL     1       0.612   3.242  20.248  0.00  0.00    +0.000 A 
ATOM     11  C   UNL     1       1.656   3.619  19.401  0.00  0.00    +0.000 A 
ATOM     12  F   UNL     1       1.337   4.241  18.255  0.00  0.00    +0.000 F 
ENDBRANCH   3   6
BRANCH   5  13
ATOM     13  C   UNL     1       6.558   6.168  18.074  0.00  0.00    +0.000 A 
ATOM     14  C   UNL     1       6.241   7.221  17.211  0.00  0.00    +0.000 A 
ATOM     15  C   UNL     1       7.073   8.341  17.152  0.00  0.00    +0.000 A 
ATOM     16  C   UNL     1       8.234   8.403  17.926  0.00  0.00    +0.000 A 
ATOM     17  C   UNL     1       8.576   7.341  18.755  0.00  0.00    +0.000 A 
ATOM     18  C   UNL     1       7.741   6.223  18.831  0.00  0.00    +0.000 A 
ENDBRANCH   5  13
BRANCH   1  21
ATOM     19  C   UNL     1       5.822   4.596  14.783  0.00  0.00    +0.000 C 
ATOM     20  O   UNL     1       4.862   5.349  14.764  0.00  0.00    +0.000 OA
ATOM     21  N   UNL     1       6.200   3.928  15.991  0.00  0.00    +0.000 N 
ATOM     22  H   UNL     1       7.104   3.475  16.062  0.00  0.00    +0.000 HD
BRANCH  19  23
ATOM     23  C   UNL     1       6.755   4.372  13.625  0.00  0.00    +0.000 C 
BRANCH  23  25
ATOM     24  C   UNL     1       4.898   3.639  12.080  0.00  0.00    +0.000 C 
ATOM     25  C   UNL     1       6.244   3.261  12.704  0.00  0.00    +0.000 C 
ATOM     26  C   UNL     1       7.271   2.977  11.609  0.00  0.00    +0.000 C 
ENDBRANCH  23  25
ENDBRANCH  19  23
ENDBRANCH   1  21
TORSDOF 5
ENDMDL
MODEL 5
REMARK VINA RESULT:      -7.3      2.435      6.957
REMARK  Name = 
REMARK  7 active torsions:
REMARK  status: ('A' for Active; 'I' for Inactive)
REMARK    1  A    between atoms: C_1  and  C_2
REMARK    2  A    between atoms: C_2  and  C_3
REMARK    3  A    between atoms: C_2  and  C_4
REMARK    4  A    between atoms: C_4  and  C_5
REMARK    5  A    between atoms: N_7  and  C_8
REMARK    6  A    between atoms: C_10  and  C_11
REMARK    7  A    between atoms: N_19  and  C_20
REMARK                            x       y       z     vdW  Elec       q    Type
REMARK                         _______ _______ _______ _____ _____    ______ ____
ROOT
ATOM      1  C   UNL     1       4.104   5.818  17.471  0.00  0.00    +0.000 A 
ATOM      2  C   UNL     1       4.790   6.045  16.307  0.00  0.00    +0.000 A 
ATOM      3  C   UNL     1       5.099   4.758  15.794  0.00  0.00    +0.000 A 
ATOM      4  N   UNL     1       4.646   3.792  16.615  0.00  0.00    +0.000 NA
ATOM      5  N   UNL     1       3.944   4.446  17.574  0.00  0.00    +0.000 N 
ENDROOT
BRANCH   3   6
ATOM      6  C   UNL     1       5.798   4.458  14.545  0.00  0.00    +0.000 A 
ATOM      7  C   UNL     1       5.183   3.676  13.555  0.00  0.00    +0.000 A 
ATOM      8  C   UNL     1       5.820   3.451  12.329  0.00  0.00    +0.000 A 
ATOM      9  C   UNL     1       7.084   3.987  12.083  0.00  0.00    +0.000 A 
ATOM     10  C   UNL     1       7.715   4.749  13.064  0.00  0.00    +0.000 A 
ATOM     11  C   UNL     1       7.071   4.977  14.281  0.00  0.00    +0.000 A 
ATOM     12  F   UNL     1       7.712   5.719  15.199  0.00  0.00    +0.000 F 
ENDBRANCH   3   6
BRANCH   5  13
ATOM     13  C   UNL     1       3.099   3.760  18.487  0.00  0.00    +0.000 A 
ATOM     14  C   UNL     1       3.572   3.425  19.759  0.00  0.00    +0.000 A 
ATOM     15  C   UNL     1       2.729   2.772  20.660  0.00  0.00    +0.000 A 
ATOM     16  C   UNL     1       1.428   2.424  20.289  0.00  0.00    +0.000 A 
ATOM     17  C   UNL     1       0.966   2.718  19.011  0.00  0.00    +0.000 A 
ATOM     18  C   UNL     1       1.799   3.385  18.109  0.00  0.00    +0.000 A 
ENDBRANCH   5  13
BRANCH   1  21
ATOM     19  C   UNL     1       2.387   7.346  18.319  0.00  0.00    +0.000 C 
ATOM     20  O   UNL     1       1.596   6.981  17.465  0.00  0.00    +0.000 OA
ATOM     21  N   UNL     1       3.698   6.779  18.390  0.00  0.00    +0.000 N 
ATOM     22  H   UNL     1       4.274   6.924  19.212  0.00  0.00    +0.000 HD
BRANCH  19  23
ATOM     23  C   UNL     1       2.062   8.311  19.427  0.00  0.00    +0.000 C 
BRANCH  23  25
ATOM     24  C   UNL     1       0.237   9.899  20.149  0.00  0.00    +0.000 C 
ATOM     25  C   UNL     1       1.053   9.367  18.969  0.00  0.00    +0.000 C 
ATOM     26  C   UNL     1       1.780  10.515  18.271  0.00  0.00    +0.000 C 
ENDBRANCH  23  25
ENDBRANCH  19  23
ENDBRANCH   1  21
TORSDOF 5
ENDMDL
MODEL 6
REMARK VINA RESULT:      -7.2      1.973      4.105
REMARK  Name = 
REMARK  7 active torsions:
REMARK  status: ('A' for Active; 'I' for Inactive)
REMARK    1  A    between atoms: C_1  and  C_2
REMARK    2  A    between atoms: C_2  and  C_3
REMARK    3  A    between atoms: C_2  and  C_4
REMARK    4  A    between atoms: C_4  and  C_5
REMARK    5  A    between atoms: N_7  and  C_8
REMARK    6  A    between atoms: C_10  and  C_11
REMARK    7  A    between atoms: N_19  and  C_20
REMARK                            x       y       z     vdW  Elec       q    Type
REMARK                         _______ _______ _______ _____ _____    ______ ____
ROOT
ATOM      1  C   UNL     1       2.236   6.649  20.156  0.00  0.00    +0.000 A 
ATOM      2  C   UNL     1       1.373   7.613  20.605  0.00  0.00    +0.000 A 
ATOM      3  C   UNL     1       1.436   8.654  19.643  0.00  0.00    +0.000 A 
ATOM      4  N   UNL     1       2.312   8.354  18.666  0.00  0.00    +0.000 NA
ATOM      5  N   UNL     1       2.708   7.083  18.929  0.00  0.00    +0.000 N 
ENDROOT
BRANCH   3   6
ATOM      6  C   UNL     1       0.669   9.900  19.649  0.00  0.00    +0.000 A 
ATOM      7  C   UNL     1       0.750  10.780  20.739  0.00  0.00    +0.000 A 
ATOM      8  C   UNL     1       0.075  12.007  20.713  0.00  0.00    +0.000 A 
ATOM      9  C   UNL     1      -0.700  12.361  19.609  0.00  0.00    +0.000 A 
ATOM     10  C   UNL     1      -0.805  11.489  18.528  0.00  0.00    +0.000 A 
ATOM     11  C   UNL     1      -0.123  10.271  18.556  0.00  0.00    +0.000 A 
ATOM     12  F   UNL     1      -0.248   9.460  17.493  0.00  0.00    +0.000 F 
ENDBRANCH   3   6
BRANCH   5  13
ATOM     13  C   UNL     1       3.442   6.315  17.985  0.00  0.00    +0.000 A 
ATOM     14  C   UNL     1       4.516   6.890  17.300  0.00  0.00    +0.000 A 
ATOM     15  C   UNL     1       5.249   6.122  16.393  0.00  0.00    +0.000 A 
ATOM     16  C   UNL     1       4.897   4.794  16.142  0.00  0.00    +0.000 A 
ATOM     17  C   UNL     1       3.804   4.229  16.790  0.00  0.00    +0.000 A 
ATOM     18  C   UNL     1       3.075   4.986  17.711  0.00  0.00    +0.000 A 
ENDBRANCH   5  13
BRANCH   1  21
ATOM     19  C   UNL     1       1.712   4.370  20.889  0.00  0.00    +0.000 C 
ATOM     20  O   UNL     1       0.629   4.407  20.330  0.00  0.00    +0.000 OA
ATOM     21  N   UNL     1       2.601   5.490  20.831  0.00  0.00    +0.000 N 
ATOM     22  H   UNL     1       3.571   5.388  21.110  0.00  0.00    +0.000 HD
BRANCH  19  23
ATOM     23  C   UNL     1       2.276   3.159  21.582  0.00  0.00    +0.000 C 
BRANCH  23  25
ATOM     24  C   UNL     1       1.854   2.019  19.370  0.00  0.00    +0.000 C 
ATOM     25  C   UNL     1       2.792   2.130  20.574  0.00  0.00    +0.000 C 
ATOM     26  C   UNL     1       4.198   2.511  20.112  0.00  0.00    +0.000 C 
ENDBRANCH  23  25
ENDBRANCH  19  23
ENDBRANCH   1  21
TORSDOF 5
ENDMDL
MODEL 7
REMARK VINA RESULT:      -7.2      2.083      4.216
REMARK  Name = 
REMARK  7 active torsions:
REMARK  status: ('A' for Active; 'I' for Inactive)
REMARK    1  A    between atoms: C_1  and  C_2
REMARK    2  A    between atoms: C_2  and  C_3
REMARK    3  A    between atoms: C_2  and  C_4
REMARK    4  A    between atoms: C_4  and  C_5
REMARK    5  A    between atoms: N_7  and  C_8
REMARK    6  A    between atoms: C_10  and  C_11
REMARK    7  A    between atoms: N_19  and  C_20
REMARK                            x       y       z     vdW  Elec       q    Type
REMARK                         _______ _______ _______ _____ _____    ______ ____
ROOT
ATOM      1  C   UNL     1       2.334   6.550  19.998  0.00  0.00    +0.000 A 
ATOM      2  C   UNL     1       1.435   7.487  20.437  0.00  0.00    +0.000 A 
ATOM      3  C   UNL     1       1.489   8.536  19.482  0.00  0.00    +0.000 A 
ATOM      4  N   UNL     1       2.391   8.266  18.520  0.00  0.00    +0.000 NA
ATOM      5  N   UNL     1       2.816   7.005  18.783  0.00  0.00    +0.000 N 
ENDROOT
BRANCH   3   6
ATOM      6  C   UNL     1       0.688   9.761  19.480  0.00  0.00    +0.000 A 
ATOM      7  C   UNL     1      -0.097  10.097  18.367  0.00  0.00    +0.000 A 
ATOM      8  C   UNL     1      -0.921  11.229  18.393  0.00  0.00    +0.000 A 
ATOM      9  C   UNL     1      -0.958  12.046  19.523  0.00  0.00    +0.000 A 
ATOM     10  C   UNL     1      -0.170  11.735  20.628  0.00  0.00    +0.000 A 
ATOM     11  C   UNL     1       0.644  10.601  20.599  0.00  0.00    +0.000 A 
ATOM     12  F   UNL     1       1.386  10.336  21.686  0.00  0.00    +0.000 F 
ENDBRANCH   3   6
BRANCH   5  13
ATOM     13  C   UNL     1       3.589   6.263  17.849  0.00  0.00    +0.000 A 
ATOM     14  C   UNL     1       4.620   6.888  17.143  0.00  0.00    +0.000 A 
ATOM     15  C   UNL     1       5.392   6.147  16.245  0.00  0.00    +0.000 A 
ATOM     16  C   UNL     1       5.120   4.795  16.025  0.00  0.00    +0.000 A 
ATOM     17  C   UNL     1       4.068   4.178  16.694  0.00  0.00    +0.000 A 
ATOM     18  C   UNL     1       3.302   4.909  17.606  0.00  0.00    +0.000 A 
ENDBRANCH   5  13
BRANCH   1  21
ATOM     19  C   UNL     1       1.797   4.316  20.850  0.00  0.00    +0.000 C 
ATOM     20  O   UNL     1       0.667   4.380  20.394  0.00  0.00    +0.000 OA
ATOM     21  N   UNL     1       2.717   5.397  20.673  0.00  0.00    +0.000 N 
ATOM     22  H   UNL     1       3.704   5.265  20.864  0.00  0.00    +0.000 HD
BRANCH  19  23
ATOM     23  C   UNL     1       2.378   3.104  21.526  0.00  0.00    +0.000 C 
BRANCH  23  25
ATOM     24  C   UNL     1       1.969   2.020  19.284  0.00  0.00    +0.000 C 
ATOM     25  C   UNL     1       2.891   2.088  20.503  0.00  0.00    +0.000 C 
ATOM     26  C   UNL     1       4.310   2.453  20.071  0.00  0.00    +0.000 C 
ENDBRANCH  23  25
ENDBRANCH  19  23
ENDBRANCH   1  21
TORSDOF 5
ENDMDL
MODEL 8
REMARK VINA RESULT:      -7.1      3.592      5.541
REMARK  Name = 
REMARK  7 active torsions:
REMARK  status: ('A' for Active; 'I' for Inactive)
REMARK    1  A    between atoms: C_1  and  C_2
REMARK    2  A    between atoms: C_2  and  C_3
REMARK    3  A    between atoms: C_2  and  C_4
REMARK    4  A    between atoms: C_4  and  C_5
REMARK    5  A    between atoms: N_7  and  C_8
REMARK    6  A    between atoms: C_10  and  C_11
REMARK    7  A    between atoms: N_19  and  C_20
REMARK                            x       y       z     vdW  Elec       q    Type
REMARK                         _______ _______ _______ _____ _____    ______ ____
ROOT
ATOM      1  C   UNL     1       5.475   6.064  17.136  0.00  0.00    +0.000 A 
ATOM      2  C   UNL     1       4.775   5.807  18.285  0.00  0.00    +0.000 A 
ATOM      3  C   UNL     1       3.975   4.670  17.992  0.00  0.00    +0.000 A 
ATOM      4  N   UNL     1       4.159   4.268  16.721  0.00  0.00    +0.000 NA
ATOM      5  N   UNL     1       5.157   5.053  16.245  0.00  0.00    +0.000 N 
ENDROOT
BRANCH   3   6
ATOM      6  C   UNL     1       3.068   3.979  18.909  0.00  0.00    +0.000 A 
ATOM      7  C   UNL     1       3.561   3.368  20.072  0.00  0.00    +0.000 A 
ATOM      8  C   UNL     1       2.685   2.771  20.987  0.00  0.00    +0.000 A 
ATOM      9  C   UNL     1       1.312   2.761  20.743  0.00  0.00    +0.000 A 
ATOM     10  C   UNL     1       0.811   3.346  19.583  0.00  0.00    +0.000 A 
ATOM     11  C   UNL     1       1.688   3.947  18.679  0.00  0.00    +0.000 A 
ATOM     12  F   UNL     1       1.164   4.502  17.574  0.00  0.00    +0.000 F 
ENDBRANCH   3   6
BRANCH   5  13
ATOM     13  C   UNL     1       5.814   4.772  15.017  0.00  0.00    +0.000 A 
ATOM     14  C   UNL     1       5.201   3.944  14.072  0.00  0.00    +0.000 A 
ATOM     15  C   UNL     1       5.841   3.691  12.856  0.00  0.00    +0.000 A 
ATOM     16  C   UNL     1       7.100   4.235  12.591  0.00  0.00    +0.000 A 
ATOM     17  C   UNL     1       7.732   5.025  13.545  0.00  0.00    +0.000 A 
ATOM     18  C   UNL     1       7.092   5.295  14.757  0.00  0.00    +0.000 A 
ENDBRANCH   5  13
BRANCH   1  21
ATOM     19  C   UNL     1       7.453   7.389  17.717  0.00  0.00    +0.000 C 
ATOM     20  O   UNL     1       7.742   6.619  18.618  0.00  0.00    +0.000 OA
ATOM     21  N   UNL     1       6.300   7.158  16.902  0.00  0.00    +0.000 N 
ATOM     22  H   UNL     1       6.177   7.669  16.035  0.00  0.00    +0.000 HD
BRANCH  19  23
ATOM     23  C   UNL     1       8.294   8.563  17.294  0.00  0.00    +0.000 C 
BRANCH  23  25
ATOM     24  C   UNL     1       9.296   9.738  19.290  0.00  0.00    +0.000 C 
ATOM     25  C   UNL     1       8.154   9.731  18.272  0.00  0.00    +0.000 C 
ATOM     26  C   UNL     1       8.125  11.053  17.505  0.00  0.00    +0.000 C 
ENDBRANCH  23  25
ENDBRANCH  19  23
ENDBRANCH   1  21
TORSDOF 5
ENDMDL
MODEL 9
REMARK VINA RESULT:      -7.1      2.426      6.785
REMARK  Name = 
REMARK  7 active torsions:
REMARK  status: ('A' for Active; 'I' for Inactive)
REMARK    1  A    between atoms: C_1  and  C_2
REMARK    2  A    between atoms: C_2  and  C_3
REMARK    3  A    between atoms: C_2  and  C_4
REMARK    4  A    between atoms: C_4  and  C_5
REMARK    5  A    between atoms: N_7  and  C_8
REMARK    6  A    between atoms: C_10  and  C_11
REMARK    7  A    between atoms: N_19  and  C_20
REMARK                            x       y       z     vdW  Elec       q    Type
REMARK                         _______ _______ _______ _____ _____    ______ ____
ROOT
ATOM      1  C   UNL     1       3.388   6.281  18.204  0.00  0.00    +0.000 A 
ATOM      2  C   UNL     1       4.140   6.501  17.080  0.00  0.00    +0.000 A 
ATOM      3  C   UNL     1       4.698   5.238  16.748  0.00  0.00    +0.000 A 
ATOM      4  N   UNL     1       4.326   4.299  17.636  0.00  0.00    +0.000 NA
ATOM      5  N   UNL     1       3.438   4.920  18.452  0.00  0.00    +0.000 N 
ENDROOT
BRANCH   3   6
ATOM      6  C   UNL     1       5.556   4.934  15.602  0.00  0.00    +0.000 A 
ATOM      7  C   UNL     1       5.072   4.159  14.536  0.00  0.00    +0.000 A 
ATOM      8  C   UNL     1       5.865   3.930  13.406  0.00  0.00    +0.000 A 
ATOM      9  C   UNL     1       7.155   4.457  13.333  0.00  0.00    +0.000 A 
ATOM     10  C   UNL     1       7.655   5.212  14.391  0.00  0.00    +0.000 A 
ATOM     11  C   UNL     1       6.857   5.443  15.512  0.00  0.00    +0.000 A 
ATOM     12  F   UNL     1       7.375   6.178  16.508  0.00  0.00    +0.000 F 
ENDBRANCH   3   6
BRANCH   5  13
ATOM     13  C   UNL     1       2.627   4.198  19.369  0.00  0.00    +0.000 A 
ATOM     14  C   UNL     1       1.453   3.582  18.927  0.00  0.00    +0.000 A 
ATOM     15  C   UNL     1       0.673   2.853  19.828  0.00  0.00    +0.000 A 
ATOM     16  C   UNL     1       1.043   2.760  21.172  0.00  0.00    +0.000 A 
ATOM     17  C   UNL     1       2.188   3.405  21.625  0.00  0.00    +0.000 A 
ATOM     18  C   UNL     1       2.982   4.124  20.727  0.00  0.00    +0.000 A 
ENDBRANCH   5  13
BRANCH   1  21
ATOM     19  C   UNL     1       2.159   8.396  18.347  0.00  0.00    +0.000 C 
ATOM     20  O   UNL     1       2.192   8.533  17.135  0.00  0.00    +0.000 OA
ATOM     21  N   UNL     1       2.747   7.249  18.968  0.00  0.00    +0.000 N 
ATOM     22  H   UNL     1       2.541   7.030  19.937  0.00  0.00    +0.000 HD
BRANCH  19  23
ATOM     23  C   UNL     1       1.429   9.313  19.290  0.00  0.00    +0.000 C 
BRANCH  23  25
ATOM     24  C   UNL     1      -0.686  10.288  18.316  0.00  0.00    +0.000 C 
ATOM     25  C   UNL     1       0.812  10.501  18.547  0.00  0.00    +0.000 C 
ATOM     26  C   UNL     1       1.045  11.788  19.336  0.00  0.00    +0.000 C 
ENDBRANCH  23  25
ENDBRANCH  19  23
ENDBRANCH   1  21
TORSDOF 5
ENDMDL
