MODEL 1
REMARK VINA RESULT:      -8.6      0.000      0.000
REMARK  Name = 
REMARK  8 active torsions:
REMARK  status: ('A' for Active; 'I' for Inactive)
REMARK    1  A    between atoms: C_1  and  O_2
REMARK    2  A    between atoms: O_2  and  C_3
REMARK    3  A    between atoms: C_10  and  N_11
REMARK    4  A    between atoms: C_12  and  C_14
REMARK    5  A    between atoms: C_14  and  C_15
REMARK    6  A    between atoms: N_18  and  C_19
REMARK    7  A    between atoms: C_19  and  C_20
REMARK    8  A    between atoms: C_23  and  C_24
REMARK                            x       y       z     vdW  Elec       q    Type
REMARK                         _______ _______ _______ _____ _____    ______ ____
ROOT
ATOM      1  C   UNL     1       1.723   4.564  21.005  0.00  0.00    +0.000 C 
ENDROOT
BRANCH   1   2
ATOM      2  C   UNL     1       1.767   3.371  20.036  0.00  0.00    +0.000 C 
ATOM      3  C   UNL     1       3.150   2.696  20.071  0.00  0.00    +0.000 C 
ATOM      4  C   UNL     1       4.124   3.192  19.004  0.00  0.00    +0.000 C 
ATOM      5  N   UNL     1       3.528   3.069  17.667  0.00  0.00    +0.000 NA
ATOM      6  C   UNL     1       2.401   4.006  17.572  0.00  0.00    +0.000 C 
ATOM      7  C   UNL     1       1.306   3.691  18.600  0.00  0.00    +0.000 C 
BRANCH   5   8
ATOM      8  C   UNL     1       4.563   3.333  16.646  0.00  0.00    +0.000 C 
BRANCH   8   9
ATOM      9  C   UNL     1       5.447   4.539  16.904  0.00  0.00    +0.000 A 
ATOM     10  C   UNL     1       4.986   5.827  16.591  0.00  0.00    +0.000 A 
ATOM     11  C   UNL     1       5.767   6.953  16.863  0.00  0.00    +0.000 A 
ATOM     12  C   UNL     1       7.028   6.819  17.460  0.00  0.00    +0.000 A 
ATOM     13  C   UNL     1       7.489   5.532  17.779  0.00  0.00    +0.000 A 
ATOM     14  C   UNL     1       6.707   4.404  17.504  0.00  0.00    +0.000 A 
BRANCH  12  15
ATOM     15  C   UNL     1       7.878   8.029  17.765  0.00  0.00    +0.000 C 
ATOM     16  F   UNL     1       7.154   9.157  18.009  0.00  0.00    +0.000 F 
ATOM     17  F   UNL     1       8.665   7.851  18.863  0.00  0.00    +0.000 F 
ATOM     18  F   UNL     1       8.724   8.345  16.745  0.00  0.00    +0.000 F 
ENDBRANCH  12  15
ENDBRANCH   8   9
ENDBRANCH   5   8
ENDBRANCH   1   2
BRANCH   1  20
ATOM     19  N   UNL     1       1.237   6.896  20.372  0.00  0.00    +0.000 N 
ATOM     20  C   UNL     1       2.184   5.886  20.418  0.00  0.00    +0.000 C 
ATOM     21  O   UNL     1       3.353   5.999  20.056  0.00  0.00    +0.000 OA
ATOM     22  H   UNL     1       0.398   6.823  20.945  0.00  0.00    +0.000 HD
BRANCH  19  30
ATOM     23  C   UNL     1      -0.148  10.472  22.031  0.00  0.00    +0.000 A 
ATOM     24  C   UNL     1      -0.028  11.683  21.380  0.00  0.00    +0.000 A 
ATOM     25  C   UNL     1       0.606  11.692  20.145  0.00  0.00    +0.000 A 
ATOM     26  C   UNL     1       1.079  10.520  19.586  0.00  0.00    +0.000 A 
ATOM     27  N   UNL     1       1.702  10.605  18.401  0.00  0.00    +0.000 NA
ATOM     28  C   UNL     1       2.161   9.466  17.863  0.00  0.00    +0.000 A 
ATOM     29  C   UNL     1       2.025   8.231  18.463  0.00  0.00    +0.000 A 
ATOM     30  C   UNL     1       1.397   8.149  19.707  0.00  0.00    +0.000 A 
ATOM     31  C   UNL     1       0.885   9.314  20.311  0.00  0.00    +0.000 A 
ATOM     32  N   UNL     1       0.270   9.288  21.523  0.00  0.00    +0.000 NA
BRANCH  23  34
ATOM     33  C   UNL     1      -1.802  11.466  23.328  0.00  0.00    +0.000 C 
ATOM     34  O   UNL     1      -0.745  10.515  23.275  0.00  0.00    +0.000 OA
ENDBRANCH  23  34
ENDBRANCH  19  30
ENDBRANCH   1  20
TORSDOF 7
ENDMDL
MODEL 2
REMARK VINA RESULT:      -8.6      4.171      8.306
REMARK  Name = 
REMARK  8 active torsions:
REMARK  status: ('A' for Active; 'I' for Inactive)
REMARK    1  A    between atoms: C_1  and  O_2
REMARK    2  A    between atoms: O_2  and  C_3
REMARK    3  A    between atoms: C_10  and  N_11
REMARK    4  A    between atoms: C_12  and  C_14
REMARK    5  A    between atoms: C_14  and  C_15
REMARK    6  A    between atoms: N_18  and  C_19
REMARK    7  A    between atoms: C_19  and  C_20
REMARK    8  A    between atoms: C_23  and  C_24
REMARK                            x       y       z     vdW  Elec       q    Type
REMARK                         _______ _______ _______ _____ _____    ______ ____
ROOT
ATOM      1  C   UNL     1       2.693   2.143  19.323  0.00  0.00    +0.000 C 
ENDROOT
BRANCH   1   2
ATOM      2  C   UNL     1       1.558   3.061  19.806  0.00  0.00    +0.000 C 
ATOM      3  C   UNL     1       1.118   4.015  18.682  0.00  0.00    +0.000 C 
ATOM      4  C   UNL     1       1.803   5.380  18.706  0.00  0.00    +0.000 C 
ATOM      5  N   UNL     1       1.631   6.020  20.018  0.00  0.00    +0.000 NA
ATOM      6  C   UNL     1       2.374   5.239  21.016  0.00  0.00    +0.000 C 
ATOM      7  C   UNL     1       1.848   3.802  21.127  0.00  0.00    +0.000 C 
BRANCH   5   8
ATOM      8  C   UNL     1       2.097   7.420  19.942  0.00  0.00    +0.000 C 
BRANCH   8   9
ATOM      9  C   UNL     1       1.184   8.450  20.580  0.00  0.00    +0.000 A 
ATOM     10  C   UNL     1       0.923   8.399  21.958  0.00  0.00    +0.000 A 
ATOM     11  C   UNL     1       0.122   9.365  22.572  0.00  0.00    +0.000 A 
ATOM     12  C   UNL     1      -0.434  10.410  21.823  0.00  0.00    +0.000 A 
ATOM     13  C   UNL     1      -0.170  10.467  20.445  0.00  0.00    +0.000 A 
ATOM     14  C   UNL     1       0.631   9.498  19.831  0.00  0.00    +0.000 A 
BRANCH  12  15
ATOM     15  C   UNL     1      -1.296  11.464  22.476  0.00  0.00    +0.000 C 
ATOM     16  F   UNL     1      -2.287  11.935  21.667  0.00  0.00    +0.000 F 
ATOM     17  F   UNL     1      -1.920  11.008  23.597  0.00  0.00    +0.000 F 
ATOM     18  F   UNL     1      -0.583  12.558  22.864  0.00  0.00    +0.000 F 
ENDBRANCH  12  15
ENDBRANCH   8   9
ENDBRANCH   5   8
ENDBRANCH   1   2
BRANCH   1  20
ATOM     19  N   UNL     1       4.211   3.893  18.481  0.00  0.00    +0.000 N 
ATOM     20  C   UNL     1       4.070   2.783  19.296  0.00  0.00    +0.000 C 
ATOM     21  O   UNL     1       4.955   2.314  20.008  0.00  0.00    +0.000 OA
ATOM     22  H   UNL     1       3.380   4.386  18.159  0.00  0.00    +0.000 HD
BRANCH  19  30
ATOM     23  C   UNL     1       5.693   4.065  14.578  0.00  0.00    +0.000 A 
ATOM     24  C   UNL     1       6.901   4.658  14.273  0.00  0.00    +0.000 A 
ATOM     25  C   UNL     1       7.616   5.237  15.311  0.00  0.00    +0.000 A 
ATOM     26  C   UNL     1       7.137   5.199  16.607  0.00  0.00    +0.000 A 
ATOM     27  N   UNL     1       7.868   5.800  17.558  0.00  0.00    +0.000 NA
ATOM     28  C   UNL     1       7.397   5.761  18.813  0.00  0.00    +0.000 A 
ATOM     29  C   UNL     1       6.215   5.143  19.165  0.00  0.00    +0.000 A 
ATOM     30  C   UNL     1       5.445   4.539  18.170  0.00  0.00    +0.000 A 
ATOM     31  C   UNL     1       5.898   4.540  16.836  0.00  0.00    +0.000 A 
ATOM     32  N   UNL     1       5.184   3.971  15.829  0.00  0.00    +0.000 NA
BRANCH  23  34
ATOM     33  C   UNL     1       5.815   3.384  12.359  0.00  0.00    +0.000 C 
ATOM     34  O   UNL     1       4.995   3.540  13.510  0.00  0.00    +0.000 OA
ENDBRANCH  23  34
ENDBRANCH  19  30
ENDBRANCH   1  20
TORSDOF 7
ENDMDL
MODEL 3
REMARK VINA RESULT:      -8.6      3.952      8.452
REMARK  Name = 
REMARK  8 active torsions:
REMARK  status: ('A' for Active; 'I' for Inactive)
REMARK    1  A    between atoms: C_1  and  O_2
REMARK    2  A    between atoms: O_2  and  C_3
REMARK    3  A    between atoms: C_10  and  N_11
REMARK    4  A    between atoms: C_12  and  C_14
REMARK    5  A    between atoms: C_14  and  C_15
REMARK    6  A    between atoms: N_18  and  C_19
REMARK    7  A    between atoms: C_19  and  C_20
REMARK    8  A    between atoms: C_23  and  C_24
REMARK                            x       y       z     vdW  Elec       q    Type
REMARK                         _______ _______ _______ _____ _____    ______ ____
ROOT
ATOM      1  C   UNL     1       2.683   2.307  17.840  0.00  0.00    +0.000 C 
ENDROOT
BRANCH   1   2
ATOM      2  C   UNL     1       1.473   3.087  18.380  0.00  0.00    +0.000 C 
ATOM      3  C   UNL     1       1.450   4.515  17.806  0.00  0.00    +0.000 C 
ATOM      4  C   UNL     1       2.119   5.565  18.691  0.00  0.00    +0.000 C 
ATOM      5  N   UNL     1       1.539   5.546  20.041  0.00  0.00    +0.000 NA
ATOM      6  C   UNL     1       1.893   4.273  20.681  0.00  0.00    +0.000 C 
ATOM      7  C   UNL     1       1.328   3.068  19.915  0.00  0.00    +0.000 C 
BRANCH   5   8
ATOM      8  C   UNL     1       2.034   6.712  20.801  0.00  0.00    +0.000 C 
BRANCH   8   9
ATOM      9  C   UNL     1       1.320   8.023  20.531  0.00  0.00    +0.000 A 
ATOM     10  C   UNL     1       1.546   8.711  19.329  0.00  0.00    +0.000 A 
ATOM     11  C   UNL     1       0.864   9.896  19.042  0.00  0.00    +0.000 A 
ATOM     12  C   UNL     1      -0.066  10.420  19.949  0.00  0.00    +0.000 A 
ATOM     13  C   UNL     1      -0.298   9.731  21.151  0.00  0.00    +0.000 A 
ATOM     14  C   UNL     1       0.387   8.545  21.438  0.00  0.00    +0.000 A 
BRANCH  12  15
ATOM     15  C   UNL     1      -0.814  11.697  19.648  0.00  0.00    +0.000 C 
ATOM     16  F   UNL     1      -2.132  11.649  19.989  0.00  0.00    +0.000 F 
ATOM     17  F   UNL     1      -0.300  12.772  20.309  0.00  0.00    +0.000 F 
ATOM     18  F   UNL     1      -0.785  12.022  18.326  0.00  0.00    +0.000 F 
ENDBRANCH  12  15
ENDBRANCH   8   9
ENDBRANCH   5   8
ENDBRANCH   1   2
BRANCH   1  20
ATOM     19  N   UNL     1       4.141   3.780  16.507  0.00  0.00    +0.000 N 
ATOM     20  C   UNL     1       3.962   3.116  17.708  0.00  0.00    +0.000 C 
ATOM     21  O   UNL     1       4.734   3.164  18.663  0.00  0.00    +0.000 OA
ATOM     22  H   UNL     1       3.343   3.928  15.892  0.00  0.00    +0.000 HD
BRANCH  19  30
ATOM     23  C   UNL     1       5.692   3.386  12.646  0.00  0.00    +0.000 A 
ATOM     24  C   UNL     1       6.864   4.000  12.256  0.00  0.00    +0.000 A 
ATOM     25  C   UNL     1       7.518   4.795  13.186  0.00  0.00    +0.000 A 
ATOM     26  C   UNL     1       7.014   4.945  14.465  0.00  0.00    +0.000 A 
ATOM     27  N   UNL     1       7.684   5.747  15.306  0.00  0.00    +0.000 NA
ATOM     28  C   UNL     1       7.191   5.890  16.545  0.00  0.00    +0.000 A 
ATOM     29  C   UNL     1       6.045   5.262  16.985  0.00  0.00    +0.000 A 
ATOM     30  C   UNL     1       5.337   4.446  16.101  0.00  0.00    +0.000 A 
ATOM     31  C   UNL     1       5.818   4.252  14.791  0.00  0.00    +0.000 A 
ATOM     32  N   UNL     1       5.163   3.472  13.890  0.00  0.00    +0.000 NA
BRANCH  23  34
ATOM     33  C   UNL     1       3.907   3.306  11.160  0.00  0.00    +0.000 C 
ATOM     34  O   UNL     1       5.052   2.641  11.677  0.00  0.00    +0.000 OA
ENDBRANCH  23  34
ENDBRANCH  19  30
ENDBRANCH   1  20
TORSDOF 7
ENDMDL
MODEL 4
REMARK VINA RESULT:      -8.6      3.855      8.353
REMARK  Name = 
REMARK  8 active torsions:
REMARK  status: ('A' for Active; 'I' for Inactive)
REMARK    1  A    between atoms: C_1  and  O_2
REMARK    2  A    between atoms: O_2  and  C_3
REMARK    3  A    between atoms: C_10  and  N_11
REMARK    4  A    between atoms: C_12  and  C_14
REMARK    5  A    between atoms: C_14  and  C_15
REMARK    6  A    between atoms: N_18  and  C_19
REMARK    7  A    between atoms: C_19  and  C_20
REMARK    8  A    between atoms: C_23  and  C_24
REMARK                            x       y       z     vdW  Elec       q    Type
REMARK                         _______ _______ _______ _____ _____    ______ ____
ROOT
ATOM      1  C   UNL     1       2.729   2.115  17.694  0.00  0.00    +0.000 C 
ENDROOT
BRANCH   1   2
ATOM      2  C   UNL     1       1.552   2.784  18.423  0.00  0.00    +0.000 C 
ATOM      3  C   UNL     1       1.319   4.206  17.883  0.00  0.00    +0.000 C 
ATOM      4  C   UNL     1       2.022   5.307  18.674  0.00  0.00    +0.000 C 
ATOM      5  N   UNL     1       1.656   5.232  20.096  0.00  0.00    +0.000 NA
ATOM      6  C   UNL     1       2.211   3.993  20.654  0.00  0.00    +0.000 C 
ATOM      7  C   UNL     1       1.643   2.747  19.962  0.00  0.00    +0.000 C 
BRANCH   5   8
ATOM      8  C   UNL     1       2.158   6.435  20.792  0.00  0.00    +0.000 C 
BRANCH   8   9
ATOM      9  C   UNL     1       1.491   7.742  20.409  0.00  0.00    +0.000 A 
ATOM     10  C   UNL     1       0.595   8.359  21.295  0.00  0.00    +0.000 A 
ATOM     11  C   UNL     1       0.004   9.586  20.979  0.00  0.00    +0.000 A 
ATOM     12  C   UNL     1       0.301  10.229  19.770  0.00  0.00    +0.000 A 
ATOM     13  C   UNL     1       1.202   9.616  18.884  0.00  0.00    +0.000 A 
ATOM     14  C   UNL     1       1.791   8.387  19.200  0.00  0.00    +0.000 A 
BRANCH  12  15
ATOM     15  C   UNL     1      -0.325  11.557  19.421  0.00  0.00    +0.000 C 
ATOM     16  F   UNL     1       0.488  12.365  18.684  0.00  0.00    +0.000 F 
ATOM     17  F   UNL     1      -1.469  11.421  18.693  0.00  0.00    +0.000 F 
ATOM     18  F   UNL     1      -0.667  12.282  20.523  0.00  0.00    +0.000 F 
ENDBRANCH  12  15
ENDBRANCH   8   9
ENDBRANCH   5   8
ENDBRANCH   1   2
BRANCH   1  20
ATOM     19  N   UNL     1       4.161   3.684  16.444  0.00  0.00    +0.000 N 
ATOM     20  C   UNL     1       3.992   2.954  17.608  0.00  0.00    +0.000 C 
ATOM     21  O   UNL     1       4.761   2.967  18.567  0.00  0.00    +0.000 OA
ATOM     22  H   UNL     1       3.361   3.849  15.835  0.00  0.00    +0.000 HD
BRANCH  19  30
ATOM     23  C   UNL     1       5.816   3.398  12.617  0.00  0.00    +0.000 A 
ATOM     24  C   UNL     1       6.977   4.055  12.265  0.00  0.00    +0.000 A 
ATOM     25  C   UNL     1       7.582   4.855  13.223  0.00  0.00    +0.000 A 
ATOM     26  C   UNL     1       7.044   4.970  14.491  0.00  0.00    +0.000 A 
ATOM     27  N   UNL     1       7.667   5.779  15.360  0.00  0.00    +0.000 NA
ATOM     28  C   UNL     1       7.140   5.888  16.588  0.00  0.00    +0.000 A 
ATOM     29  C   UNL     1       6.004   5.217  16.991  0.00  0.00    +0.000 A 
ATOM     30  C   UNL     1       5.344   4.393  16.078  0.00  0.00    +0.000 A 
ATOM     31  C   UNL     1       5.862   4.234  14.777  0.00  0.00    +0.000 A 
ATOM     32  N   UNL     1       5.255   3.449  13.849  0.00  0.00    +0.000 NA
BRANCH  23  34
ATOM     33  C   UNL     1       3.995   3.216  11.183  0.00  0.00    +0.000 C 
ATOM     34  O   UNL     1       5.223   2.648  11.622  0.00  0.00    +0.000 OA
ENDBRANCH  23  34
ENDBRANCH  19  30
ENDBRANCH   1  20
TORSDOF 7
ENDMDL
MODEL 5
REMARK VINA RESULT:      -8.4      0.164      1.076
REMARK  Name = 
REMARK  8 active torsions:
REMARK  status: ('A' for Active; 'I' for Inactive)
REMARK    1  A    between atoms: C_1  and  O_2
REMARK    2  A    between atoms: O_2  and  C_3
REMARK    3  A    between atoms: C_10  and  N_11
REMARK    4  A    between atoms: C_12  and  C_14
REMARK    5  A    between atoms: C_14  and  C_15
REMARK    6  A    between atoms: N_18  and  C_19
REMARK    7  A    between atoms: C_19  and  C_20
REMARK    8  A    between atoms: C_23  and  C_24
REMARK                            x       y       z     vdW  Elec       q    Type
REMARK                         _______ _______ _______ _____ _____    ______ ____
ROOT
ATOM      1  C   UNL     1       1.584   4.601  20.913  0.00  0.00    +0.000 C 
ENDROOT
BRANCH   1   2
ATOM      2  C   UNL     1       1.711   3.416  19.940  0.00  0.00    +0.000 C 
ATOM      3  C   UNL     1       3.088   2.743  20.084  0.00  0.00    +0.000 C 
ATOM      4  C   UNL     1       4.146   3.250  19.106  0.00  0.00    +0.000 C 
ATOM      5  N   UNL     1       3.663   3.138  17.722  0.00  0.00    +0.000 NA
ATOM      6  C   UNL     1       2.546   4.074  17.543  0.00  0.00    +0.000 C 
ATOM      7  C   UNL     1       1.369   3.748  18.474  0.00  0.00    +0.000 C 
BRANCH   5   8
ATOM      8  C   UNL     1       4.778   3.412  16.793  0.00  0.00    +0.000 C 
BRANCH   8   9
ATOM      9  C   UNL     1       5.583   4.665  17.085  0.00  0.00    +0.000 A 
ATOM     10  C   UNL     1       6.819   4.568  17.741  0.00  0.00    +0.000 A 
ATOM     11  C   UNL     1       7.596   5.704  17.979  0.00  0.00    +0.000 A 
ATOM     12  C   UNL     1       7.156   6.968  17.561  0.00  0.00    +0.000 A 
ATOM     13  C   UNL     1       5.922   7.067  16.900  0.00  0.00    +0.000 A 
ATOM     14  C   UNL     1       5.144   5.928  16.664  0.00  0.00    +0.000 A 
BRANCH  12  15
ATOM     15  C   UNL     1       7.989   8.203  17.807  0.00  0.00    +0.000 C 
ATOM     16  F   UNL     1       8.803   8.528  16.763  0.00  0.00    +0.000 F 
ATOM     17  F   UNL     1       7.229   9.309  18.040  0.00  0.00    +0.000 F 
ATOM     18  F   UNL     1       8.808   8.077  18.889  0.00  0.00    +0.000 F 
ENDBRANCH  12  15
ENDBRANCH   8   9
ENDBRANCH   5   8
ENDBRANCH   1   2
BRANCH   1  20
ATOM     19  N   UNL     1       1.147   6.949  20.305  0.00  0.00    +0.000 N 
ATOM     20  C   UNL     1       2.082   5.930  20.374  0.00  0.00    +0.000 C 
ATOM     21  O   UNL     1       3.267   6.040  20.069  0.00  0.00    +0.000 OA
ATOM     22  H   UNL     1       0.282   6.872  20.836  0.00  0.00    +0.000 HD
BRANCH  19  30
ATOM     23  C   UNL     1      -0.167  10.518  22.036  0.00  0.00    +0.000 A 
ATOM     24  C   UNL     1      -0.007  11.741  21.417  0.00  0.00    +0.000 A 
ATOM     25  C   UNL     1       0.641  11.764  20.191  0.00  0.00    +0.000 A 
ATOM     26  C   UNL     1       1.091  10.594  19.608  0.00  0.00    +0.000 A 
ATOM     27  N   UNL     1       1.731  10.692  18.432  0.00  0.00    +0.000 NA
ATOM     28  C   UNL     1       2.166   9.555  17.872  0.00  0.00    +0.000 A 
ATOM     29  C   UNL     1       1.991   8.310  18.439  0.00  0.00    +0.000 A 
ATOM     30  C   UNL     1       1.346   8.213  19.673  0.00  0.00    +0.000 A 
ATOM     31  C   UNL     1       0.857   9.376  20.301  0.00  0.00    +0.000 A 
ATOM     32  N   UNL     1       0.227   9.336  21.504  0.00  0.00    +0.000 NA
BRANCH  23  34
ATOM     33  C   UNL     1      -1.779  11.552  23.353  0.00  0.00    +0.000 C 
ATOM     34  O   UNL     1      -0.777  10.546  23.274  0.00  0.00    +0.000 OA
ENDBRANCH  23  34
ENDBRANCH  19  30
ENDBRANCH   1  20
TORSDOF 7
ENDMDL
MODEL 6
REMARK VINA RESULT:      -8.4      3.964      8.050
REMARK  Name = 
REMARK  8 active torsions:
REMARK  status: ('A' for Active; 'I' for Inactive)
REMARK    1  A    between atoms: C_1  and  O_2
REMARK    2  A    between atoms: O_2  and  C_3
REMARK    3  A    between atoms: C_10  and  N_11
REMARK    4  A    between atoms: C_12  and  C_14
REMARK    5  A    between atoms: C_14  and  C_15
REMARK    6  A    between atoms: N_18  and  C_19
REMARK    7  A    between atoms: C_19  and  C_20
REMARK    8  A    between atoms: C_23  and  C_24
REMARK                            x       y       z     vdW  Elec       q    Type
REMARK                         _______ _______ _______ _____ _____    ______ ____
ROOT
ATOM      1  C   UNL     1       2.533   1.928  18.847  0.00  0.00    +0.000 C 
ENDROOT
BRANCH   1   2
ATOM      2  C   UNL     1       1.392   2.774  19.437  0.00  0.00    +0.000 C 
ATOM      3  C   UNL     1       1.168   4.042  18.594  0.00  0.00    +0.000 C 
ATOM      4  C   UNL     1       1.916   5.276  19.095  0.00  0.00    +0.000 C 
ATOM      5  N   UNL     1       1.594   5.534  20.506  0.00  0.00    +0.000 NA
ATOM      6  C   UNL     1       2.144   4.440  21.316  0.00  0.00    +0.000 C 
ATOM      7  C   UNL     1       1.531   3.084  20.941  0.00  0.00    +0.000 C 
BRANCH   5   8
ATOM      8  C   UNL     1       2.141   6.850  20.897  0.00  0.00    +0.000 C 
BRANCH   8   9
ATOM      9  C   UNL     1       1.306   8.053  20.497  0.00  0.00    +0.000 A 
ATOM     10  C   UNL     1       1.563   8.713  19.286  0.00  0.00    +0.000 A 
ATOM     11  C   UNL     1       0.777   9.794  18.879  0.00  0.00    +0.000 A 
ATOM     12  C   UNL     1      -0.290  10.238  19.672  0.00  0.00    +0.000 A 
ATOM     13  C   UNL     1      -0.552   9.575  20.882  0.00  0.00    +0.000 A 
ATOM     14  C   UNL     1       0.238   8.494  21.289  0.00  0.00    +0.000 A 
BRANCH  12  15
ATOM     15  C   UNL     1      -1.151  11.401  19.240  0.00  0.00    +0.000 C 
ATOM     16  F   UNL     1      -2.316  11.023  18.642  0.00  0.00    +0.000 F 
ATOM     17  F   UNL     1      -1.513  12.199  20.283  0.00  0.00    +0.000 F 
ATOM     18  F   UNL     1      -0.522  12.215  18.346  0.00  0.00    +0.000 F 
ENDBRANCH  12  15
ENDBRANCH   8   9
ENDBRANCH   5   8
ENDBRANCH   1   2
BRANCH   1  20
ATOM     19  N   UNL     1       4.102   3.700  18.160  0.00  0.00    +0.000 N 
ATOM     20  C   UNL     1       3.910   2.562  18.926  0.00  0.00    +0.000 C 
ATOM     21  O   UNL     1       4.750   2.065  19.673  0.00  0.00    +0.000 OA
ATOM     22  H   UNL     1       3.293   4.207  17.805  0.00  0.00    +0.000 HD
BRANCH  19  30
ATOM     23  C   UNL     1       5.715   4.185  14.336  0.00  0.00    +0.000 A 
ATOM     24  C   UNL     1       6.940   4.784  14.123  0.00  0.00    +0.000 A 
ATOM     25  C   UNL     1       7.628   5.260  15.230  0.00  0.00    +0.000 A 
ATOM     26  C   UNL     1       7.105   5.117  16.501  0.00  0.00    +0.000 A 
ATOM     27  N   UNL     1       7.812   5.621  17.524  0.00  0.00    +0.000 NA
ATOM     28  C   UNL     1       7.300   5.481  18.755  0.00  0.00    +0.000 A 
ATOM     29  C   UNL     1       6.098   4.854  19.013  0.00  0.00    +0.000 A 
ATOM     30  C   UNL     1       5.354   4.351  17.945  0.00  0.00    +0.000 A 
ATOM     31  C   UNL     1       5.851   4.460  16.632  0.00  0.00    +0.000 A 
ATOM     32  N   UNL     1       5.163   3.992  15.557  0.00  0.00    +0.000 NA
BRANCH  23  34
ATOM     33  C   UNL     1       5.931   3.239  12.224  0.00  0.00    +0.000 C 
ATOM     34  O   UNL     1       5.046   3.766  13.204  0.00  0.00    +0.000 OA
ENDBRANCH  23  34
ENDBRANCH  19  30
ENDBRANCH   1  20
TORSDOF 7
ENDMDL
MODEL 7
REMARK VINA RESULT:      -8.4      4.197      8.293
REMARK  Name = 
REMARK  8 active torsions:
REMARK  status: ('A' for Active; 'I' for Inactive)
REMARK    1  A    between atoms: C_1  and  O_2
REMARK    2  A    between atoms: O_2  and  C_3
REMARK    3  A    between atoms: C_10  and  N_11
REMARK    4  A    between atoms: C_12  and  C_14
REMARK    5  A    between atoms: C_14  and  C_15
REMARK    6  A    between atoms: N_18  and  C_19
REMARK    7  A    between atoms: C_19  and  C_20
REMARK    8  A    between atoms: C_23  and  C_24
REMARK                            x       y       z     vdW  Elec       q    Type
REMARK                         _______ _______ _______ _____ _____    ______ ____
ROOT
ATOM      1  C   UNL     1       2.711   2.173  19.387  0.00  0.00    +0.000 C 
ENDROOT
BRANCH   1   2
ATOM      2  C   UNL     1       1.603   3.087  19.937  0.00  0.00    +0.000 C 
ATOM      3  C   UNL     1       1.036   3.982  18.821  0.00  0.00    +0.000 C 
ATOM      4  C   UNL     1       1.686   5.361  18.724  0.00  0.00    +0.000 C 
ATOM      5  N   UNL     1       1.622   6.053  20.019  0.00  0.00    +0.000 NA
ATOM      6  C   UNL     1       2.473   5.333  20.974  0.00  0.00    +0.000 C 
ATOM      7  C   UNL     1       1.997   3.890  21.193  0.00  0.00    +0.000 C 
BRANCH   5   8
ATOM      8  C   UNL     1       2.042   7.458  19.842  0.00  0.00    +0.000 C 
BRANCH   8   9
ATOM      9  C   UNL     1       1.198   8.492  20.562  0.00  0.00    +0.000 A 
ATOM     10  C   UNL     1       0.780   9.650  19.888  0.00  0.00    +0.000 A 
ATOM     11  C   UNL     1      -0.036  10.592  20.520  0.00  0.00    +0.000 A 
ATOM     12  C   UNL     1      -0.458  10.397  21.842  0.00  0.00    +0.000 A 
ATOM     13  C   UNL     1      -0.044   9.237  22.517  0.00  0.00    +0.000 A 
ATOM     14  C   UNL     1       0.774   8.295  21.884  0.00  0.00    +0.000 A 
BRANCH  12  15
ATOM     15  C   UNL     1      -1.344  11.404  22.534  0.00  0.00    +0.000 C 
ATOM     16  F   UNL     1      -0.661  12.454  23.069  0.00  0.00    +0.000 F 
ATOM     17  F   UNL     1      -2.266  11.953  21.695  0.00  0.00    +0.000 F 
ATOM     18  F   UNL     1      -2.052  10.860  23.563  0.00  0.00    +0.000 F 
ENDBRANCH  12  15
ENDBRANCH   8   9
ENDBRANCH   5   8
ENDBRANCH   1   2
BRANCH   1  20
ATOM     19  N   UNL     1       4.223   3.935  18.561  0.00  0.00    +0.000 N 
ATOM     20  C   UNL     1       4.094   2.797  19.339  0.00  0.00    +0.000 C 
ATOM     21  O   UNL     1       4.995   2.292  20.005  0.00  0.00    +0.000 OA
ATOM     22  H   UNL     1       3.389   4.449  18.283  0.00  0.00    +0.000 HD
BRANCH  19  30
ATOM     23  C   UNL     1       5.685   4.050  14.647  0.00  0.00    +0.000 A 
ATOM     24  C   UNL     1       6.890   4.640  14.327  0.00  0.00    +0.000 A 
ATOM     25  C   UNL     1       7.611   5.235  15.353  0.00  0.00    +0.000 A 
ATOM     26  C   UNL     1       7.138   5.215  16.652  0.00  0.00    +0.000 A 
ATOM     27  N   UNL     1       7.874   5.830  17.590  0.00  0.00    +0.000 NA
ATOM     28  C   UNL     1       7.410   5.809  18.848  0.00  0.00    +0.000 A 
ATOM     29  C   UNL     1       6.230   5.196  19.215  0.00  0.00    +0.000 A 
ATOM     30  C   UNL     1       5.455   4.577  18.233  0.00  0.00    +0.000 A 
ATOM     31  C   UNL     1       5.902   4.559  16.897  0.00  0.00    +0.000 A 
ATOM     32  N   UNL     1       5.182   3.975  15.903  0.00  0.00    +0.000 NA
BRANCH  23  34
ATOM     33  C   UNL     1       5.767   3.431  12.408  0.00  0.00    +0.000 C 
ATOM     34  O   UNL     1       4.981   3.510  13.591  0.00  0.00    +0.000 OA
ENDBRANCH  23  34
ENDBRANCH  19  30
ENDBRANCH   1  20
TORSDOF 7
ENDMDL
MODEL 8
REMARK VINA RESULT:      -8.3      3.964      5.162
REMARK  Name = 
REMARK  8 active torsions:
REMARK  status: ('A' for Active; 'I' for Inactive)
REMARK    1  A    between atoms: C_1  and  O_2
REMARK    2  A    between atoms: O_2  and  C_3
REMARK    3  A    between atoms: C_10  and  N_11
REMARK    4  A    between atoms: C_12  and  C_14
REMARK    5  A    between atoms: C_14  and  C_15
REMARK    6  A    between atoms: N_18  and  C_19
REMARK    7  A    between atoms: C_19  and  C_20
REMARK    8  A    between atoms: C_23  and  C_24
REMARK                            x       y       z     vdW  Elec       q    Type
REMARK                         _______ _______ _______ _____ _____    ______ ____
ROOT
ATOM      1  C   UNL     1       2.087   8.417  20.312  0.00  0.00    +0.000 C 
ENDROOT
BRANCH   1   2
ATOM      2  C   UNL     1       1.998   7.405  19.158  0.00  0.00    +0.000 C 
ATOM      3  C   UNL     1       2.429   6.006  19.630  0.00  0.00    +0.000 C 
ATOM      4  C   UNL     1       3.900   5.678  19.382  0.00  0.00    +0.000 C 
ATOM      5  N   UNL     1       4.237   5.867  17.964  0.00  0.00    +0.000 NA
ATOM      6  C   UNL     1       4.140   7.298  17.649  0.00  0.00    +0.000 C 
ATOM      7  C   UNL     1       2.720   7.838  17.865  0.00  0.00    +0.000 C 
BRANCH   5   8
ATOM      8  C   UNL     1       5.588   5.327  17.708  0.00  0.00    +0.000 C 
BRANCH   8   9
ATOM      9  C   UNL     1       5.848   4.853  16.291  0.00  0.00    +0.000 A 
ATOM     10  C   UNL     1       4.935   3.996  15.659  0.00  0.00    +0.000 A 
ATOM     11  C   UNL     1       5.134   3.584  14.338  0.00  0.00    +0.000 A 
ATOM     12  C   UNL     1       6.250   4.025  13.615  0.00  0.00    +0.000 A 
ATOM     13  C   UNL     1       7.163   4.887  14.244  0.00  0.00    +0.000 A 
ATOM     14  C   UNL     1       6.964   5.296  15.567  0.00  0.00    +0.000 A 
BRANCH  12  15
ATOM     15  C   UNL     1       6.473   3.592  12.186  0.00  0.00    +0.000 C 
ATOM     16  F   UNL     1       7.146   2.413  12.072  0.00  0.00    +0.000 F 
ATOM     17  F   UNL     1       5.306   3.419  11.504  0.00  0.00    +0.000 F 
ATOM     18  F   UNL     1       7.194   4.500  11.470  0.00  0.00    +0.000 F 
ENDBRANCH  12  15
ENDBRANCH   8   9
ENDBRANCH   5   8
ENDBRANCH   1   2
BRANCH   1  20
ATOM     19  N   UNL     1       0.166   9.769  19.568  0.00  0.00    +0.000 N 
ATOM     20  C   UNL     1       0.793   9.143  20.632  0.00  0.00    +0.000 C 
ATOM     21  O   UNL     1       0.362   9.108  21.783  0.00  0.00    +0.000 OA
ATOM     22  H   UNL     1       0.420   9.513  18.616  0.00  0.00    +0.000 HD
BRANCH  19  30
ATOM     23  C   UNL     1      -2.587  10.212  16.455  0.00  0.00    +0.000 A 
ATOM     24  C   UNL     1      -3.653  11.084  16.532  0.00  0.00    +0.000 A 
ATOM     25  C   UNL     1      -3.814  11.807  17.705  0.00  0.00    +0.000 A 
ATOM     26  C   UNL     1      -2.919  11.665  18.749  0.00  0.00    +0.000 A 
ATOM     27  N   UNL     1      -3.147  12.377  19.864  0.00  0.00    +0.000 NA
ATOM     28  C   UNL     1      -2.277  12.235  20.874  0.00  0.00    +0.000 A 
ATOM     29  C   UNL     1      -1.177  11.405  20.821  0.00  0.00    +0.000 A 
ATOM     30  C   UNL     1      -0.954  10.648  19.669  0.00  0.00    +0.000 A 
ATOM     31  C   UNL     1      -1.831  10.768  18.573  0.00  0.00    +0.000 A 
ATOM     32  N   UNL     1      -1.662  10.050  17.431  0.00  0.00    +0.000 NA
BRANCH  23  34
ATOM     33  C   UNL     1      -3.203  10.088  14.217  0.00  0.00    +0.000 C 
ATOM     34  O   UNL     1      -2.490   9.482  15.288  0.00  0.00    +0.000 OA
ENDBRANCH  23  34
ENDBRANCH  19  30
ENDBRANCH   1  20
TORSDOF 7
ENDMDL
MODEL 9
REMARK VINA RESULT:      -8.3      1.086      1.146
REMARK  Name = 
REMARK  8 active torsions:
REMARK  status: ('A' for Active; 'I' for Inactive)
REMARK    1  A    between atoms: C_1  and  O_2
REMARK    2  A    between atoms: O_2  and  C_3
REMARK    3  A    between atoms: C_10  and  N_11
REMARK    4  A    between atoms: C_12  and  C_14
REMARK    5  A    between atoms: C_14  and  C_15
REMARK    6  A    between atoms: N_18  and  C_19
REMARK    7  A    between atoms: C_19  and  C_20
REMARK    8  A    between atoms: C_23  and  C_24
REMARK                            x       y       z     vdW  Elec       q    Type
REMARK                         _______ _______ _______ _____ _____    ______ ____
ROOT
ATOM      1  C   UNL     1       2.021   4.032  21.447  0.00  0.00    +0.000 C 
ENDROOT
BRANCH   1   2
ATOM      2  C   UNL     1       2.563   2.791  20.720  0.00  0.00    +0.000 C 
ATOM      3  C   UNL     1       4.100   2.831  20.654  0.00  0.00    +0.000 C 
ATOM      4  C   UNL     1       4.664   3.437  19.370  0.00  0.00    +0.000 C 
ATOM      5  N   UNL     1       4.117   2.748  18.193  0.00  0.00    +0.000 NA
ATOM      6  C   UNL     1       2.680   3.035  18.112  0.00  0.00    +0.000 C 
ATOM      7  C   UNL     1       1.922   2.520  19.344  0.00  0.00    +0.000 C 
BRANCH   5   8
ATOM      8  C   UNL     1       4.846   3.193  16.987  0.00  0.00    +0.000 C 
BRANCH   8   9
ATOM      9  C   UNL     1       5.669   4.458  17.146  0.00  0.00    +0.000 A 
ATOM     10  C   UNL     1       5.187   5.676  16.644  0.00  0.00    +0.000 A 
ATOM     11  C   UNL     1       5.908   6.860  16.820  0.00  0.00    +0.000 A 
ATOM     12  C   UNL     1       7.128   6.854  17.509  0.00  0.00    +0.000 A 
ATOM     13  C   UNL     1       7.610   5.637  18.017  0.00  0.00    +0.000 A 
ATOM     14  C   UNL     1       6.888   4.452  17.838  0.00  0.00    +0.000 A 
BRANCH  12  15
ATOM     15  C   UNL     1       7.914   8.128  17.711  0.00  0.00    +0.000 C 
ATOM     16  F   UNL     1       7.131   9.236  17.842  0.00  0.00    +0.000 F 
ATOM     17  F   UNL     1       8.691   8.090  18.830  0.00  0.00    +0.000 F 
ATOM     18  F   UNL     1       8.761   8.392  16.677  0.00  0.00    +0.000 F 
ENDBRANCH  12  15
ENDBRANCH   8   9
ENDBRANCH   5   8
ENDBRANCH   1   2
BRANCH   1  20
ATOM     19  N   UNL     1       2.497   6.055  20.121  0.00  0.00    +0.000 N 
ATOM     20  C   UNL     1       1.536   5.149  20.539  0.00  0.00    +0.000 C 
ATOM     21  O   UNL     1       0.354   5.170  20.204  0.00  0.00    +0.000 OA
ATOM     22  H   UNL     1       3.483   5.811  20.199  0.00  0.00    +0.000 HD
BRANCH  19  30
ATOM     23  C   UNL     1       0.871   9.406  22.017  0.00  0.00    +0.000 A 
ATOM     24  C   UNL     1       0.587  10.572  21.337  0.00  0.00    +0.000 A 
ATOM     25  C   UNL     1       0.887  10.620  19.983  0.00  0.00    +0.000 A 
ATOM     26  C   UNL     1       1.435   9.525  19.342  0.00  0.00    +0.000 A 
ATOM     27  N   UNL     1       1.722   9.648  18.037  0.00  0.00    +0.000 NA
ATOM     28  C   UNL     1       2.254   8.584  17.420  0.00  0.00    +0.000 A 
ATOM     29  C   UNL     1       2.516   7.388  18.055  0.00  0.00    +0.000 A 
ATOM     30  C   UNL     1       2.237   7.269  19.418  0.00  0.00    +0.000 A 
ATOM     31  C   UNL     1       1.666   8.353  20.112  0.00  0.00    +0.000 A 
ATOM     32  N   UNL     1       1.382   8.292  21.440  0.00  0.00    +0.000 NA
BRANCH  23  34
ATOM     33  C   UNL     1      -0.693   9.945  23.650  0.00  0.00    +0.000 C 
ATOM     34  O   UNL     1       0.598   9.416  23.369  0.00  0.00    +0.000 OA
ENDBRANCH  23  34
ENDBRANCH  19  30
ENDBRANCH   1  20
TORSDOF 7
ENDMDL
