MODEL 1
REMARK VINA RESULT:      -8.3      0.000      0.000
REMARK  Name = 
REMARK  8 active torsions:
REMARK  status: ('A' for Active; 'I' for Inactive)
REMARK    1  A    between atoms: C_1  and  O_2
REMARK    2  A    between atoms: O_2  and  C_3
REMARK    3  A    between atoms: C_8  and  C_9
REMARK    4  A    between atoms: C_10  and  N_11
REMARK    5  A    between atoms: C_12  and  C_14
REMARK    6  A    between atoms: C_14  and  C_15
REMARK    7  A    between atoms: C_14  and  C_16
REMARK    8  A    between atoms: N_17  and  C_18
REMARK                            x       y       z     vdW  Elec       q    Type
REMARK                         _______ _______ _______ _____ _____    ______ ____
ROOT
ATOM      1  C   UNL     1       2.783   6.248  19.356  0.00  0.00    +0.000 A 
ATOM      2  C   UNL     1       3.419   5.787  18.262  0.00  0.00    +0.000 A 
ATOM      3  N   UNL     1       2.773   4.708  17.585  0.00  0.00    +0.000 N 
ATOM      4  C   UNL     1       1.276   4.756  17.433  0.00  0.00    +0.000 C 
ATOM      5  C   UNL     1       2.997   3.521  18.353  0.00  0.00    +0.000 A 
ATOM      6  C   UNL     1       3.232   2.303  17.716  0.00  0.00    +0.000 A 
ATOM      7  C   UNL     1       3.784   1.272  18.458  0.00  0.00    +0.000 A 
ATOM      8  C   UNL     1       4.076   1.469  19.817  0.00  0.00    +0.000 A 
ATOM      9  C   UNL     1       3.711   2.659  20.481  0.00  0.00    +0.000 A 
ATOM     10  C   UNL     1       3.127   3.690  19.751  0.00  0.00    +0.000 A 
ATOM     11  C   UNL     1       2.665   5.043  20.310  0.00  0.00    +0.000 A 
ATOM     12  O   UNL     1       2.208   5.083  21.449  0.00  0.00    +0.000 OA
ENDROOT
BRANCH   1  18
ATOM     13  C   UNL     1       1.473   8.290  20.199  0.00  0.00    +0.000 A 
ATOM     14  C   UNL     1       0.712   9.421  19.839  0.00  0.00    +0.000 A 
ATOM     15  C   UNL     1       0.833  10.008  18.579  0.00  0.00    +0.000 A 
ATOM     16  C   UNL     1       1.767   9.504  17.691  0.00  0.00    +0.000 A 
ATOM     17  C   UNL     1       2.439   8.336  18.025  0.00  0.00    +0.000 A 
ATOM     18  C   UNL     1       2.237   7.625  19.254  0.00  0.00    +0.000 A 
BRANCH  13  20
ATOM     19  C   UNL     1       1.080   9.090  22.325  0.00  0.00    +0.000 C 
ATOM     20  O   UNL     1       1.458   7.953  21.529  0.00  0.00    +0.000 OA
ENDBRANCH  13  20
ENDBRANCH   1  18
BRANCH   2  21
ATOM     21  N   UNL     1       4.827   5.892  18.305  0.00  0.00    +0.000 N 
ATOM     22  C   UNL     1       5.622   6.322  17.237  0.00  0.00    +0.000 C 
ATOM     23  O   UNL     1       5.221   6.527  16.088  0.00  0.00    +0.000 OA
ATOM     24  H   UNL     1       5.231   5.769  19.224  0.00  0.00    +0.000 HD
BRANCH  22  25
ATOM     25  C   UNL     1       7.094   6.584  17.501  0.00  0.00    +0.000 C 
ATOM     26  C   UNL     1       7.458   8.061  17.450  0.00  0.00    +0.000 C 
ATOM     27  C   UNL     1       7.567   5.881  18.758  0.00  0.00    +0.000 C 
ENDBRANCH  22  25
ENDBRANCH   2  21
TORSDOF 4
ENDMDL
MODEL 2
REMARK VINA RESULT:      -6.8      2.530      4.743
REMARK  Name = 
REMARK  8 active torsions:
REMARK  status: ('A' for Active; 'I' for Inactive)
REMARK    1  A    between atoms: C_1  and  O_2
REMARK    2  A    between atoms: O_2  and  C_3
REMARK    3  A    between atoms: C_8  and  C_9
REMARK    4  A    between atoms: C_10  and  N_11
REMARK    5  A    between atoms: C_12  and  C_14
REMARK    6  A    between atoms: C_14  and  C_15
REMARK    7  A    between atoms: C_14  and  C_16
REMARK    8  A    between atoms: N_17  and  C_18
REMARK                            x       y       z     vdW  Elec       q    Type
REMARK                         _______ _______ _______ _____ _____    ______ ____
ROOT
ATOM      1  C   UNL     1       5.565   5.153  17.988  0.00  0.00    +0.000 A 
ATOM      2  C   UNL     1       4.639   5.257  17.016  0.00  0.00    +0.000 A 
ATOM      3  N   UNL     1       3.322   5.589  17.455  0.00  0.00    +0.000 N 
ATOM      4  C   UNL     1       3.170   6.622  18.540  0.00  0.00    +0.000 C 
ATOM      5  C   UNL     1       2.748   4.409  18.028  0.00  0.00    +0.000 A 
ATOM      6  C   UNL     1       1.400   4.114  17.833  0.00  0.00    +0.000 A 
ATOM      7  C   UNL     1       0.969   2.823  18.091  0.00  0.00    +0.000 A 
ATOM      8  C   UNL     1       1.881   1.860  18.549  0.00  0.00    +0.000 A 
ATOM      9  C   UNL     1       3.211   2.205  18.870  0.00  0.00    +0.000 A 
ATOM     10  C   UNL     1       3.647   3.507  18.644  0.00  0.00    +0.000 A 
ATOM     11  C   UNL     1       5.051   4.054  18.939  0.00  0.00    +0.000 A 
ATOM     12  O   UNL     1       5.660   3.617  19.912  0.00  0.00    +0.000 OA
ENDROOT
BRANCH   1  18
ATOM     13  C   UNL     1       7.802   6.183  18.720  0.00  0.00    +0.000 A 
ATOM     14  C   UNL     1       8.534   7.371  18.911  0.00  0.00    +0.000 A 
ATOM     15  C   UNL     1       8.208   8.545  18.228  0.00  0.00    +0.000 A 
ATOM     16  C   UNL     1       7.182   8.516  17.300  0.00  0.00    +0.000 A 
ATOM     17  C   UNL     1       6.412   7.367  17.194  0.00  0.00    +0.000 A 
ATOM     18  C   UNL     1       6.630   6.187  17.981  0.00  0.00    +0.000 A 
BRANCH  13  20
ATOM     19  C   UNL     1       8.577   5.201  20.656  0.00  0.00    +0.000 C 
ATOM     20  O   UNL     1       8.357   5.042  19.243  0.00  0.00    +0.000 OA
ENDBRANCH  13  20
ENDBRANCH   1  18
BRANCH   2  21
ATOM     21  N   UNL     1       4.855   4.420  15.899  0.00  0.00    +0.000 N 
ATOM     22  C   UNL     1       5.452   4.832  14.702  0.00  0.00    +0.000 C 
ATOM     23  O   UNL     1       5.736   5.998  14.413  0.00  0.00    +0.000 OA
ATOM     24  H   UNL     1       4.675   3.439  16.066  0.00  0.00    +0.000 HD
BRANCH  22  25
ATOM     25  C   UNL     1       5.806   3.771  13.676  0.00  0.00    +0.000 C 
ATOM     26  C   UNL     1       4.699   3.525  12.661  0.00  0.00    +0.000 C 
ATOM     27  C   UNL     1       7.162   4.033  13.051  0.00  0.00    +0.000 C 
ENDBRANCH  22  25
ENDBRANCH   2  21
TORSDOF 4
ENDMDL
MODEL 3
REMARK VINA RESULT:      -6.8      2.245      5.185
REMARK  Name = 
REMARK  8 active torsions:
REMARK  status: ('A' for Active; 'I' for Inactive)
REMARK    1  A    between atoms: C_1  and  O_2
REMARK    2  A    between atoms: O_2  and  C_3
REMARK    3  A    between atoms: C_8  and  C_9
REMARK    4  A    between atoms: C_10  and  N_11
REMARK    5  A    between atoms: C_12  and  C_14
REMARK    6  A    between atoms: C_14  and  C_15
REMARK    7  A    between atoms: C_14  and  C_16
REMARK    8  A    between atoms: N_17  and  C_18
REMARK                            x       y       z     vdW  Elec       q    Type
REMARK                         _______ _______ _______ _____ _____    ______ ____
ROOT
ATOM      1  C   UNL     1       4.192   4.035  17.733  0.00  0.00    +0.000 A 
ATOM      2  C   UNL     1       4.393   4.434  19.003  0.00  0.00    +0.000 A 
ATOM      3  N   UNL     1       4.389   3.395  19.982  0.00  0.00    +0.000 N 
ATOM      4  C   UNL     1       5.073   2.097  19.648  0.00  0.00    +0.000 C 
ATOM      5  C   UNL     1       3.026   3.013  20.200  0.00  0.00    +0.000 A 
ATOM      6  C   UNL     1       2.581   2.689  21.481  0.00  0.00    +0.000 A 
ATOM      7  C   UNL     1       1.216   2.670  21.714  0.00  0.00    +0.000 A 
ATOM      8  C   UNL     1       0.325   2.960  20.668  0.00  0.00    +0.000 A 
ATOM      9  C   UNL     1       0.782   3.154  19.348  0.00  0.00    +0.000 A 
ATOM     10  C   UNL     1       2.151   3.144  19.097  0.00  0.00    +0.000 A 
ATOM     11  C   UNL     1       2.819   3.332  17.728  0.00  0.00    +0.000 A 
ATOM     12  O   UNL     1       2.251   2.895  16.731  0.00  0.00    +0.000 OA
ENDROOT
BRANCH   1  18
ATOM     13  C   UNL     1       6.602   4.688  17.130  0.00  0.00    +0.000 A 
ATOM     14  C   UNL     1       7.474   5.130  16.115  0.00  0.00    +0.000 A 
ATOM     15  C   UNL     1       7.184   4.921  14.765  0.00  0.00    +0.000 A 
ATOM     16  C   UNL     1       6.046   4.211  14.426  0.00  0.00    +0.000 A 
ATOM     17  C   UNL     1       5.153   3.867  15.431  0.00  0.00    +0.000 A 
ATOM     18  C   UNL     1       5.349   4.188  16.815  0.00  0.00    +0.000 A 
BRANCH  13  20
ATOM     19  C   UNL     1       7.705   6.000  18.671  0.00  0.00    +0.000 C 
ATOM     20  O   UNL     1       7.100   4.722  18.408  0.00  0.00    +0.000 OA
ENDBRANCH  13  20
ENDBRANCH   1  18
BRANCH   2  21
ATOM     21  N   UNL     1       3.913   5.729  19.301  0.00  0.00    +0.000 N 
ATOM     22  C   UNL     1       3.416   6.629  18.352  0.00  0.00    +0.000 C 
ATOM     23  O   UNL     1       3.462   6.470  17.129  0.00  0.00    +0.000 OA
ATOM     24  H   UNL     1       3.816   5.925  20.288  0.00  0.00    +0.000 HD
BRANCH  22  25
ATOM     25  C   UNL     1       2.744   7.895  18.849  0.00  0.00    +0.000 C 
ATOM     26  C   UNL     1       2.003   8.651  17.755  0.00  0.00    +0.000 C 
ATOM     27  C   UNL     1       1.906   7.632  20.084  0.00  0.00    +0.000 C 
ENDBRANCH  22  25
ENDBRANCH   2  21
TORSDOF 4
ENDMDL
MODEL 4
REMARK VINA RESULT:      -6.7      3.658      8.090
REMARK  Name = 
REMARK  8 active torsions:
REMARK  status: ('A' for Active; 'I' for Inactive)
REMARK    1  A    between atoms: C_1  and  O_2
REMARK    2  A    between atoms: O_2  and  C_3
REMARK    3  A    between atoms: C_8  and  C_9
REMARK    4  A    between atoms: C_10  and  N_11
REMARK    5  A    between atoms: C_12  and  C_14
REMARK    6  A    between atoms: C_14  and  C_15
REMARK    7  A    between atoms: C_14  and  C_16
REMARK    8  A    between atoms: N_17  and  C_18
REMARK                            x       y       z     vdW  Elec       q    Type
REMARK                         _______ _______ _______ _____ _____    ______ ____
ROOT
ATOM      1  C   UNL     1       0.552   9.449  20.216  0.00  0.00    +0.000 A 
ATOM      2  C   UNL     1      -0.038  10.442  19.524  0.00  0.00    +0.000 A 
ATOM      3  N   UNL     1       0.396  11.762  19.852  0.00  0.00    +0.000 N 
ATOM      4  C   UNL     1       1.864  11.991  20.094  0.00  0.00    +0.000 C 
ATOM      5  C   UNL     1      -0.213  12.119  21.098  0.00  0.00    +0.000 A 
ATOM      6  C   UNL     1      -0.664  13.420  21.316  0.00  0.00    +0.000 A 
ATOM      7  C   UNL     1      -1.545  13.641  22.361  0.00  0.00    +0.000 A 
ATOM      8  C   UNL     1      -1.945  12.570  23.175  0.00  0.00    +0.000 A 
ATOM      9  C   UNL     1      -1.379  11.286  23.029  0.00  0.00    +0.000 A 
ATOM     10  C   UNL     1      -0.469  11.060  22.000  0.00  0.00    +0.000 A 
ATOM     11  C   UNL     1       0.245   9.735  21.700  0.00  0.00    +0.000 A 
ATOM     12  O   UNL     1       0.552   9.006  22.640  0.00  0.00    +0.000 OA
ENDROOT
BRANCH   1  18
ATOM     13  C   UNL     1       1.978   7.345  19.848  0.00  0.00    +0.000 A 
ATOM     14  C   UNL     1       3.078   6.782  19.171  0.00  0.00    +0.000 A 
ATOM     15  C   UNL     1       3.546   7.319  17.970  0.00  0.00    +0.000 A 
ATOM     16  C   UNL     1       2.870   8.387  17.406  0.00  0.00    +0.000 A 
ATOM     17  C   UNL     1       1.850   8.986  18.130  0.00  0.00    +0.000 A 
ATOM     18  C   UNL     1       1.434   8.549  19.432  0.00  0.00    +0.000 A 
BRANCH  13  20
ATOM     19  C   UNL     1       1.833   5.217  20.723  0.00  0.00    +0.000 C 
ATOM     20  O   UNL     1       1.455   6.597  20.872  0.00  0.00    +0.000 OA
ENDBRANCH  13  20
ENDBRANCH   1  18
BRANCH   2  21
ATOM     21  N   UNL     1      -1.369  10.181  19.128  0.00  0.00    +0.000 N 
ATOM     22  C   UNL     1      -2.044  10.870  18.115  0.00  0.00    +0.000 C 
ATOM     23  O   UNL     1      -1.626  11.877  17.538  0.00  0.00    +0.000 OA
ATOM     24  H   UNL     1      -1.773   9.348  19.535  0.00  0.00    +0.000 HD
BRANCH  22  25
ATOM     25  C   UNL     1      -3.391  10.336  17.662  0.00  0.00    +0.000 C 
ATOM     26  C   UNL     1      -4.551  11.255  18.017  0.00  0.00    +0.000 C 
ATOM     27  C   UNL     1      -3.363   9.922  16.204  0.00  0.00    +0.000 C 
ENDBRANCH  22  25
ENDBRANCH   2  21
TORSDOF 4
ENDMDL
MODEL 5
REMARK VINA RESULT:      -6.6      4.775      9.328
REMARK  Name = 
REMARK  8 active torsions:
REMARK  status: ('A' for Active; 'I' for Inactive)
REMARK    1  A    between atoms: C_1  and  O_2
REMARK    2  A    between atoms: O_2  and  C_3
REMARK    3  A    between atoms: C_8  and  C_9
REMARK    4  A    between atoms: C_10  and  N_11
REMARK    5  A    between atoms: C_12  and  C_14
REMARK    6  A    between atoms: C_14  and  C_15
REMARK    7  A    between atoms: C_14  and  C_16
REMARK    8  A    between atoms: N_17  and  C_18
REMARK                            x       y       z     vdW  Elec       q    Type
REMARK                         _______ _______ _______ _____ _____    ______ ____
ROOT
ATOM      1  C   UNL     1       0.049  11.632  19.689  0.00  0.00    +0.000 A 
ATOM      2  C   UNL     1      -0.409  12.259  18.589  0.00  0.00    +0.000 A 
ATOM      3  N   UNL     1       0.339  13.403  18.175  0.00  0.00    +0.000 N 
ATOM      4  C   UNL     1       1.842  13.335  18.244  0.00  0.00    +0.000 C 
ATOM      5  C   UNL     1       0.009  14.477  19.062  0.00  0.00    +0.000 A 
ATOM      6  C   UNL     1      -0.118  15.778  18.576  0.00  0.00    +0.000 A 
ATOM      7  C   UNL     1      -0.770  16.711  19.366  0.00  0.00    +0.000 A 
ATOM      8  C   UNL     1      -1.268  16.335  20.624  0.00  0.00    +0.000 A 
ATOM      9  C   UNL     1      -1.016  15.055  21.159  0.00  0.00    +0.000 A 
ATOM     10  C   UNL     1      -0.334  14.119  20.387  0.00  0.00    +0.000 A 
ATOM     11  C   UNL     1       0.029  12.689  20.811  0.00  0.00    +0.000 A 
ATOM     12  O   UNL     1       0.306  12.478  21.988  0.00  0.00    +0.000 OA
ENDROOT
BRANCH   1  18
ATOM     13  C   UNL     1       0.680   9.249  20.410  0.00  0.00    +0.000 A 
ATOM     14  C   UNL     1       1.544   8.155  20.202  0.00  0.00    +0.000 A 
ATOM     15  C   UNL     1       2.206   7.971  18.986  0.00  0.00    +0.000 A 
ATOM     16  C   UNL     1       1.956   8.851  17.948  0.00  0.00    +0.000 A 
ATOM     17  C   UNL     1       1.179   9.972  18.198  0.00  0.00    +0.000 A 
ATOM     18  C   UNL     1       0.596  10.268  19.476  0.00  0.00    +0.000 A 
BRANCH  13  20
ATOM     19  C   UNL     1       0.723   9.257  22.715  0.00  0.00    +0.000 C 
ATOM     20  O   UNL     1      -0.100   9.194  21.537  0.00  0.00    +0.000 OA
ENDBRANCH  13  20
ENDBRANCH   1  18
BRANCH   2  21
ATOM     21  N   UNL     1      -1.808  12.188  18.404  0.00  0.00    +0.000 N 
ATOM     22  C   UNL     1      -2.462  11.191  17.673  0.00  0.00    +0.000 C 
ATOM     23  O   UNL     1      -1.904  10.333  16.982  0.00  0.00    +0.000 OA
ATOM     24  H   UNL     1      -2.340  12.841  18.965  0.00  0.00    +0.000 HD
BRANCH  22  25
ATOM     25  C   UNL     1      -3.977  11.129  17.742  0.00  0.00    +0.000 C 
ATOM     26  C   UNL     1      -4.554  11.881  18.932  0.00  0.00    +0.000 C 
ATOM     27  C   UNL     1      -4.609  11.505  16.416  0.00  0.00    +0.000 C 
ENDBRANCH  22  25
ENDBRANCH   2  21
TORSDOF 4
ENDMDL
MODEL 6
REMARK VINA RESULT:      -6.6      6.938      9.652
REMARK  Name = 
REMARK  8 active torsions:
REMARK  status: ('A' for Active; 'I' for Inactive)
REMARK    1  A    between atoms: C_1  and  O_2
REMARK    2  A    between atoms: O_2  and  C_3
REMARK    3  A    between atoms: C_8  and  C_9
REMARK    4  A    between atoms: C_10  and  N_11
REMARK    5  A    between atoms: C_12  and  C_14
REMARK    6  A    between atoms: C_14  and  C_15
REMARK    7  A    between atoms: C_14  and  C_16
REMARK    8  A    between atoms: N_17  and  C_18
REMARK                            x       y       z     vdW  Elec       q    Type
REMARK                         _______ _______ _______ _____ _____    ______ ____
ROOT
ATOM      1  C   UNL     1      -2.107  12.961  20.838  0.00  0.00    +0.000 A 
ATOM      2  C   UNL     1      -1.840  11.947  19.992  0.00  0.00    +0.000 A 
ATOM      3  N   UNL     1      -0.600  11.274  20.211  0.00  0.00    +0.000 N 
ATOM      4  C   UNL     1      -0.179  10.996  21.629  0.00  0.00    +0.000 C 
ATOM      5  C   UNL     1       0.442  12.116  19.707  0.00  0.00    +0.000 A 
ATOM      6  C   UNL     1       1.542  11.562  19.052  0.00  0.00    +0.000 A 
ATOM      7  C   UNL     1       2.335  12.397  18.284  0.00  0.00    +0.000 A 
ATOM      8  C   UNL     1       2.028  13.764  18.194  0.00  0.00    +0.000 A 
ATOM      9  C   UNL     1       0.994  14.336  18.966  0.00  0.00    +0.000 A 
ATOM     10  C   UNL     1       0.211  13.510  19.766  0.00  0.00    +0.000 A 
ATOM     11  C   UNL     1      -0.945  13.961  20.671  0.00  0.00    +0.000 A 
ATOM     12  O   UNL     1      -0.868  15.055  21.222  0.00  0.00    +0.000 OA
ENDROOT
BRANCH   1  18
ATOM     13  C   UNL     1      -4.594  12.805  21.461  0.00  0.00    +0.000 A 
ATOM     14  C   UNL     1      -5.555  12.957  22.480  0.00  0.00    +0.000 A 
ATOM     15  C   UNL     1      -5.204  12.879  23.829  0.00  0.00    +0.000 A 
ATOM     16  C   UNL     1      -3.894  12.583  24.164  0.00  0.00    +0.000 A 
ATOM     17  C   UNL     1      -2.945  12.531  23.154  0.00  0.00    +0.000 A 
ATOM     18  C   UNL     1      -3.244  12.746  21.767  0.00  0.00    +0.000 A 
BRANCH  13  20
ATOM     19  C   UNL     1      -6.457  13.077  20.131  0.00  0.00    +0.000 C 
ATOM     20  O   UNL     1      -5.084  12.652  20.188  0.00  0.00    +0.000 OA
ENDBRANCH  13  20
ENDBRANCH   1  18
BRANCH   2  21
ATOM     21  N   UNL     1      -2.377  12.100  18.694  0.00  0.00    +0.000 N 
ATOM     22  C   UNL     1      -2.651  11.043  17.820  0.00  0.00    +0.000 C 
ATOM     23  O   UNL     1      -2.334   9.865  18.006  0.00  0.00    +0.000 OA
ATOM     24  H   UNL     1      -2.693  13.036  18.477  0.00  0.00    +0.000 HD
BRANCH  22  25
ATOM     25  C   UNL     1      -3.420  11.347  16.548  0.00  0.00    +0.000 C 
ATOM     26  C   UNL     1      -3.128  10.367  15.421  0.00  0.00    +0.000 C 
ATOM     27  C   UNL     1      -4.899  11.538  16.824  0.00  0.00    +0.000 C 
ENDBRANCH  22  25
ENDBRANCH   2  21
TORSDOF 4
ENDMDL
MODEL 7
REMARK VINA RESULT:      -6.5      5.080      9.462
REMARK  Name = 
REMARK  8 active torsions:
REMARK  status: ('A' for Active; 'I' for Inactive)
REMARK    1  A    between atoms: C_1  and  O_2
REMARK    2  A    between atoms: O_2  and  C_3
REMARK    3  A    between atoms: C_8  and  C_9
REMARK    4  A    between atoms: C_10  and  N_11
REMARK    5  A    between atoms: C_12  and  C_14
REMARK    6  A    between atoms: C_14  and  C_15
REMARK    7  A    between atoms: C_14  and  C_16
REMARK    8  A    between atoms: N_17  and  C_18
REMARK                            x       y       z     vdW  Elec       q    Type
REMARK                         _______ _______ _______ _____ _____    ______ ____
ROOT
ATOM      1  C   UNL     1      -0.366  11.887  19.833  0.00  0.00    +0.000 A 
ATOM      2  C   UNL     1      -0.484  12.454  18.617  0.00  0.00    +0.000 A 
ATOM      3  N   UNL     1       0.378  13.565  18.370  0.00  0.00    +0.000 N 
ATOM      4  C   UNL     1       1.800  13.488  18.860  0.00  0.00    +0.000 C 
ATOM      5  C   UNL     1      -0.160  14.692  19.071  0.00  0.00    +0.000 A 
ATOM      6  C   UNL     1      -0.115  15.964  18.502  0.00  0.00    +0.000 A 
ATOM      7  C   UNL     1      -0.937  16.946  19.027  0.00  0.00    +0.000 A 
ATOM      8  C   UNL     1      -1.775  16.648  20.114  0.00  0.00    +0.000 A 
ATOM      9  C   UNL     1      -1.714  15.398  20.765  0.00  0.00    +0.000 A 
ATOM     10  C   UNL     1      -0.867  14.414  20.264  0.00  0.00    +0.000 A 
ATOM     11  C   UNL     1      -0.672  13.007  20.847  0.00  0.00    +0.000 A 
ATOM     12  O   UNL     1      -0.739  12.861  22.064  0.00  0.00    +0.000 OA
ENDROOT
BRANCH   1  18
ATOM     13  C   UNL     1       0.150   9.613  20.909  0.00  0.00    +0.000 A 
ATOM     14  C   UNL     1       1.018   8.503  20.937  0.00  0.00    +0.000 A 
ATOM     15  C   UNL     1       1.812   8.171  19.837  0.00  0.00    +0.000 A 
ATOM     16  C   UNL     1       1.691   8.915  18.677  0.00  0.00    +0.000 A 
ATOM     17  C   UNL     1       0.904  10.057  18.697  0.00  0.00    +0.000 A 
ATOM     18  C   UNL     1       0.185  10.508  19.853  0.00  0.00    +0.000 A 
BRANCH  13  20
ATOM     19  C   UNL     1      -0.081   9.557  23.202  0.00  0.00    +0.000 C 
ATOM     20  O   UNL     1      -0.754   9.697  21.938  0.00  0.00    +0.000 OA
ENDBRANCH  13  20
ENDBRANCH   1  18
BRANCH   2  21
ATOM     21  N   UNL     1      -1.777  12.385  18.053  0.00  0.00    +0.000 N 
ATOM     22  C   UNL     1      -2.247  11.322  17.275  0.00  0.00    +0.000 C 
ATOM     23  O   UNL     1      -1.561  10.382  16.865  0.00  0.00    +0.000 OA
ATOM     24  H   UNL     1      -2.413  13.106  18.368  0.00  0.00    +0.000 HD
BRANCH  22  25
ATOM     25  C   UNL     1      -3.722  11.293  16.918  0.00  0.00    +0.000 C 
ATOM     26  C   UNL     1      -4.000  10.658  15.564  0.00  0.00    +0.000 C 
ATOM     27  C   UNL     1      -4.556  10.718  18.046  0.00  0.00    +0.000 C 
ENDBRANCH  22  25
ENDBRANCH   2  21
TORSDOF 4
ENDMDL
MODEL 8
REMARK VINA RESULT:      -6.4      4.262      8.724
REMARK  Name = 
REMARK  8 active torsions:
REMARK  status: ('A' for Active; 'I' for Inactive)
REMARK    1  A    between atoms: C_1  and  O_2
REMARK    2  A    between atoms: O_2  and  C_3
REMARK    3  A    between atoms: C_8  and  C_9
REMARK    4  A    between atoms: C_10  and  N_11
REMARK    5  A    between atoms: C_12  and  C_14
REMARK    6  A    between atoms: C_14  and  C_15
REMARK    7  A    between atoms: C_14  and  C_16
REMARK    8  A    between atoms: N_17  and  C_18
REMARK                            x       y       z     vdW  Elec       q    Type
REMARK                         _______ _______ _______ _____ _____    ______ ____
ROOT
ATOM      1  C   UNL     1      -0.013  10.101  20.704  0.00  0.00    +0.000 A 
ATOM      2  C   UNL     1      -0.547  11.129  20.018  0.00  0.00    +0.000 A 
ATOM      3  N   UNL     1      -0.194  12.430  20.488  0.00  0.00    +0.000 N 
ATOM      4  C   UNL     1       1.228  12.672  20.920  0.00  0.00    +0.000 C 
ATOM      5  C   UNL     1      -0.955  12.681  21.674  0.00  0.00    +0.000 A 
ATOM      6  C   UNL     1      -1.468  13.953  21.928  0.00  0.00    +0.000 A 
ATOM      7  C   UNL     1      -2.472  14.077  22.874  0.00  0.00    +0.000 A 
ATOM      8  C   UNL     1      -2.933  12.940  23.557  0.00  0.00    +0.000 A 
ATOM      9  C   UNL     1      -2.315  11.683  23.389  0.00  0.00    +0.000 A 
ATOM     10  C   UNL     1      -1.284  11.554  22.463  0.00  0.00    +0.000 A 
ATOM     11  C   UNL     1      -0.500  10.269  22.157  0.00  0.00    +0.000 A 
ATOM     12  O   UNL     1      -0.284   9.480  23.073  0.00  0.00    +0.000 OA
ENDROOT
BRANCH   1  18
ATOM     13  C   UNL     1       1.386   9.439  18.654  0.00  0.00    +0.000 A 
ATOM     14  C   UNL     1       2.036   8.391  17.971  0.00  0.00    +0.000 A 
ATOM     15  C   UNL     1       2.448   7.234  18.636  0.00  0.00    +0.000 A 
ATOM     16  C   UNL     1       2.268   7.149  20.005  0.00  0.00    +0.000 A 
ATOM     17  C   UNL     1       1.544   8.145  20.644  0.00  0.00    +0.000 A 
ATOM     18  C   UNL     1       0.983   9.280  19.969  0.00  0.00    +0.000 A 
BRANCH  13  20
ATOM     19  C   UNL     1       2.509  11.317  17.929  0.00  0.00    +0.000 C 
ATOM     20  O   UNL     1       1.253  10.617  17.963  0.00  0.00    +0.000 OA
ENDBRANCH  13  20
ENDBRANCH   1  18
BRANCH   2  21
ATOM     21  N   UNL     1      -1.813  10.869  19.449  0.00  0.00    +0.000 N 
ATOM     22  C   UNL     1      -2.229  11.331  18.195  0.00  0.00    +0.000 C 
ATOM     23  O   UNL     1      -1.610  12.134  17.491  0.00  0.00    +0.000 OA
ATOM     24  H   UNL     1      -2.370  10.192  19.953  0.00  0.00    +0.000 HD
BRANCH  22  25
ATOM     25  C   UNL     1      -3.531  10.795  17.631  0.00  0.00    +0.000 C 
ATOM     26  C   UNL     1      -4.728  11.684  17.936  0.00  0.00    +0.000 C 
ATOM     27  C   UNL     1      -3.395  10.435  16.164  0.00  0.00    +0.000 C 
ENDBRANCH  22  25
ENDBRANCH   2  21
TORSDOF 4
ENDMDL
MODEL 9
REMARK VINA RESULT:      -6.4      4.708      7.343
REMARK  Name = 
REMARK  8 active torsions:
REMARK  status: ('A' for Active; 'I' for Inactive)
REMARK    1  A    between atoms: C_1  and  O_2
REMARK    2  A    between atoms: O_2  and  C_3
REMARK    3  A    between atoms: C_8  and  C_9
REMARK    4  A    between atoms: C_10  and  N_11
REMARK    5  A    between atoms: C_12  and  C_14
REMARK    6  A    between atoms: C_14  and  C_15
REMARK    7  A    between atoms: C_14  and  C_16
REMARK    8  A    between atoms: N_17  and  C_18
REMARK                            x       y       z     vdW  Elec       q    Type
REMARK                         _______ _______ _______ _____ _____    ______ ____
ROOT
ATOM      1  C   UNL     1      -0.293  11.570  21.527  0.00  0.00    +0.000 A 
ATOM      2  C   UNL     1       0.242  12.008  20.371  0.00  0.00    +0.000 A 
ATOM      3  N   UNL     1      -0.229  11.358  19.190  0.00  0.00    +0.000 N 
ATOM      4  C   UNL     1      -1.697  11.038  19.088  0.00  0.00    +0.000 C 
ATOM      5  C   UNL     1       0.402  10.074  19.125  0.00  0.00    +0.000 A 
ATOM      6  C   UNL     1       0.814   9.552  17.899  0.00  0.00    +0.000 A 
ATOM      7  C   UNL     1       1.716   8.502  17.905  0.00  0.00    +0.000 A 
ATOM      8  C   UNL     1       2.177   7.984  19.125  0.00  0.00    +0.000 A 
ATOM      9  C   UNL     1       1.652   8.430  20.356  0.00  0.00    +0.000 A 
ATOM     10  C   UNL     1       0.722   9.465  20.360  0.00  0.00    +0.000 A 
ATOM     11  C   UNL     1       0.047  10.068  21.601  0.00  0.00    +0.000 A 
ATOM     12  O   UNL     1      -0.207   9.330  22.549  0.00  0.00    +0.000 OA
ENDROOT
BRANCH   1  18
ATOM     13  C   UNL     1      -0.767  13.675  22.921  0.00  0.00    +0.000 A 
ATOM     14  C   UNL     1      -1.622  14.287  23.859  0.00  0.00    +0.000 A 
ATOM     15  C   UNL     1      -2.948  13.877  24.012  0.00  0.00    +0.000 A 
ATOM     16  C   UNL     1      -3.444  12.891  23.177  0.00  0.00    +0.000 A 
ATOM     17  C   UNL     1      -2.567  12.235  22.326  0.00  0.00    +0.000 A 
ATOM     18  C   UNL     1      -1.166  12.534  22.243  0.00  0.00    +0.000 A 
BRANCH  13  20
ATOM     19  C   UNL     1       0.180  15.634  22.161  0.00  0.00    +0.000 C 
ATOM     20  O   UNL     1       0.422  14.315  22.682  0.00  0.00    +0.000 OA
ENDBRANCH  13  20
ENDBRANCH   1  18
BRANCH   2  21
ATOM     21  N   UNL     1       1.568  12.482  20.472  0.00  0.00    +0.000 N 
ATOM     22  C   UNL     1       2.088  13.550  19.733  0.00  0.00    +0.000 C 
ATOM     23  O   UNL     1       1.509  14.122  18.805  0.00  0.00    +0.000 OA
ATOM     24  H   UNL     1       2.101  12.083  21.235  0.00  0.00    +0.000 HD
BRANCH  22  25
ATOM     25  C   UNL     1       3.462  14.076  20.104  0.00  0.00    +0.000 C 
ATOM     26  C   UNL     1       3.858  15.322  19.324  0.00  0.00    +0.000 C 
ATOM     27  C   UNL     1       3.616  14.221  21.605  0.00  0.00    +0.000 C 
ENDBRANCH  22  25
ENDBRANCH   2  21
TORSDOF 4
ENDMDL
