MODEL 1
REMARK VINA RESULT:      -7.6      0.000      0.000
REMARK  Name = 
REMARK  8 active torsions:
REMARK  status: ('A' for Active; 'I' for Inactive)
REMARK    1  A    between atoms: C_1  and  O_2
REMARK    2  A    between atoms: O_2  and  C_3
REMARK    3  A    between atoms: C_5  and  C_6
REMARK    4  A    between atoms: N_8  and  C_9
REMARK    5  A    between atoms: C_18  and  O_19
REMARK    6  A    between atoms: O_19  and  C_20
REMARK    7  A    between atoms: C_21  and  O_22
REMARK    8  A    between atoms: O_22  and  C_23
REMARK                            x       y       z     vdW  Elec       q    Type
REMARK                         _______ _______ _______ _____ _____    ______ ____
ROOT
ATOM      1  C   UNL     1       7.005   5.727  15.855  0.00  0.00    +0.000 A 
ATOM      2  C   UNL     1       5.911   5.319  16.628  0.00  0.00    +0.000 A 
ATOM      3  C   UNL     1       5.118   4.248  16.226  0.00  0.00    +0.000 A 
ATOM      4  C   UNL     1       5.347   3.646  14.993  0.00  0.00    +0.000 A 
ATOM      5  C   UNL     1       6.383   4.099  14.159  0.00  0.00    +0.000 A 
ATOM      6  C   UNL     1       7.236   5.146  14.586  0.00  0.00    +0.000 A 
ENDROOT
BRANCH   3   7
ATOM      7  C   UNL     1       4.071   3.763  17.160  0.00  0.00    +0.000 C 
ATOM      8  O   UNL     1       3.054   3.254  16.702  0.00  0.00    +0.000 OA
ATOM      9  N   UNL     1       4.286   4.086  18.490  0.00  0.00    +0.000 N 
ATOM     10  H   UNL     1       4.834   4.929  18.638  0.00  0.00    +0.000 HD
BRANCH   9  11
ATOM     11  C   UNL     1       3.320   3.806  19.495  0.00  0.00    +0.000 A 
ATOM     12  C   UNL     1       3.406   2.705  20.369  0.00  0.00    +0.000 A 
ATOM     13 CL   UNL     1       4.794   1.673  20.444  0.00  0.00    +0.000 Cl
ATOM     14  C   UNL     1       2.407   2.480  21.324  0.00  0.00    +0.000 A 
ATOM     15  C   UNL     1       1.321   3.352  21.436  0.00  0.00    +0.000 A 
ATOM     16  C   UNL     1       1.239   4.462  20.600  0.00  0.00    +0.000 A 
ATOM     17  C   UNL     1       2.235   4.693  19.647  0.00  0.00    +0.000 A 
ATOM     18 CL   UNL     1       2.064   6.076  18.617  0.00  0.00    +0.000 Cl
ENDBRANCH   9  11
ENDBRANCH   3   7
BRANCH   1  20
ATOM     19  C   UNL     1       7.432   7.336  17.543  0.00  0.00    +0.000 C 
ATOM     20  O   UNL     1       7.838   6.713  16.321  0.00  0.00    +0.000 OA
ENDBRANCH   1  20
BRANCH   5  21
ATOM     21  O   UNL     1       6.421   3.384  12.987  0.00  0.00    +0.000 OA
ATOM     22  C   UNL     1       5.248   3.262  12.197  0.00  0.00    +0.000 C 
ENDBRANCH   5  21
BRANCH   6  23
ATOM     23  O   UNL     1       8.223   5.510  13.711  0.00  0.00    +0.000 OA
ATOM     24  C   UNL     1       7.931   5.780  12.351  0.00  0.00    +0.000 C 
ENDBRANCH   6  23
TORSDOF 5
ENDMDL
MODEL 2
REMARK VINA RESULT:      -7.5      0.159      2.724
REMARK  Name = 
REMARK  8 active torsions:
REMARK  status: ('A' for Active; 'I' for Inactive)
REMARK    1  A    between atoms: C_1  and  O_2
REMARK    2  A    between atoms: O_2  and  C_3
REMARK    3  A    between atoms: C_5  and  C_6
REMARK    4  A    between atoms: N_8  and  C_9
REMARK    5  A    between atoms: C_18  and  O_19
REMARK    6  A    between atoms: O_19  and  C_20
REMARK    7  A    between atoms: C_21  and  O_22
REMARK    8  A    between atoms: O_22  and  C_23
REMARK                            x       y       z     vdW  Elec       q    Type
REMARK                         _______ _______ _______ _____ _____    ______ ____
ROOT
ATOM      1  C   UNL     1       6.365   3.972  14.183  0.00  0.00    +0.000 A 
ATOM      2  C   UNL     1       5.470   3.477  15.139  0.00  0.00    +0.000 A 
ATOM      3  C   UNL     1       5.324   4.111  16.370  0.00  0.00    +0.000 A 
ATOM      4  C   UNL     1       6.150   5.181  16.695  0.00  0.00    +0.000 A 
ATOM      5  C   UNL     1       7.119   5.638  15.786  0.00  0.00    +0.000 A 
ATOM      6  C   UNL     1       7.234   5.040  14.507  0.00  0.00    +0.000 A 
ENDROOT
BRANCH   3   7
ATOM      7  C   UNL     1       4.251   3.636  17.278  0.00  0.00    +0.000 C 
ATOM      8  O   UNL     1       3.291   3.037  16.805  0.00  0.00    +0.000 OA
ATOM      9  N   UNL     1       4.370   4.066  18.591  0.00  0.00    +0.000 N 
ATOM     10  H   UNL     1       4.863   4.946  18.704  0.00  0.00    +0.000 HD
BRANCH   9  11
ATOM     11  C   UNL     1       3.362   3.805  19.559  0.00  0.00    +0.000 A 
ATOM     12  C   UNL     1       3.406   2.714  20.449  0.00  0.00    +0.000 A 
ATOM     13 CL   UNL     1       4.782   1.675  20.593  0.00  0.00    +0.000 Cl
ATOM     14  C   UNL     1       2.368   2.508  21.366  0.00  0.00    +0.000 A 
ATOM     15  C   UNL     1       1.284   3.388  21.424  0.00  0.00    +0.000 A 
ATOM     16  C   UNL     1       1.243   4.488  20.572  0.00  0.00    +0.000 A 
ATOM     17  C   UNL     1       2.279   4.701  19.656  0.00  0.00    +0.000 A 
ATOM     18 CL   UNL     1       2.159   6.071  18.603  0.00  0.00    +0.000 Cl
ENDBRANCH   9  11
ENDBRANCH   3   7
BRANCH   1  20
ATOM     19  C   UNL     1       5.193   3.419  12.198  0.00  0.00    +0.000 C 
ATOM     20  O   UNL     1       6.417   3.398  12.937  0.00  0.00    +0.000 OA
ENDBRANCH   1  20
BRANCH   5  21
ATOM     21  O   UNL     1       7.837   6.683  16.314  0.00  0.00    +0.000 OA
ATOM     22  C   UNL     1       7.430   7.270  17.539  0.00  0.00    +0.000 C 
ENDBRANCH   5  21
BRANCH   6  23
ATOM     23  O   UNL     1       8.198   5.560  13.687  0.00  0.00    +0.000 OA
ATOM     24  C   UNL     1       7.933   5.817  12.319  0.00  0.00    +0.000 C 
ENDBRANCH   6  23
TORSDOF 5
ENDMDL
MODEL 3
REMARK VINA RESULT:      -7.5      0.138      3.325
REMARK  Name = 
REMARK  8 active torsions:
REMARK  status: ('A' for Active; 'I' for Inactive)
REMARK    1  A    between atoms: C_1  and  O_2
REMARK    2  A    between atoms: O_2  and  C_3
REMARK    3  A    between atoms: C_5  and  C_6
REMARK    4  A    between atoms: N_8  and  C_9
REMARK    5  A    between atoms: C_18  and  O_19
REMARK    6  A    between atoms: O_19  and  C_20
REMARK    7  A    between atoms: C_21  and  O_22
REMARK    8  A    between atoms: O_22  and  C_23
REMARK                            x       y       z     vdW  Elec       q    Type
REMARK                         _______ _______ _______ _____ _____    ______ ____
ROOT
ATOM      1  C   UNL     1       6.359   3.996  14.187  0.00  0.00    +0.000 A 
ATOM      2  C   UNL     1       5.426   3.532  15.123  0.00  0.00    +0.000 A 
ATOM      3  C   UNL     1       5.255   4.187  16.339  0.00  0.00    +0.000 A 
ATOM      4  C   UNL     1       6.092   5.247  16.674  0.00  0.00    +0.000 A 
ATOM      5  C   UNL     1       7.095   5.672  15.788  0.00  0.00    +0.000 A 
ATOM      6  C   UNL     1       7.237   5.054  14.522  0.00  0.00    +0.000 A 
ENDROOT
BRANCH   3   7
ATOM      7  C   UNL     1       4.147   3.745  17.222  0.00  0.00    +0.000 C 
ATOM      8  O   UNL     1       3.143   3.255  16.718  0.00  0.00    +0.000 OA
ATOM      9  N   UNL     1       4.300   4.084  18.558  0.00  0.00    +0.000 N 
ATOM     10  H   UNL     1       4.862   4.914  18.722  0.00  0.00    +0.000 HD
BRANCH   9  11
ATOM     11  C   UNL     1       3.273   3.847  19.513  0.00  0.00    +0.000 A 
ATOM     12  C   UNL     1       2.117   4.644  19.623  0.00  0.00    +0.000 A 
ATOM     13 CL   UNL     1       1.724   5.888  18.486  0.00  0.00    +0.000 Cl
ATOM     14  C   UNL     1       1.155   4.362  20.600  0.00  0.00    +0.000 A 
ATOM     15  C   UNL     1       1.317   3.279  21.468  0.00  0.00    +0.000 A 
ATOM     16  C   UNL     1       2.440   2.464  21.349  0.00  0.00    +0.000 A 
ATOM     17  C   UNL     1       3.403   2.739  20.374  0.00  0.00    +0.000 A 
ATOM     18 CL   UNL     1       4.791   1.706  20.294  0.00  0.00    +0.000 Cl
ENDBRANCH   9  11
ENDBRANCH   3   7
BRANCH   1  20
ATOM     19  C   UNL     1       5.211   3.347  12.216  0.00  0.00    +0.000 C 
ATOM     20  O   UNL     1       6.437   3.403  12.952  0.00  0.00    +0.000 OA
ENDBRANCH   1  20
BRANCH   5  21
ATOM     21  O   UNL     1       7.816   6.712  16.321  0.00  0.00    +0.000 OA
ATOM     22  C   UNL     1       7.366   7.347  17.508  0.00  0.00    +0.000 C 
ENDBRANCH   5  21
BRANCH   6  23
ATOM     23  O   UNL     1       8.234   5.544  13.723  0.00  0.00    +0.000 OA
ATOM     24  C   UNL     1       7.998   5.841  12.358  0.00  0.00    +0.000 C 
ENDBRANCH   6  23
TORSDOF 5
ENDMDL
MODEL 4
REMARK VINA RESULT:      -7.4      0.145      1.910
REMARK  Name = 
REMARK  8 active torsions:
REMARK  status: ('A' for Active; 'I' for Inactive)
REMARK    1  A    between atoms: C_1  and  O_2
REMARK    2  A    between atoms: O_2  and  C_3
REMARK    3  A    between atoms: C_5  and  C_6
REMARK    4  A    between atoms: N_8  and  C_9
REMARK    5  A    between atoms: C_18  and  O_19
REMARK    6  A    between atoms: O_19  and  C_20
REMARK    7  A    between atoms: C_21  and  O_22
REMARK    8  A    between atoms: O_22  and  C_23
REMARK                            x       y       z     vdW  Elec       q    Type
REMARK                         _______ _______ _______ _____ _____    ______ ____
ROOT
ATOM      1  C   UNL     1       6.994   5.766  15.895  0.00  0.00    +0.000 A 
ATOM      2  C   UNL     1       5.879   5.377  16.648  0.00  0.00    +0.000 A 
ATOM      3  C   UNL     1       5.098   4.296  16.252  0.00  0.00    +0.000 A 
ATOM      4  C   UNL     1       5.362   3.662  15.042  0.00  0.00    +0.000 A 
ATOM      5  C   UNL     1       6.420   4.094  14.225  0.00  0.00    +0.000 A 
ATOM      6  C   UNL     1       7.260   5.153  14.648  0.00  0.00    +0.000 A 
ENDROOT
BRANCH   3   7
ATOM      7  C   UNL     1       4.026   3.833  17.169  0.00  0.00    +0.000 C 
ATOM      8  O   UNL     1       3.003   3.353  16.694  0.00  0.00    +0.000 OA
ATOM      9  N   UNL     1       4.231   4.145  18.504  0.00  0.00    +0.000 N 
ATOM     10  H   UNL     1       4.799   4.972  18.663  0.00  0.00    +0.000 HD
BRANCH   9  11
ATOM     11  C   UNL     1       3.244   3.886  19.494  0.00  0.00    +0.000 A 
ATOM     12  C   UNL     1       2.106   4.693  19.684  0.00  0.00    +0.000 A 
ATOM     13 CL   UNL     1       1.683   5.986  18.612  0.00  0.00    +0.000 Cl
ATOM     14  C   UNL     1       1.183   4.388  20.691  0.00  0.00    +0.000 A 
ATOM     15  C   UNL     1       1.366   3.271  21.510  0.00  0.00    +0.000 A 
ATOM     16  C   UNL     1       2.470   2.446  21.312  0.00  0.00    +0.000 A 
ATOM     17  C   UNL     1       3.394   2.744  20.306  0.00  0.00    +0.000 A 
ATOM     18 CL   UNL     1       4.761   1.696  20.127  0.00  0.00    +0.000 Cl
ENDBRANCH   9  11
ENDBRANCH   3   7
BRANCH   1  20
ATOM     19  C   UNL     1       7.547   7.214  17.689  0.00  0.00    +0.000 C 
ATOM     20  O   UNL     1       7.813   6.766  16.357  0.00  0.00    +0.000 OA
ENDBRANCH   1  20
BRANCH   5  21
ATOM     21  O   UNL     1       6.491   3.349  13.073  0.00  0.00    +0.000 OA
ATOM     22  C   UNL     1       5.367   3.277  12.210  0.00  0.00    +0.000 C 
ENDBRANCH   5  21
BRANCH   6  23
ATOM     23  O   UNL     1       8.271   5.496  13.791  0.00  0.00    +0.000 OA
ATOM     24  C   UNL     1       8.003   5.825  12.439  0.00  0.00    +0.000 C 
ENDBRANCH   6  23
TORSDOF 5
ENDMDL
MODEL 5
REMARK VINA RESULT:      -6.8      5.266      7.706
REMARK  Name = 
REMARK  8 active torsions:
REMARK  status: ('A' for Active; 'I' for Inactive)
REMARK    1  A    between atoms: C_1  and  O_2
REMARK    2  A    between atoms: O_2  and  C_3
REMARK    3  A    between atoms: C_5  and  C_6
REMARK    4  A    between atoms: N_8  and  C_9
REMARK    5  A    between atoms: C_18  and  O_19
REMARK    6  A    between atoms: O_19  and  C_20
REMARK    7  A    between atoms: C_21  and  O_22
REMARK    8  A    between atoms: O_22  and  C_23
REMARK                            x       y       z     vdW  Elec       q    Type
REMARK                         _______ _______ _______ _____ _____    ______ ____
ROOT
ATOM      1  C   UNL     1       1.133   9.585  21.641  0.00  0.00    +0.000 A 
ATOM      2  C   UNL     1       1.483   8.370  21.038  0.00  0.00    +0.000 A 
ATOM      3  C   UNL     1       1.804   8.316  19.685  0.00  0.00    +0.000 A 
ATOM      4  C   UNL     1       1.672   9.457  18.900  0.00  0.00    +0.000 A 
ATOM      5  C   UNL     1       1.234  10.667  19.466  0.00  0.00    +0.000 A 
ATOM      6  C   UNL     1       0.966  10.748  20.854  0.00  0.00    +0.000 A 
ENDROOT
BRANCH   3   7
ATOM      7  C   UNL     1       2.317   7.036  19.138  0.00  0.00    +0.000 C 
ATOM      8  O   UNL     1       2.192   6.807  17.940  0.00  0.00    +0.000 OA
ATOM      9  N   UNL     1       2.759   6.133  20.093  0.00  0.00    +0.000 N 
ATOM     10  H   UNL     1       2.315   6.226  21.001  0.00  0.00    +0.000 HD
BRANCH   9  11
ATOM     11  C   UNL     1       3.164   4.815  19.746  0.00  0.00    +0.000 A 
ATOM     12  C   UNL     1       4.461   4.493  19.302  0.00  0.00    +0.000 A 
ATOM     13 CL   UNL     1       5.764   5.633  19.307  0.00  0.00    +0.000 Cl
ATOM     14  C   UNL     1       4.785   3.175  18.961  0.00  0.00    +0.000 A 
ATOM     15  C   UNL     1       3.834   2.157  19.071  0.00  0.00    +0.000 A 
ATOM     16  C   UNL     1       2.557   2.455  19.539  0.00  0.00    +0.000 A 
ATOM     17  C   UNL     1       2.229   3.769  19.884  0.00  0.00    +0.000 A 
ATOM     18 CL   UNL     1       0.616   4.083  20.434  0.00  0.00    +0.000 Cl
ENDBRANCH   9  11
ENDBRANCH   3   7
BRANCH   1  20
ATOM     19  C   UNL     1      -0.429   9.452  23.420  0.00  0.00    +0.000 C 
ATOM     20  O   UNL     1       0.924   9.637  22.997  0.00  0.00    +0.000 OA
ENDBRANCH   1  20
BRANCH   5  21
ATOM     21  O   UNL     1       1.155  11.655  18.516  0.00  0.00    +0.000 OA
ATOM     22  C   UNL     1       2.283  12.475  18.255  0.00  0.00    +0.000 C 
ENDBRANCH   5  21
BRANCH   6  23
ATOM     23  O   UNL     1       0.556  11.970  21.315  0.00  0.00    +0.000 OA
ATOM     24  C   UNL     1      -0.811  12.342  21.283  0.00  0.00    +0.000 C 
ENDBRANCH   6  23
TORSDOF 5
ENDMDL
MODEL 6
REMARK VINA RESULT:      -6.8      5.152      7.239
REMARK  Name = 
REMARK  8 active torsions:
REMARK  status: ('A' for Active; 'I' for Inactive)
REMARK    1  A    between atoms: C_1  and  O_2
REMARK    2  A    between atoms: O_2  and  C_3
REMARK    3  A    between atoms: C_5  and  C_6
REMARK    4  A    between atoms: N_8  and  C_9
REMARK    5  A    between atoms: C_18  and  O_19
REMARK    6  A    between atoms: O_19  and  C_20
REMARK    7  A    between atoms: C_21  and  O_22
REMARK    8  A    between atoms: O_22  and  C_23
REMARK                            x       y       z     vdW  Elec       q    Type
REMARK                         _______ _______ _______ _____ _____    ______ ____
ROOT
ATOM      1  C   UNL     1       4.342   6.559  17.782  0.00  0.00    +0.000 A 
ATOM      2  C   UNL     1       3.487   7.651  17.585  0.00  0.00    +0.000 A 
ATOM      3  C   UNL     1       2.426   7.887  18.454  0.00  0.00    +0.000 A 
ATOM      4  C   UNL     1       2.147   6.973  19.465  0.00  0.00    +0.000 A 
ATOM      5  C   UNL     1       2.937   5.822  19.625  0.00  0.00    +0.000 A 
ATOM      6  C   UNL     1       4.056   5.604  18.786  0.00  0.00    +0.000 A 
ENDROOT
BRANCH   3   7
ATOM      7  C   UNL     1       1.651   9.142  18.288  0.00  0.00    +0.000 C 
ATOM      8  O   UNL     1       2.109  10.036  17.585  0.00  0.00    +0.000 OA
ATOM      9  N   UNL     1       0.528   9.241  19.094  0.00  0.00    +0.000 N 
ATOM     10  H   UNL     1       0.583   8.718  19.962  0.00  0.00    +0.000 HD
BRANCH   9  11
ATOM     11  C   UNL     1      -0.252  10.429  19.149  0.00  0.00    +0.000 A 
ATOM     12  C   UNL     1      -1.219  10.767  18.183  0.00  0.00    +0.000 A 
ATOM     13 CL   UNL     1      -1.702   9.686  16.920  0.00  0.00    +0.000 Cl
ATOM     14  C   UNL     1      -1.939  11.963  18.291  0.00  0.00    +0.000 A 
ATOM     15  C   UNL     1      -1.722  12.830  19.365  0.00  0.00    +0.000 A 
ATOM     16  C   UNL     1      -0.791  12.494  20.344  0.00  0.00    +0.000 A 
ATOM     17  C   UNL     1      -0.072  11.299  20.243  0.00  0.00    +0.000 A 
ATOM     18 CL   UNL     1       1.092  10.948  21.478  0.00  0.00    +0.000 Cl
ENDBRANCH   9  11
ENDBRANCH   3   7
BRANCH   1  20
ATOM     19  C   UNL     1       5.208   5.752  15.728  0.00  0.00    +0.000 C 
ATOM     20  O   UNL     1       5.444   6.404  16.979  0.00  0.00    +0.000 OA
ENDBRANCH   1  20
BRANCH   5  21
ATOM     21  O   UNL     1       2.477   5.049  20.663  0.00  0.00    +0.000 OA
ATOM     22  C   UNL     1       1.265   4.324  20.519  0.00  0.00    +0.000 C 
ENDBRANCH   5  21
BRANCH   6  23
ATOM     23  O   UNL     1       4.771   4.462  19.025  0.00  0.00    +0.000 OA
ATOM     24  C   UNL     1       4.381   3.223  18.459  0.00  0.00    +0.000 C 
ENDBRANCH   6  23
TORSDOF 5
ENDMDL
MODEL 7
REMARK VINA RESULT:      -6.6      4.454      6.349
REMARK  Name = 
REMARK  8 active torsions:
REMARK  status: ('A' for Active; 'I' for Inactive)
REMARK    1  A    between atoms: C_1  and  O_2
REMARK    2  A    between atoms: O_2  and  C_3
REMARK    3  A    between atoms: C_5  and  C_6
REMARK    4  A    between atoms: N_8  and  C_9
REMARK    5  A    between atoms: C_18  and  O_19
REMARK    6  A    between atoms: O_19  and  C_20
REMARK    7  A    between atoms: C_21  and  O_22
REMARK    8  A    between atoms: O_22  and  C_23
REMARK                            x       y       z     vdW  Elec       q    Type
REMARK                         _______ _______ _______ _____ _____    ______ ____
ROOT
ATOM      1  C   UNL     1       3.038   5.209  17.831  0.00  0.00    +0.000 A 
ATOM      2  C   UNL     1       2.342   6.360  18.223  0.00  0.00    +0.000 A 
ATOM      3  C   UNL     1       2.861   7.625  17.964  0.00  0.00    +0.000 A 
ATOM      4  C   UNL     1       4.129   7.749  17.407  0.00  0.00    +0.000 A 
ATOM      5  C   UNL     1       4.884   6.607  17.089  0.00  0.00    +0.000 A 
ATOM      6  C   UNL     1       4.340   5.315  17.291  0.00  0.00    +0.000 A 
ENDROOT
BRANCH   3   7
ATOM      7  C   UNL     1       2.010   8.804  18.260  0.00  0.00    +0.000 C 
ATOM      8  O   UNL     1       2.244   9.866  17.693  0.00  0.00    +0.000 OA
ATOM      9  N   UNL     1       1.108   8.622  19.297  0.00  0.00    +0.000 N 
ATOM     10  H   UNL     1       1.393   7.938  19.991  0.00  0.00    +0.000 HD
BRANCH   9  11
ATOM     11  C   UNL     1       0.308   9.690  19.790  0.00  0.00    +0.000 A 
ATOM     12  C   UNL     1      -0.658  10.357  19.013  0.00  0.00    +0.000 A 
ATOM     13 CL   UNL     1      -1.115   9.832  17.428  0.00  0.00    +0.000 Cl
ATOM     14  C   UNL     1      -1.398  11.413  19.559  0.00  0.00    +0.000 A 
ATOM     15  C   UNL     1      -1.203  11.809  20.884  0.00  0.00    +0.000 A 
ATOM     16  C   UNL     1      -0.273  11.137  21.674  0.00  0.00    +0.000 A 
ATOM     17  C   UNL     1       0.467  10.080  21.135  0.00  0.00    +0.000 A 
ATOM     18 CL   UNL     1       1.628   9.301  22.158  0.00  0.00    +0.000 Cl
ENDBRANCH   9  11
ENDBRANCH   3   7
BRANCH   1  20
ATOM     19  C   UNL     1       2.579   3.413  19.309  0.00  0.00    +0.000 C 
ATOM     20  O   UNL     1       2.461   3.975  17.999  0.00  0.00    +0.000 OA
ENDBRANCH   1  20
BRANCH   5  21
ATOM     21  O   UNL     1       6.109   6.953  16.573  0.00  0.00    +0.000 OA
ATOM     22  C   UNL     1       7.225   7.090  17.437  0.00  0.00    +0.000 C 
ENDBRANCH   5  21
BRANCH   6  23
ATOM     23  O   UNL     1       5.145   4.264  16.940  0.00  0.00    +0.000 OA
ATOM     24  C   UNL     1       5.407   3.966  15.580  0.00  0.00    +0.000 C 
ENDBRANCH   6  23
TORSDOF 5
ENDMDL
MODEL 8
REMARK VINA RESULT:      -6.6      5.214      7.921
REMARK  Name = 
REMARK  8 active torsions:
REMARK  status: ('A' for Active; 'I' for Inactive)
REMARK    1  A    between atoms: C_1  and  O_2
REMARK    2  A    between atoms: O_2  and  C_3
REMARK    3  A    between atoms: C_5  and  C_6
REMARK    4  A    between atoms: N_8  and  C_9
REMARK    5  A    between atoms: C_18  and  O_19
REMARK    6  A    between atoms: O_19  and  C_20
REMARK    7  A    between atoms: C_21  and  O_22
REMARK    8  A    between atoms: O_22  and  C_23
REMARK                            x       y       z     vdW  Elec       q    Type
REMARK                         _______ _______ _______ _____ _____    ______ ____
ROOT
ATOM      1  C   UNL     1       0.406  10.176  19.095  0.00  0.00    +0.000 A 
ATOM      2  C   UNL     1       1.145   9.061  18.679  0.00  0.00    +0.000 A 
ATOM      3  C   UNL     1       1.717   8.201  19.612  0.00  0.00    +0.000 A 
ATOM      4  C   UNL     1       1.646   8.509  20.967  0.00  0.00    +0.000 A 
ATOM      5  C   UNL     1       0.987   9.671  21.402  0.00  0.00    +0.000 A 
ATOM      6  C   UNL     1       0.347  10.519  20.466  0.00  0.00    +0.000 A 
ENDROOT
BRANCH   3   7
ATOM      7  C   UNL     1       2.354   6.956  19.117  0.00  0.00    +0.000 C 
ATOM      8  O   UNL     1       2.479   6.790  17.909  0.00  0.00    +0.000 OA
ATOM      9  N   UNL     1       2.611   6.007  20.095  0.00  0.00    +0.000 N 
ATOM     10  H   UNL     1       1.990   6.049  20.897  0.00  0.00    +0.000 HD
BRANCH   9  11
ATOM     11  C   UNL     1       3.101   4.712  19.772  0.00  0.00    +0.000 A 
ATOM     12  C   UNL     1       4.422   4.467  19.351  0.00  0.00    +0.000 A 
ATOM     13 CL   UNL     1       5.652   5.685  19.358  0.00  0.00    +0.000 Cl
ATOM     14  C   UNL     1       4.833   3.166  19.031  0.00  0.00    +0.000 A 
ATOM     15  C   UNL     1       3.945   2.093  19.142  0.00  0.00    +0.000 A 
ATOM     16  C   UNL     1       2.645   2.317  19.588  0.00  0.00    +0.000 A 
ATOM     17  C   UNL     1       2.231   3.613  19.911  0.00  0.00    +0.000 A 
ATOM     18 CL   UNL     1       0.594   3.832  20.433  0.00  0.00    +0.000 Cl
ENDBRANCH   9  11
ENDBRANCH   3   7
BRANCH   1  20
ATOM     19  C   UNL     1      -1.510  10.458  17.727  0.00  0.00    +0.000 C 
ATOM     20  O   UNL     1      -0.240  10.950  18.164  0.00  0.00    +0.000 OA
ENDBRANCH   1  20
BRANCH   5  21
ATOM     21  O   UNL     1       1.053   9.793  22.768  0.00  0.00    +0.000 OA
ATOM     22  C   UNL     1      -0.072   9.448  23.562  0.00  0.00    +0.000 C 
ENDBRANCH   5  21
BRANCH   6  23
ATOM     23  O   UNL     1      -0.279  11.621  20.985  0.00  0.00    +0.000 OA
ATOM     24  C   UNL     1       0.417  12.843  21.158  0.00  0.00    +0.000 C 
ENDBRANCH   6  23
TORSDOF 5
ENDMDL
MODEL 9
REMARK VINA RESULT:      -6.6      5.231      7.220
REMARK  Name = 
REMARK  8 active torsions:
REMARK  status: ('A' for Active; 'I' for Inactive)
REMARK    1  A    between atoms: C_1  and  O_2
REMARK    2  A    between atoms: O_2  and  C_3
REMARK    3  A    between atoms: C_5  and  C_6
REMARK    4  A    between atoms: N_8  and  C_9
REMARK    5  A    between atoms: C_18  and  O_19
REMARK    6  A    between atoms: O_19  and  C_20
REMARK    7  A    between atoms: C_21  and  O_22
REMARK    8  A    between atoms: O_22  and  C_23
REMARK                            x       y       z     vdW  Elec       q    Type
REMARK                         _______ _______ _______ _____ _____    ______ ____
ROOT
ATOM      1  C   UNL     1       4.048   6.653  17.654  0.00  0.00    +0.000 A 
ATOM      2  C   UNL     1       3.209   7.772  17.585  0.00  0.00    +0.000 A 
ATOM      3  C   UNL     1       2.263   8.012  18.578  0.00  0.00    +0.000 A 
ATOM      4  C   UNL     1       2.076   7.077  19.591  0.00  0.00    +0.000 A 
ATOM      5  C   UNL     1       2.844   5.901  19.628  0.00  0.00    +0.000 A 
ATOM      6  C   UNL     1       3.852   5.677  18.659  0.00  0.00    +0.000 A 
ENDROOT
BRANCH   3   7
ATOM      7  C   UNL     1       1.512   9.291  18.536  0.00  0.00    +0.000 C 
ATOM      8  O   UNL     1       2.057  10.286  18.070  0.00  0.00    +0.000 OA
ATOM      9  N   UNL     1       0.290   9.269  19.190  0.00  0.00    +0.000 N 
ATOM     10  H   UNL     1       0.230   8.599  19.950  0.00  0.00    +0.000 HD
BRANCH   9  11
ATOM     11  C   UNL     1      -0.495  10.443  19.350  0.00  0.00    +0.000 A 
ATOM     12  C   UNL     1      -0.342  11.337  20.427  0.00  0.00    +0.000 A 
ATOM     13 CL   UNL     1       0.946  11.209  21.577  0.00  0.00    +0.000 Cl
ATOM     14  C   UNL     1      -1.163  12.466  20.532  0.00  0.00    +0.000 A 
ATOM     15  C   UNL     1      -2.134  12.732  19.563  0.00  0.00    +0.000 A 
ATOM     16  C   UNL     1      -2.276  11.873  18.475  0.00  0.00    +0.000 A 
ATOM     17  C   UNL     1      -1.456  10.746  18.365  0.00  0.00    +0.000 A 
ATOM     18 CL   UNL     1      -1.697   9.701  17.004  0.00  0.00    +0.000 Cl
ENDBRANCH   9  11
ENDBRANCH   3   7
BRANCH   1  20
ATOM     19  C   UNL     1       6.342   6.938  17.127  0.00  0.00    +0.000 C 
ATOM     20  O   UNL     1       5.044   6.491  16.724  0.00  0.00    +0.000 OA
ENDBRANCH   1  20
BRANCH   5  21
ATOM     21  O   UNL     1       2.484   5.110  20.692  0.00  0.00    +0.000 OA
ATOM     22  C   UNL     1       1.354   4.258  20.587  0.00  0.00    +0.000 C 
ENDBRANCH   5  21
BRANCH   6  23
ATOM     23  O   UNL     1       4.556   4.510  18.784  0.00  0.00    +0.000 OA
ATOM     24  C   UNL     1       4.155   3.337  18.097  0.00  0.00    +0.000 C 
ENDBRANCH   6  23
TORSDOF 5
ENDMDL
