MODEL 1
REMARK VINA RESULT:      -8.5      0.000      0.000
REMARK  Name = 
REMARK  7 active torsions:
REMARK  status: ('A' for Active; 'I' for Inactive)
REMARK    1  A    between atoms: C_1  and  C_2
REMARK    2  A    between atoms: C_4  and  C_5
REMARK    3  A    between atoms: N_6  and  C_7
REMARK    4  A    between atoms: C_8  and  O_9
REMARK    5  A    between atoms: C_10  and  N_11
REMARK    6  A    between atoms: N_11  and  C_12
REMARK    7  A    between atoms: C_12  and  C_13
REMARK                            x       y       z     vdW  Elec       q    Type
REMARK                         _______ _______ _______ _____ _____    ______ ____
ROOT
ATOM      1  C   UNL     1       3.687   3.743  18.416  0.00  0.00    +0.000 C 
ATOM      2  C   UNL     1       2.653   4.867  18.621  0.00  0.00    +0.000 C 
ATOM      3  C   UNL     1       1.772   4.824  19.912  0.00  0.00    +0.000 C 
ATOM      4  C   UNL     1       2.009   3.551  20.763  0.00  0.00    +0.000 C 
ATOM      5  C   UNL     1       1.478   2.285  20.118  0.00  0.00    +0.000 C 
ATOM      6  O   UNL     1       2.507   1.854  19.225  0.00  0.00    +0.000 OA
ATOM      7  C   UNL     1       3.648   2.695  19.530  0.00  0.00    +0.000 C 
ATOM      8  O   UNL     1       3.406   3.275  20.813  0.00  0.00    +0.000 OA
ENDROOT
BRANCH   1  14
ATOM      9  C   UNL     1       7.967   5.789  19.450  0.00  0.00    +0.000 C 
ATOM     10  C   UNL     1       6.884   5.201  18.626  0.00  0.00    +0.000 A 
ATOM     11  C   UNL     1       6.848   5.049  17.225  0.00  0.00    +0.000 A 
ATOM     12  C   UNL     1       5.628   4.468  16.952  0.00  0.00    +0.000 A 
ATOM     13  C   UNL     1       5.010   4.104  15.654  0.00  0.00    +0.000 C 
ATOM     14  N   UNL     1       5.020   4.292  18.175  0.00  0.00    +0.000 N 
ATOM     15  N   UNL     1       5.769   4.739  19.200  0.00  0.00    +0.000 NA
ENDBRANCH   1  14
BRANCH   2  16
ATOM     16  O   UNL     1       1.766   4.945  17.478  0.00  0.00    +0.000 OA
ATOM     17  H   UNL     1       1.096   4.244  17.563  0.00  0.00    +0.000 HD
ENDBRANCH   2  16
BRANCH   3  18
ATOM     18  N   UNL     1       2.027   6.015  20.756  0.00  0.00    +0.000 NA
ATOM     19  H   UNL     1       1.232   6.203  21.367  0.00  0.00    +0.000 HD
BRANCH  18  20
ATOM     20  C   UNL     1       2.315   7.224  19.983  0.00  0.00    +0.000 C 
BRANCH  20  21
ATOM     21  C   UNL     1       1.408   8.351  20.415  0.00  0.00    +0.000 A 
ATOM     22  C   UNL     1       0.886   9.254  19.455  0.00  0.00    +0.000 A 
ATOM     23  C   UNL     1       0.039  10.299  19.835  0.00  0.00    +0.000 A 
ATOM     24  C   UNL     1      -0.268  10.414  21.174  0.00  0.00    +0.000 A 
ATOM     25  C   UNL     1       0.228   9.536  22.109  0.00  0.00    +0.000 A 
ATOM     26  C   UNL     1       1.061   8.495  21.765  0.00  0.00    +0.000 A 
ATOM     27  O   UNL     1      -0.197   9.822  23.369  0.00  0.00    +0.000 OA
ATOM     28  C   UNL     1      -0.989  11.002  23.122  0.00  0.00    +0.000 C 
ATOM     29  O   UNL     1      -1.065  11.365  21.728  0.00  0.00    +0.000 OA
ENDBRANCH  20  21
ENDBRANCH  18  20
ENDBRANCH   3  18
TORSDOF 5
ENDMDL
MODEL 2
REMARK VINA RESULT:      -8.5      1.114      1.436
REMARK  Name = 
REMARK  7 active torsions:
REMARK  status: ('A' for Active; 'I' for Inactive)
REMARK    1  A    between atoms: C_1  and  C_2
REMARK    2  A    between atoms: C_4  and  C_5
REMARK    3  A    between atoms: N_6  and  C_7
REMARK    4  A    between atoms: C_8  and  O_9
REMARK    5  A    between atoms: C_10  and  N_11
REMARK    6  A    between atoms: N_11  and  C_12
REMARK    7  A    between atoms: C_12  and  C_13
REMARK                            x       y       z     vdW  Elec       q    Type
REMARK                         _______ _______ _______ _____ _____    ______ ____
ROOT
ATOM      1  C   UNL     1       3.932   3.398  18.036  0.00  0.00    +0.000 C 
ATOM      2  C   UNL     1       2.768   4.395  18.195  0.00  0.00    +0.000 C 
ATOM      3  C   UNL     1       1.829   4.233  19.434  0.00  0.00    +0.000 C 
ATOM      4  C   UNL     1       2.160   2.980  20.283  0.00  0.00    +0.000 C 
ATOM      5  C   UNL     1       1.811   1.673  19.595  0.00  0.00    +0.000 C 
ATOM      6  O   UNL     1       2.930   1.375  18.757  0.00  0.00    +0.000 OA
ATOM      7  C   UNL     1       3.951   2.333  19.135  0.00  0.00    +0.000 C 
ATOM      8  O   UNL     1       3.574   2.861  20.409  0.00  0.00    +0.000 OA
ENDROOT
BRANCH   1  14
ATOM      9  C   UNL     1       7.953   5.783  19.346  0.00  0.00    +0.000 C 
ATOM     10  C   UNL     1       6.955   5.153  18.449  0.00  0.00    +0.000 A 
ATOM     11  C   UNL     1       6.966   5.106  17.040  0.00  0.00    +0.000 A 
ATOM     12  C   UNL     1       5.819   4.428  16.689  0.00  0.00    +0.000 A 
ATOM     13  C   UNL     1       5.270   4.103  15.349  0.00  0.00    +0.000 C 
ATOM     14  N   UNL     1       5.205   4.097  17.877  0.00  0.00    +0.000 N 
ATOM     15  N   UNL     1       5.881   4.537  18.954  0.00  0.00    +0.000 NA
ENDBRANCH   1  14
BRANCH   2  16
ATOM     16  O   UNL     1       1.942   4.394  17.005  0.00  0.00    +0.000 OA
ATOM     17  H   UNL     1       1.019   4.549  17.273  0.00  0.00    +0.000 HD
ENDBRANCH   2  16
BRANCH   3  18
ATOM     18  N   UNL     1       1.901   5.430  20.303  0.00  0.00    +0.000 NA
ATOM     19  H   UNL     1       0.979   5.851  20.419  0.00  0.00    +0.000 HD
BRANCH  18  20
ATOM     20  C   UNL     1       2.820   6.455  19.807  0.00  0.00    +0.000 C 
BRANCH  20  21
ATOM     21  C   UNL     1       2.070   7.725  19.494  0.00  0.00    +0.000 A 
ATOM     22  C   UNL     1       2.078   8.254  18.178  0.00  0.00    +0.000 A 
ATOM     23  C   UNL     1       1.383   9.426  17.868  0.00  0.00    +0.000 A 
ATOM     24  C   UNL     1       0.691  10.044  18.886  0.00  0.00    +0.000 A 
ATOM     25  C   UNL     1       0.671   9.532  20.163  0.00  0.00    +0.000 A 
ATOM     26  C   UNL     1       1.342   8.378  20.499  0.00  0.00    +0.000 A 
ATOM     27  O   UNL     1      -0.071  10.289  21.016  0.00  0.00    +0.000 OA
ATOM     28  C   UNL     1      -0.486  11.353  20.136  0.00  0.00    +0.000 C 
ATOM     29  O   UNL     1      -0.034  11.188  18.776  0.00  0.00    +0.000 OA
ENDBRANCH  20  21
ENDBRANCH  18  20
ENDBRANCH   3  18
TORSDOF 5
ENDMDL
MODEL 3
REMARK VINA RESULT:      -8.3      0.941      1.606
REMARK  Name = 
REMARK  7 active torsions:
REMARK  status: ('A' for Active; 'I' for Inactive)
REMARK    1  A    between atoms: C_1  and  C_2
REMARK    2  A    between atoms: C_4  and  C_5
REMARK    3  A    between atoms: N_6  and  C_7
REMARK    4  A    between atoms: C_8  and  O_9
REMARK    5  A    between atoms: C_10  and  N_11
REMARK    6  A    between atoms: N_11  and  C_12
REMARK    7  A    between atoms: C_12  and  C_13
REMARK                            x       y       z     vdW  Elec       q    Type
REMARK                         _______ _______ _______ _____ _____    ______ ____
ROOT
ATOM      1  C   UNL     1       3.972   3.574  18.155  0.00  0.00    +0.000 C 
ATOM      2  C   UNL     1       2.872   4.626  18.394  0.00  0.00    +0.000 C 
ATOM      3  C   UNL     1       1.975   4.470  19.664  0.00  0.00    +0.000 C 
ATOM      4  C   UNL     1       2.270   3.172  20.457  0.00  0.00    +0.000 C 
ATOM      5  C   UNL     1       1.823   1.911  19.742  0.00  0.00    +0.000 C 
ATOM      6  O   UNL     1       2.890   1.583  18.848  0.00  0.00    +0.000 OA
ATOM      7  C   UNL     1       3.976   2.471  19.216  0.00  0.00    +0.000 C 
ATOM      8  O   UNL     1       3.680   2.973  20.521  0.00  0.00    +0.000 OA
ENDROOT
BRANCH   1  14
ATOM      9  C   UNL     1       8.110   5.805  19.367  0.00  0.00    +0.000 C 
ATOM     10  C   UNL     1       7.077   5.198  18.495  0.00  0.00    +0.000 A 
ATOM     11  C   UNL     1       7.072   5.114  17.088  0.00  0.00    +0.000 A 
ATOM     12  C   UNL     1       5.891   4.479  16.764  0.00  0.00    +0.000 A 
ATOM     13  C   UNL     1       5.316   4.145  15.439  0.00  0.00    +0.000 C 
ATOM     14  N   UNL     1       5.275   4.209  17.966  0.00  0.00    +0.000 N 
ATOM     15  N   UNL     1       5.980   4.646  19.025  0.00  0.00    +0.000 NA
ENDBRANCH   1  14
BRANCH   2  16
ATOM     16  O   UNL     1       2.001   4.710  17.240  0.00  0.00    +0.000 OA
ATOM     17  H   UNL     1       1.254   4.100  17.375  0.00  0.00    +0.000 HD
ENDBRANCH   2  16
BRANCH   3  18
ATOM     18  N   UNL     1       2.146   5.630  20.569  0.00  0.00    +0.000 NA
ATOM     19  H   UNL     1       1.273   5.848  21.050  0.00  0.00    +0.000 HD
BRANCH  18  20
ATOM     20  C   UNL     1       2.615   6.837  19.886  0.00  0.00    +0.000 C 
BRANCH  20  21
ATOM     21  C   UNL     1       1.657   7.979  20.123  0.00  0.00    +0.000 A 
ATOM     22  C   UNL     1       0.969   8.089  21.358  0.00  0.00    +0.000 A 
ATOM     23  C   UNL     1       0.084   9.144  21.598  0.00  0.00    +0.000 A 
ATOM     24  C   UNL     1      -0.091  10.069  20.592  0.00  0.00    +0.000 A 
ATOM     25  C   UNL     1       0.579   9.973  19.395  0.00  0.00    +0.000 A 
ATOM     26  C   UNL     1       1.460   8.949  19.130  0.00  0.00    +0.000 A 
ATOM     27  O   UNL     1       0.269  10.985  18.541  0.00  0.00    +0.000 OA
ATOM     28  C   UNL     1      -0.701  11.708  19.326  0.00  0.00    +0.000 C 
ATOM     29  O   UNL     1      -0.911  11.152  20.640  0.00  0.00    +0.000 OA
ENDBRANCH  20  21
ENDBRANCH  18  20
ENDBRANCH   3  18
TORSDOF 5
ENDMDL
MODEL 4
REMARK VINA RESULT:      -8.0      3.740      5.906
REMARK  Name = 
REMARK  7 active torsions:
REMARK  status: ('A' for Active; 'I' for Inactive)
REMARK    1  A    between atoms: C_1  and  C_2
REMARK    2  A    between atoms: C_4  and  C_5
REMARK    3  A    between atoms: N_6  and  C_7
REMARK    4  A    between atoms: C_8  and  O_9
REMARK    5  A    between atoms: C_10  and  N_11
REMARK    6  A    between atoms: N_11  and  C_12
REMARK    7  A    between atoms: C_12  and  C_13
REMARK                            x       y       z     vdW  Elec       q    Type
REMARK                         _______ _______ _______ _____ _____    ______ ____
ROOT
ATOM      1  C   UNL     1       6.477   4.046  15.446  0.00  0.00    +0.000 C 
ATOM      2  C   UNL     1       5.181   4.326  16.231  0.00  0.00    +0.000 C 
ATOM      3  C   UNL     1       5.193   5.493  17.271  0.00  0.00    +0.000 C 
ATOM      4  C   UNL     1       6.592   6.140  17.436  0.00  0.00    +0.000 C 
ATOM      5  C   UNL     1       7.596   5.242  18.133  0.00  0.00    +0.000 C 
ATOM      6  O   UNL     1       8.129   4.401  17.107  0.00  0.00    +0.000 OA
ATOM      7  C   UNL     1       7.631   4.960  15.865  0.00  0.00    +0.000 C 
ATOM      8  O   UNL     1       7.193   6.289  16.153  0.00  0.00    +0.000 OA
ENDROOT
BRANCH   1  14
ATOM      9  C   UNL     1       4.185   3.073  11.278  0.00  0.00    +0.000 C 
ATOM     10  C   UNL     1       5.233   3.601  12.183  0.00  0.00    +0.000 A 
ATOM     11  C   UNL     1       6.423   4.271  11.832  0.00  0.00    +0.000 A 
ATOM     12  C   UNL     1       7.058   4.537  13.026  0.00  0.00    +0.000 A 
ATOM     13  C   UNL     1       8.365   5.187  13.291  0.00  0.00    +0.000 C 
ATOM     14  N   UNL     1       6.229   4.040  14.006  0.00  0.00    +0.000 N 
ATOM     15  N   UNL     1       5.120   3.462  13.508  0.00  0.00    +0.000 NA
ENDBRANCH   1  14
BRANCH   2  16
ATOM     16  O   UNL     1       4.740   3.126  16.912  0.00  0.00    +0.000 OA
ATOM     17  H   UNL     1       5.354   2.404  16.689  0.00  0.00    +0.000 HD
ENDBRANCH   2  16
BRANCH   3  18
ATOM     18  N   UNL     1       4.224   6.545  16.886  0.00  0.00    +0.000 NA
ATOM     19  H   UNL     1       4.706   7.374  16.541  0.00  0.00    +0.000 HD
BRANCH  18  20
ATOM     20  C   UNL     1       3.334   6.944  17.977  0.00  0.00    +0.000 C 
BRANCH  20  21
ATOM     21  C   UNL     1       2.674   5.731  18.585  0.00  0.00    +0.000 A 
ATOM     22  C   UNL     1       1.877   4.875  17.784  0.00  0.00    +0.000 A 
ATOM     23  C   UNL     1       1.263   3.744  18.328  0.00  0.00    +0.000 A 
ATOM     24  C   UNL     1       1.463   3.493  19.668  0.00  0.00    +0.000 A 
ATOM     25  C   UNL     1       2.243   4.314  20.450  0.00  0.00    +0.000 A 
ATOM     26  C   UNL     1       2.863   5.433  19.942  0.00  0.00    +0.000 A 
ATOM     27  O   UNL     1       2.315   3.890  21.740  0.00  0.00    +0.000 OA
ATOM     28  C   UNL     1       1.463   2.728  21.687  0.00  0.00    +0.000 C 
ATOM     29  O   UNL     1       0.946   2.451  20.369  0.00  0.00    +0.000 OA
ENDBRANCH  20  21
ENDBRANCH  18  20
ENDBRANCH   3  18
TORSDOF 5
ENDMDL
MODEL 5
REMARK VINA RESULT:      -7.9      0.919      1.656
REMARK  Name = 
REMARK  7 active torsions:
REMARK  status: ('A' for Active; 'I' for Inactive)
REMARK    1  A    between atoms: C_1  and  C_2
REMARK    2  A    between atoms: C_4  and  C_5
REMARK    3  A    between atoms: N_6  and  C_7
REMARK    4  A    between atoms: C_8  and  O_9
REMARK    5  A    between atoms: C_10  and  N_11
REMARK    6  A    between atoms: N_11  and  C_12
REMARK    7  A    between atoms: C_12  and  C_13
REMARK                            x       y       z     vdW  Elec       q    Type
REMARK                         _______ _______ _______ _____ _____    ______ ____
ROOT
ATOM      1  C   UNL     1       3.457   3.574  17.755  0.00  0.00    +0.000 C 
ATOM      2  C   UNL     1       2.467   4.673  18.185  0.00  0.00    +0.000 C 
ATOM      3  C   UNL     1       1.959   4.662  19.663  0.00  0.00    +0.000 C 
ATOM      4  C   UNL     1       2.464   3.437  20.467  0.00  0.00    +0.000 C 
ATOM      5  C   UNL     1       1.836   2.127  20.030  0.00  0.00    +0.000 C 
ATOM      6  O   UNL     1       2.611   1.688  18.913  0.00  0.00    +0.000 OA
ATOM      7  C   UNL     1       3.756   2.577  18.876  0.00  0.00    +0.000 C 
ATOM      8  O   UNL     1       3.835   3.207  20.156  0.00  0.00    +0.000 OA
ENDROOT
BRANCH   1  14
ATOM      9  C   UNL     1       6.725   4.576  14.307  0.00  0.00    +0.000 C 
ATOM     10  C   UNL     1       6.091   4.578  15.646  0.00  0.00    +0.000 A 
ATOM     11  C   UNL     1       6.571   5.175  16.830  0.00  0.00    +0.000 A 
ATOM     12  C   UNL     1       5.632   4.879  17.795  0.00  0.00    +0.000 A 
ATOM     13  C   UNL     1       5.610   5.206  19.242  0.00  0.00    +0.000 C 
ATOM     14  N   UNL     1       4.655   4.153  17.151  0.00  0.00    +0.000 N 
ATOM     15  N   UNL     1       4.925   3.957  15.847  0.00  0.00    +0.000 NA
ENDBRANCH   1  14
BRANCH   2  16
ATOM     16  O   UNL     1       1.308   4.672  17.315  0.00  0.00    +0.000 OA
ATOM     17  H   UNL     1       1.415   3.954  16.666  0.00  0.00    +0.000 HD
ENDBRANCH   2  16
BRANCH   3  18
ATOM     18  N   UNL     1       2.375   5.898  20.367  0.00  0.00    +0.000 NA
ATOM     19  H   UNL     1       1.745   6.104  21.142  0.00  0.00    +0.000 HD
BRANCH  18  20
ATOM     20  C   UNL     1       2.439   7.070  19.494  0.00  0.00    +0.000 C 
BRANCH  20  21
ATOM     21  C   UNL     1       1.581   8.182  20.047  0.00  0.00    +0.000 A 
ATOM     22  C   UNL     1       1.203   9.270  19.221  0.00  0.00    +0.000 A 
ATOM     23  C   UNL     1       0.404  10.305  19.714  0.00  0.00    +0.000 A 
ATOM     24  C   UNL     1      -0.001  10.226  21.028  0.00  0.00    +0.000 A 
ATOM     25  C   UNL     1       0.354   9.169  21.833  0.00  0.00    +0.000 A 
ATOM     26  C   UNL     1       1.137   8.133  21.376  0.00  0.00    +0.000 A 
ATOM     27  O   UNL     1      -0.149   9.279  23.092  0.00  0.00    +0.000 OA
ATOM     28  C   UNL     1      -0.834  10.545  22.995  0.00  0.00    +0.000 C 
ATOM     29  O   UNL     1      -0.772  11.136  21.680  0.00  0.00    +0.000 OA
ENDBRANCH  20  21
ENDBRANCH  18  20
ENDBRANCH   3  18
TORSDOF 5
ENDMDL
MODEL 6
REMARK VINA RESULT:      -7.9      4.818      7.230
REMARK  Name = 
REMARK  7 active torsions:
REMARK  status: ('A' for Active; 'I' for Inactive)
REMARK    1  A    between atoms: C_1  and  C_2
REMARK    2  A    between atoms: C_4  and  C_5
REMARK    3  A    between atoms: N_6  and  C_7
REMARK    4  A    between atoms: C_8  and  O_9
REMARK    5  A    between atoms: C_10  and  N_11
REMARK    6  A    between atoms: N_11  and  C_12
REMARK    7  A    between atoms: C_12  and  C_13
REMARK                            x       y       z     vdW  Elec       q    Type
REMARK                         _______ _______ _______ _____ _____    ______ ____
ROOT
ATOM      1  C   UNL     1       4.853   5.532  17.941  0.00  0.00    +0.000 C 
ATOM      2  C   UNL     1       6.172   6.074  18.525  0.00  0.00    +0.000 C 
ATOM      3  C   UNL     1       7.353   6.342  17.537  0.00  0.00    +0.000 C 
ATOM      4  C   UNL     1       7.038   5.902  16.085  0.00  0.00    +0.000 C 
ATOM      5  C   UNL     1       6.971   4.397  15.910  0.00  0.00    +0.000 C 
ATOM      6  O   UNL     1       5.642   4.030  16.288  0.00  0.00    +0.000 OA
ATOM      7  C   UNL     1       4.931   5.285  16.433  0.00  0.00    +0.000 C 
ATOM      8  O   UNL     1       5.704   6.281  15.760  0.00  0.00    +0.000 OA
ENDROOT
BRANCH   1  14
ATOM      9  C   UNL     1       1.828   9.330  17.913  0.00  0.00    +0.000 C 
ATOM     10  C   UNL     1       2.408   8.033  18.337  0.00  0.00    +0.000 A 
ATOM     11  C   UNL     1       1.985   7.200  19.393  0.00  0.00    +0.000 A 
ATOM     12  C   UNL     1       2.854   6.131  19.385  0.00  0.00    +0.000 A 
ATOM     13  C   UNL     1       2.933   4.954  20.284  0.00  0.00    +0.000 C 
ATOM     14  N   UNL     1       3.721   6.365  18.340  0.00  0.00    +0.000 N 
ATOM     15  N   UNL     1       3.465   7.521  17.699  0.00  0.00    +0.000 NA
ENDBRANCH   1  14
BRANCH   2  16
ATOM     16  O   UNL     1       6.656   5.195  19.570  0.00  0.00    +0.000 OA
ATOM     17  H   UNL     1       7.469   5.580  19.941  0.00  0.00    +0.000 HD
ENDBRANCH   2  16
BRANCH   3  18
ATOM     18  N   UNL     1       7.712   7.780  17.531  0.00  0.00    +0.000 NA
ATOM     19  H   UNL     1       8.216   8.025  16.679  0.00  0.00    +0.000 HD
BRANCH  18  20
ATOM     20  C   UNL     1       8.521   8.182  18.683  0.00  0.00    +0.000 C 
BRANCH  20  21
ATOM     21  C   UNL     1       8.766   9.671  18.656  0.00  0.00    +0.000 A 
ATOM     22  C   UNL     1       8.218  10.467  17.620  0.00  0.00    +0.000 A 
ATOM     23  C   UNL     1       8.429  11.848  17.583  0.00  0.00    +0.000 A 
ATOM     24  C   UNL     1       9.187  12.403  18.591  0.00  0.00    +0.000 A 
ATOM     25  C   UNL     1       9.715  11.638  19.605  0.00  0.00    +0.000 A 
ATOM     26  C   UNL     1       9.521  10.276  19.671  0.00  0.00    +0.000 A 
ATOM     27  O   UNL     1      10.426  12.376  20.499  0.00  0.00    +0.000 OA
ATOM     28  C   UNL     1      10.313  13.688  19.910  0.00  0.00    +0.000 C 
ATOM     29  O   UNL     1       9.502  13.719  18.718  0.00  0.00    +0.000 OA
ENDBRANCH  20  21
ENDBRANCH  18  20
ENDBRANCH   3  18
TORSDOF 5
ENDMDL
MODEL 7
REMARK VINA RESULT:      -7.8      4.647      7.164
REMARK  Name = 
REMARK  7 active torsions:
REMARK  status: ('A' for Active; 'I' for Inactive)
REMARK    1  A    between atoms: C_1  and  C_2
REMARK    2  A    between atoms: C_4  and  C_5
REMARK    3  A    between atoms: N_6  and  C_7
REMARK    4  A    between atoms: C_8  and  O_9
REMARK    5  A    between atoms: C_10  and  N_11
REMARK    6  A    between atoms: N_11  and  C_12
REMARK    7  A    between atoms: C_12  and  C_13
REMARK                            x       y       z     vdW  Elec       q    Type
REMARK                         _______ _______ _______ _____ _____    ______ ____
ROOT
ATOM      1  C   UNL     1       4.864   5.462  17.747  0.00  0.00    +0.000 C 
ATOM      2  C   UNL     1       6.211   5.956  18.306  0.00  0.00    +0.000 C 
ATOM      3  C   UNL     1       7.353   6.278  17.288  0.00  0.00    +0.000 C 
ATOM      4  C   UNL     1       6.974   5.931  15.826  0.00  0.00    +0.000 C 
ATOM      5  C   UNL     1       6.885   4.440  15.562  0.00  0.00    +0.000 C 
ATOM      6  O   UNL     1       5.569   4.060  15.971  0.00  0.00    +0.000 OA
ATOM      7  C   UNL     1       4.877   5.309  16.224  0.00  0.00    +0.000 C 
ATOM      8  O   UNL     1       5.631   6.339  15.582  0.00  0.00    +0.000 OA
ENDROOT
BRANCH   1  14
ATOM      9  C   UNL     1       1.846   9.253  18.047  0.00  0.00    +0.000 C 
ATOM     10  C   UNL     1       2.448   7.941  18.384  0.00  0.00    +0.000 A 
ATOM     11  C   UNL     1       2.086   7.065  19.428  0.00  0.00    +0.000 A 
ATOM     12  C   UNL     1       2.953   5.998  19.326  0.00  0.00    +0.000 A 
ATOM     13  C   UNL     1       3.082   4.786  20.171  0.00  0.00    +0.000 C 
ATOM     14  N   UNL     1       3.757   6.276  18.244  0.00  0.00    +0.000 N 
ATOM     15  N   UNL     1       3.466   7.457  17.666  0.00  0.00    +0.000 NA
ENDBRANCH   1  14
BRANCH   2  16
ATOM     16  O   UNL     1       6.729   5.010  19.273  0.00  0.00    +0.000 OA
ATOM     17  H   UNL     1       6.664   4.117  18.892  0.00  0.00    +0.000 HD
ENDBRANCH   2  16
BRANCH   3  18
ATOM     18  N   UNL     1       7.725   7.710  17.357  0.00  0.00    +0.000 NA
ATOM     19  H   UNL     1       8.278   7.981  16.544  0.00  0.00    +0.000 HD
BRANCH  18  20
ATOM     20  C   UNL     1       8.473   8.059  18.566  0.00  0.00    +0.000 C 
BRANCH  20  21
ATOM     21  C   UNL     1       8.699   9.550  18.630  0.00  0.00    +0.000 A 
ATOM     22  C   UNL     1       9.560  10.100  19.612  0.00  0.00    +0.000 A 
ATOM     23  C   UNL     1       9.786  11.478  19.682  0.00  0.00    +0.000 A 
ATOM     24  C   UNL     1       9.143  12.276  18.761  0.00  0.00    +0.000 A 
ATOM     25  C   UNL     1       8.313  11.748  17.800  0.00  0.00    +0.000 A 
ATOM     26  C   UNL     1       8.073  10.396  17.703  0.00  0.00    +0.000 A 
ATOM     27  O   UNL     1       7.781  12.703  16.990  0.00  0.00    +0.000 OA
ATOM     28  C   UNL     1       8.345  13.894  17.575  0.00  0.00    +0.000 C 
ATOM     29  O   UNL     1       9.236  13.629  18.678  0.00  0.00    +0.000 OA
ENDBRANCH  20  21
ENDBRANCH  18  20
ENDBRANCH   3  18
TORSDOF 5
ENDMDL
MODEL 8
REMARK VINA RESULT:      -7.7      4.592      7.055
REMARK  Name = 
REMARK  7 active torsions:
REMARK  status: ('A' for Active; 'I' for Inactive)
REMARK    1  A    between atoms: C_1  and  C_2
REMARK    2  A    between atoms: C_4  and  C_5
REMARK    3  A    between atoms: N_6  and  C_7
REMARK    4  A    between atoms: C_8  and  O_9
REMARK    5  A    between atoms: C_10  and  N_11
REMARK    6  A    between atoms: N_11  and  C_12
REMARK    7  A    between atoms: C_12  and  C_13
REMARK                            x       y       z     vdW  Elec       q    Type
REMARK                         _______ _______ _______ _____ _____    ______ ____
ROOT
ATOM      1  C   UNL     1       5.296   4.516  17.663  0.00  0.00    +0.000 C 
ATOM      2  C   UNL     1       6.605   5.254  18.004  0.00  0.00    +0.000 C 
ATOM      3  C   UNL     1       7.287   6.093  16.875  0.00  0.00    +0.000 C 
ATOM      4  C   UNL     1       6.573   5.958  15.507  0.00  0.00    +0.000 C 
ATOM      5  C   UNL     1       6.741   4.592  14.869  0.00  0.00    +0.000 C 
ATOM      6  O   UNL     1       5.728   3.772  15.455  0.00  0.00    +0.000 OA
ATOM      7  C   UNL     1       4.885   4.688  16.200  0.00  0.00    +0.000 C 
ATOM      8  O   UNL     1       5.163   6.001  15.709  0.00  0.00    +0.000 OA
ENDROOT
BRANCH   1  14
ATOM      9  C   UNL     1       2.067   7.285  20.003  0.00  0.00    +0.000 C 
ATOM     10  C   UNL     1       2.837   6.071  19.645  0.00  0.00    +0.000 A 
ATOM     11  C   UNL     1       2.764   4.794  20.238  0.00  0.00    +0.000 A 
ATOM     12  C   UNL     1       3.687   4.024  19.562  0.00  0.00    +0.000 A 
ATOM     13  C   UNL     1       4.086   2.610  19.764  0.00  0.00    +0.000 C 
ATOM     14  N   UNL     1       4.238   4.855  18.613  0.00  0.00    +0.000 N 
ATOM     15  N   UNL     1       3.737   6.104  18.656  0.00  0.00    +0.000 NA
ENDBRANCH   1  14
BRANCH   2  16
ATOM     16  O   UNL     1       7.586   4.322  18.522  0.00  0.00    +0.000 OA
ATOM     17  H   UNL     1       7.389   3.439  18.160  0.00  0.00    +0.000 HD
ENDBRANCH   2  16
BRANCH   3  18
ATOM     18  N   UNL     1       7.336   7.526  17.248  0.00  0.00    +0.000 NA
ATOM     19  H   UNL     1       7.642   8.096  16.460  0.00  0.00    +0.000 HD
BRANCH  18  20
ATOM     20  C   UNL     1       8.210   7.801  18.389  0.00  0.00    +0.000 C 
BRANCH  20  21
ATOM     21  C   UNL     1       8.544   9.272  18.451  0.00  0.00    +0.000 A 
ATOM     22  C   UNL     1       8.010  10.166  17.489  0.00  0.00    +0.000 A 
ATOM     23  C   UNL     1       8.302  11.532  17.535  0.00  0.00    +0.000 A 
ATOM     24  C   UNL     1       9.126  11.973  18.548  0.00  0.00    +0.000 A 
ATOM     25  C   UNL     1       9.640  11.112  19.489  0.00  0.00    +0.000 A 
ATOM     26  C   UNL     1       9.367   9.763  19.473  0.00  0.00    +0.000 A 
ATOM     27  O   UNL     1      10.424  11.747  20.402  0.00  0.00    +0.000 OA
ATOM     28  C   UNL     1      10.371  13.099  19.905  0.00  0.00    +0.000 C 
ATOM     29  O   UNL     1       9.523  13.257  18.749  0.00  0.00    +0.000 OA
ENDBRANCH  20  21
ENDBRANCH  18  20
ENDBRANCH   3  18
TORSDOF 5
ENDMDL
MODEL 9
REMARK VINA RESULT:      -7.7      2.079      4.105
REMARK  Name = 
REMARK  7 active torsions:
REMARK  status: ('A' for Active; 'I' for Inactive)
REMARK    1  A    between atoms: C_1  and  C_2
REMARK    2  A    between atoms: C_4  and  C_5
REMARK    3  A    between atoms: N_6  and  C_7
REMARK    4  A    between atoms: C_8  and  O_9
REMARK    5  A    between atoms: C_10  and  N_11
REMARK    6  A    between atoms: N_11  and  C_12
REMARK    7  A    between atoms: C_12  and  C_13
REMARK                            x       y       z     vdW  Elec       q    Type
REMARK                         _______ _______ _______ _____ _____    ______ ____
ROOT
ATOM      1  C   UNL     1       5.068   3.912  18.138  0.00  0.00    +0.000 C 
ATOM      2  C   UNL     1       5.129   5.376  18.616  0.00  0.00    +0.000 C 
ATOM      3  C   UNL     1       5.274   6.494  17.533  0.00  0.00    +0.000 C 
ATOM      4  C   UNL     1       5.451   5.928  16.101  0.00  0.00    +0.000 C 
ATOM      5  C   UNL     1       6.793   5.258  15.877  0.00  0.00    +0.000 C 
ATOM      6  O   UNL     1       6.637   3.923  16.362  0.00  0.00    +0.000 OA
ATOM      7  C   UNL     1       5.217   3.780  16.621  0.00  0.00    +0.000 C 
ATOM      8  O   UNL     1       4.557   4.834  15.917  0.00  0.00    +0.000 OA
ENDROOT
BRANCH   1  14
ATOM      9  C   UNL     1       0.381   2.737  18.615  0.00  0.00    +0.000 C 
ATOM     10  C   UNL     1       1.837   2.732  18.889  0.00  0.00    +0.000 A 
ATOM     11  C   UNL     1       2.527   2.017  19.890  0.00  0.00    +0.000 A 
ATOM     12  C   UNL     1       3.853   2.364  19.739  0.00  0.00    +0.000 A 
ATOM     13  C   UNL     1       5.044   1.960  20.525  0.00  0.00    +0.000 C 
ATOM     14  N   UNL     1       3.888   3.234  18.672  0.00  0.00    +0.000 N 
ATOM     15  N   UNL     1       2.670   3.472  18.150  0.00  0.00    +0.000 NA
ENDBRANCH   1  14
BRANCH   2  16
ATOM     16  O   UNL     1       6.200   5.544  19.577  0.00  0.00    +0.000 OA
ATOM     17  H   UNL     1       6.389   4.677  19.979  0.00  0.00    +0.000 HD
ENDBRANCH   2  16
BRANCH   3  18
ATOM     18  N   UNL     1       4.095   7.391  17.549  0.00  0.00    +0.000 NA
ATOM     19  H   UNL     1       4.336   8.300  17.944  0.00  0.00    +0.000 HD
BRANCH  18  20
ATOM     20  C   UNL     1       2.959   6.846  18.293  0.00  0.00    +0.000 C 
BRANCH  20  21
ATOM     21  C   UNL     1       2.115   7.964  18.854  0.00  0.00    +0.000 A 
ATOM     22  C   UNL     1       1.648   9.000  18.006  0.00  0.00    +0.000 A 
ATOM     23  C   UNL     1       0.859  10.040  18.507  0.00  0.00    +0.000 A 
ATOM     24  C   UNL     1       0.554  10.017  19.850  0.00  0.00    +0.000 A 
ATOM     25  C   UNL     1       0.997   9.010  20.677  0.00  0.00    +0.000 A 
ATOM     26  C   UNL     1       1.771   7.971  20.213  0.00  0.00    +0.000 A 
ATOM     27  O   UNL     1       0.584   9.172  21.962  0.00  0.00    +0.000 OA
ATOM     28  C   UNL     1      -0.140  10.415  21.855  0.00  0.00    +0.000 C 
ATOM     29  O   UNL     1      -0.191  10.940  20.513  0.00  0.00    +0.000 OA
ENDBRANCH  20  21
ENDBRANCH  18  20
ENDBRANCH   3  18
TORSDOF 5
ENDMDL
