MODEL 1
REMARK VINA RESULT:      -8.2      0.000      0.000
REMARK  Name = 
REMARK  6 active torsions:
REMARK  status: ('A' for Active; 'I' for Inactive)
REMARK    1  A    between atoms: N_1  and  C_2
REMARK    2  A    between atoms: N_10  and  C_11
REMARK    3  A    between atoms: C_13  and  C_14
REMARK    4  A    between atoms: C_14  and  N_15
REMARK    5  A    between atoms: C_27  and  O_28
REMARK    6  A    between atoms: C_29  and  O_30
REMARK                            x       y       z     vdW  Elec       q    Type
REMARK                         _______ _______ _______ _____ _____    ______ ____
ROOT
ATOM      1  C   UNL     1       2.116   5.084  19.426  0.00  0.00    +0.000 C 
ATOM      2  O   UNL     1       3.219   4.764  20.271  0.00  0.00    +0.000 OA
ATOM      3  C   UNL     1       3.690   3.480  19.892  0.00  0.00    +0.000 C 
ATOM      4  C   UNL     1       2.622   2.851  18.971  0.00  0.00    +0.000 C 
ATOM      5  C   UNL     1       2.125   4.099  18.263  0.00  0.00    +0.000 C 
ENDROOT
BRANCH   1  14
ATOM      6  C   UNL     1       1.468   9.928  19.312  0.00  0.00    +0.000 A 
ATOM      7  N   UNL     1       0.952   9.987  20.574  0.00  0.00    +0.000 NA
ATOM      8  C   UNL     1       0.849   8.868  21.357  0.00  0.00    +0.000 A 
ATOM      9  N   UNL     1       1.243   7.654  20.878  0.00  0.00    +0.000 NA
ATOM     10  C   UNL     1       1.758   7.583  19.622  0.00  0.00    +0.000 A 
ATOM     11  C   UNL     1       1.896   8.690  18.843  0.00  0.00    +0.000 A 
ATOM     12  C   UNL     1       2.454   8.283  17.648  0.00  0.00    +0.000 A 
ATOM     13  C   UNL     1       2.610   6.904  17.762  0.00  0.00    +0.000 A 
ATOM     14  N   UNL     1       2.166   6.477  18.972  0.00  0.00    +0.000 N 
BRANCH   6  15
ATOM     15  N   UNL     1       1.516  11.089  18.503  0.00  0.00    +0.000 N 
ATOM     16  H   UNL     1       0.649  11.596  18.280  0.00  0.00    +0.000 HD
ATOM     17  H   UNL     1       2.398  11.397  18.069  0.00  0.00    +0.000 HD
ENDBRANCH   6  15
ENDBRANCH   1  14
BRANCH   4  18
ATOM     18  O   UNL     1       1.637   2.201  19.758  0.00  0.00    +0.000 OA
ATOM     19  H   UNL     1       1.695   1.217  19.678  0.00  0.00    +0.000 HD
ENDBRANCH   4  18
BRANCH   5  20
ATOM     20  O   UNL     1       0.887   4.001  17.591  0.00  0.00    +0.000 OA
ATOM     21  H   UNL     1       0.191   4.507  18.085  0.00  0.00    +0.000 HD
ENDBRANCH   5  20
BRANCH   3  22
ATOM     22  C   UNL     1       5.090   3.616  19.219  0.00  0.00    +0.000 C 
BRANCH  22  23
ATOM     23  N   UNL     1       5.347   4.951  18.575  0.00  0.00    +0.000 NA
ATOM     24  C   UNL     1       6.402   5.676  19.344  0.00  0.00    +0.000 C 
ATOM     25  C   UNL     1       7.344   6.324  18.352  0.00  0.00    +0.000 C 
ATOM     26  F   UNL     1       8.598   6.558  18.888  0.00  0.00    +0.000 F 
ATOM     27  F   UNL     1       6.832   7.527  17.904  0.00  0.00    +0.000 F 
ATOM     28  C   UNL     1       7.359   5.264  17.272  0.00  0.00    +0.000 C 
ATOM     29  C   UNL     1       5.859   4.891  17.149  0.00  0.00    +0.000 C 
ATOM     30  C   UNL     1       5.638   3.513  16.447  0.00  0.00    +0.000 C 
ATOM     31  C   UNL     1       6.165   3.504  15.008  0.00  0.00    +0.000 C 
ATOM     32  N   UNL     1       5.491   4.518  14.188  0.00  0.00    +0.000 NA
ATOM     33  C   UNL     1       5.619   5.864  14.763  0.00  0.00    +0.000 C 
ATOM     34  C   UNL     1       5.101   5.917  16.228  0.00  0.00    +0.000 C 
ATOM     35  H   UNL     1       4.477   4.275  14.095  0.00  0.00    +0.000 HD
ENDBRANCH  22  23
ENDBRANCH   3  22
TORSDOF 6
ENDMDL
MODEL 2
REMARK VINA RESULT:      -8.0      3.411      5.232
REMARK  Name = 
REMARK  6 active torsions:
REMARK  status: ('A' for Active; 'I' for Inactive)
REMARK    1  A    between atoms: N_1  and  C_2
REMARK    2  A    between atoms: N_10  and  C_11
REMARK    3  A    between atoms: C_13  and  C_14
REMARK    4  A    between atoms: C_14  and  N_15
REMARK    5  A    between atoms: C_27  and  O_28
REMARK    6  A    between atoms: C_29  and  O_30
REMARK                            x       y       z     vdW  Elec       q    Type
REMARK                         _______ _______ _______ _____ _____    ______ ____
ROOT
ATOM      1  C   UNL     1       0.530   9.908  20.185  0.00  0.00    +0.000 C 
ATOM      2  O   UNL     1       1.533   9.088  19.590  0.00  0.00    +0.000 OA
ATOM      3  C   UNL     1       1.867   8.074  20.525  0.00  0.00    +0.000 C 
ATOM      4  C   UNL     1       1.258   8.482  21.884  0.00  0.00    +0.000 C 
ATOM      5  C   UNL     1      -0.010   9.167  21.403  0.00  0.00    +0.000 C 
ENDROOT
BRANCH   1  14
ATOM      6  C   UNL     1      -3.547  11.851  18.314  0.00  0.00    +0.000 A 
ATOM      7  N   UNL     1      -3.806  12.613  19.416  0.00  0.00    +0.000 NA
ATOM      8  C   UNL     1      -2.956  12.629  20.490  0.00  0.00    +0.000 A 
ATOM      9  N   UNL     1      -1.833  11.858  20.490  0.00  0.00    +0.000 NA
ATOM     10  C   UNL     1      -1.564  11.093  19.398  0.00  0.00    +0.000 A 
ATOM     11  C   UNL     1      -2.383  11.090  18.311  0.00  0.00    +0.000 A 
ATOM     12  C   UNL     1      -1.828  10.230  17.384  0.00  0.00    +0.000 A 
ATOM     13  C   UNL     1      -0.677   9.728  17.987  0.00  0.00    +0.000 A 
ATOM     14  N   UNL     1      -0.530  10.250  19.231  0.00  0.00    +0.000 N 
BRANCH   6  15
ATOM     15  N   UNL     1      -4.467  11.811  17.239  0.00  0.00    +0.000 N 
ATOM     16  H   UNL     1      -4.593  10.942  16.702  0.00  0.00    +0.000 HD
ATOM     17  H   UNL     1      -4.963  12.661  16.934  0.00  0.00    +0.000 HD
ENDBRANCH   6  15
ENDBRANCH   1  14
BRANCH   4  18
ATOM     18  O   UNL     1       2.154   9.341  22.571  0.00  0.00    +0.000 OA
ATOM     19  H   UNL     1       3.088   9.022  22.508  0.00  0.00    +0.000 HD
ENDBRANCH   4  18
BRANCH   5  20
ATOM     20  O   UNL     1      -0.676  10.001  22.328  0.00  0.00    +0.000 OA
ATOM     21  H   UNL     1      -0.322   9.846  23.241  0.00  0.00    +0.000 HD
ENDBRANCH   5  20
BRANCH   3  22
ATOM     22  C   UNL     1       1.359   6.695  20.004  0.00  0.00    +0.000 C 
BRANCH  22  23
ATOM     23  N   UNL     1       2.250   6.047  18.981  0.00  0.00    +0.000 NA
ATOM     24  C   UNL     1       3.646   6.550  19.153  0.00  0.00    +0.000 C 
ATOM     25  C   UNL     1       4.589   5.373  19.013  0.00  0.00    +0.000 C 
ATOM     26  F   UNL     1       5.799   5.586  19.649  0.00  0.00    +0.000 F 
ATOM     27  F   UNL     1       4.841   5.103  17.681  0.00  0.00    +0.000 F 
ATOM     28  C   UNL     1       3.762   4.293  19.676  0.00  0.00    +0.000 C 
ATOM     29  C   UNL     1       2.353   4.537  19.078  0.00  0.00    +0.000 C 
ATOM     30  C   UNL     1       1.219   3.873  19.922  0.00  0.00    +0.000 C 
ATOM     31  C   UNL     1       1.360   2.349  19.986  0.00  0.00    +0.000 C 
ATOM     32  N   UNL     1       1.305   1.752  18.645  0.00  0.00    +0.000 NA
ATOM     33  C   UNL     1       2.325   2.316  17.750  0.00  0.00    +0.000 C 
ATOM     34  C   UNL     1       2.221   3.865  17.662  0.00  0.00    +0.000 C 
ATOM     35  H   UNL     1       0.356   1.908  18.233  0.00  0.00    +0.000 HD
ENDBRANCH  22  23
ENDBRANCH   3  22
TORSDOF 6
ENDMDL
MODEL 3
REMARK VINA RESULT:      -7.8      6.495     11.007
REMARK  Name = 
REMARK  6 active torsions:
REMARK  status: ('A' for Active; 'I' for Inactive)
REMARK    1  A    between atoms: N_1  and  C_2
REMARK    2  A    between atoms: N_10  and  C_11
REMARK    3  A    between atoms: C_13  and  C_14
REMARK    4  A    between atoms: C_14  and  N_15
REMARK    5  A    between atoms: C_27  and  O_28
REMARK    6  A    between atoms: C_29  and  O_30
REMARK                            x       y       z     vdW  Elec       q    Type
REMARK                         _______ _______ _______ _____ _____    ______ ____
ROOT
ATOM      1  C   UNL     1       0.107  10.933  19.055  0.00  0.00    +0.000 C 
ATOM      2  O   UNL     1      -0.195  11.998  19.954  0.00  0.00    +0.000 OA
ATOM      3  C   UNL     1      -1.433  12.561  19.550  0.00  0.00    +0.000 C 
ATOM      4  C   UNL     1      -1.754  12.010  18.143  0.00  0.00    +0.000 C 
ATOM      5  C   UNL     1      -1.163  10.616  18.272  0.00  0.00    +0.000 C 
ENDROOT
BRANCH   1  14
ATOM      6  C   UNL     1       2.424   6.714  19.909  0.00  0.00    +0.000 A 
ATOM      7  N   UNL     1       2.988   6.660  18.667  0.00  0.00    +0.000 NA
ATOM      8  C   UNL     1       2.801   7.662  17.753  0.00  0.00    +0.000 A 
ATOM      9  N   UNL     1       2.019   8.736  18.059  0.00  0.00    +0.000 NA
ATOM     10  C   UNL     1       1.451   8.801  19.292  0.00  0.00    +0.000 A 
ATOM     11  C   UNL     1       1.653   7.829  20.223  0.00  0.00    +0.000 A 
ATOM     12  C   UNL     1       0.957   8.197  21.357  0.00  0.00    +0.000 A 
ATOM     13  C   UNL     1       0.335   9.400  21.035  0.00  0.00    +0.000 A 
ATOM     14  N   UNL     1       0.630   9.758  19.760  0.00  0.00    +0.000 N 
BRANCH   6  15
ATOM     15  N   UNL     1       2.590   5.642  20.818  0.00  0.00    +0.000 N 
ATOM     16  H   UNL     1       1.910   5.502  21.577  0.00  0.00    +0.000 HD
ATOM     17  H   UNL     1       3.423   5.037  20.778  0.00  0.00    +0.000 HD
ENDBRANCH   6  15
ENDBRANCH   1  14
BRANCH   4  18
ATOM     18  O   UNL     1      -1.125  12.816  17.160  0.00  0.00    +0.000 OA
ATOM     19  H   UNL     1      -0.730  13.633  17.554  0.00  0.00    +0.000 HD
ENDBRANCH   4  18
BRANCH   5  20
ATOM     20  O   UNL     1      -0.929   9.908  17.072  0.00  0.00    +0.000 OA
ATOM     21  H   UNL     1      -1.589   9.174  16.977  0.00  0.00    +0.000 HD
ENDBRANCH   5  20
BRANCH   3  22
ATOM     22  C   UNL     1      -2.527  12.230  20.612  0.00  0.00    +0.000 C 
BRANCH  22  23
ATOM     23  N   UNL     1      -3.615  13.262  20.730  0.00  0.00    +0.000 NA
ATOM     24  C   UNL     1      -4.778  12.853  19.887  0.00  0.00    +0.000 C 
ATOM     25  C   UNL     1      -6.044  13.120  20.673  0.00  0.00    +0.000 C 
ATOM     26  F   UNL     1      -7.103  12.333  20.255  0.00  0.00    +0.000 F 
ATOM     27  F   UNL     1      -6.419  14.445  20.562  0.00  0.00    +0.000 F 
ATOM     28  C   UNL     1      -5.568  12.768  22.066  0.00  0.00    +0.000 C 
ATOM     29  C   UNL     1      -4.177  13.449  22.126  0.00  0.00    +0.000 C 
ATOM     30  C   UNL     1      -3.273  12.871  23.262  0.00  0.00    +0.000 C 
ATOM     31  C   UNL     1      -3.879  13.090  24.652  0.00  0.00    +0.000 C 
ATOM     32  N   UNL     1      -4.063  14.520  24.934  0.00  0.00    +0.000 NA
ATOM     33  C   UNL     1      -4.892  15.178  23.914  0.00  0.00    +0.000 C 
ATOM     34  C   UNL     1      -4.315  14.975  22.485  0.00  0.00    +0.000 C 
ATOM     35  H   UNL     1      -3.130  14.990  24.980  0.00  0.00    +0.000 HD
ENDBRANCH  22  23
ENDBRANCH   3  22
TORSDOF 6
ENDMDL
MODEL 4
REMARK VINA RESULT:      -7.7      3.707      5.286
REMARK  Name = 
REMARK  6 active torsions:
REMARK  status: ('A' for Active; 'I' for Inactive)
REMARK    1  A    between atoms: N_1  and  C_2
REMARK    2  A    between atoms: N_10  and  C_11
REMARK    3  A    between atoms: C_13  and  C_14
REMARK    4  A    between atoms: C_14  and  N_15
REMARK    5  A    between atoms: C_27  and  O_28
REMARK    6  A    between atoms: C_29  and  O_30
REMARK                            x       y       z     vdW  Elec       q    Type
REMARK                         _______ _______ _______ _____ _____    ______ ____
ROOT
ATOM      1  C   UNL     1       0.413  10.029  20.213  0.00  0.00    +0.000 C 
ATOM      2  O   UNL     1       1.544   9.492  19.531  0.00  0.00    +0.000 OA
ATOM      3  C   UNL     1       2.001   8.373  20.274  0.00  0.00    +0.000 C 
ATOM      4  C   UNL     1       1.299   8.416  21.650  0.00  0.00    +0.000 C 
ATOM      5  C   UNL     1      -0.043   8.995  21.236  0.00  0.00    +0.000 C 
ENDROOT
BRANCH   1  14
ATOM      6  C   UNL     1      -3.719  11.971  18.466  0.00  0.00    +0.000 A 
ATOM      7  N   UNL     1      -3.993  12.663  19.611  0.00  0.00    +0.000 NA
ATOM      8  C   UNL     1      -3.139  12.638  20.682  0.00  0.00    +0.000 A 
ATOM      9  N   UNL     1      -1.996  11.898  20.635  0.00  0.00    +0.000 NA
ATOM     10  C   UNL     1      -1.713  11.204  19.501  0.00  0.00    +0.000 A 
ATOM     11  C   UNL     1      -2.535  11.242  18.417  0.00  0.00    +0.000 A 
ATOM     12  C   UNL     1      -1.963  10.451  17.441  0.00  0.00    +0.000 A 
ATOM     13  C   UNL     1      -0.798   9.944  18.011  0.00  0.00    +0.000 A 
ATOM     14  N   UNL     1      -0.658  10.398  19.283  0.00  0.00    +0.000 N 
BRANCH   6  15
ATOM     15  N   UNL     1      -4.642  11.969  17.393  0.00  0.00    +0.000 N 
ATOM     16  H   UNL     1      -4.392  11.523  16.501  0.00  0.00    +0.000 HD
ATOM     17  H   UNL     1      -5.538  12.473  17.464  0.00  0.00    +0.000 HD
ENDBRANCH   6  15
ENDBRANCH   1  14
BRANCH   4  18
ATOM     18  O   UNL     1       2.037   9.241  22.537  0.00  0.00    +0.000 OA
ATOM     19  H   UNL     1       1.601  10.120  22.667  0.00  0.00    +0.000 HD
ENDBRANCH   4  18
BRANCH   5  20
ATOM     20  O   UNL     1      -0.852   9.529  22.263  0.00  0.00    +0.000 OA
ATOM     21  H   UNL     1      -1.443   8.823  22.632  0.00  0.00    +0.000 HD
ENDBRANCH   5  20
BRANCH   3  22
ATOM     22  C   UNL     1       1.720   7.065  19.473  0.00  0.00    +0.000 C 
BRANCH  22  23
ATOM     23  N   UNL     1       2.601   5.904  19.843  0.00  0.00    +0.000 NA
ATOM     24  C   UNL     1       1.751   4.706  20.117  0.00  0.00    +0.000 C 
ATOM     25  C   UNL     1       2.416   3.504  19.481  0.00  0.00    +0.000 C 
ATOM     26  F   UNL     1       1.519   2.486  19.207  0.00  0.00    +0.000 F 
ATOM     27  F   UNL     1       3.406   3.000  20.303  0.00  0.00    +0.000 F 
ATOM     28  C   UNL     1       2.974   4.144  18.228  0.00  0.00    +0.000 C 
ATOM     29  C   UNL     1       3.577   5.466  18.769  0.00  0.00    +0.000 C 
ATOM     30  C   UNL     1       3.807   6.526  17.644  0.00  0.00    +0.000 C 
ATOM     31  C   UNL     1       4.804   6.042  16.586  0.00  0.00    +0.000 C 
ATOM     32  N   UNL     1       6.115   5.755  17.183  0.00  0.00    +0.000 NA
ATOM     33  C   UNL     1       6.021   4.774  18.273  0.00  0.00    +0.000 C 
ATOM     34  C   UNL     1       5.012   5.224  19.367  0.00  0.00    +0.000 C 
ATOM     35  H   UNL     1       6.534   6.641  17.549  0.00  0.00    +0.000 HD
ENDBRANCH  22  23
ENDBRANCH   3  22
TORSDOF 6
ENDMDL
MODEL 5
REMARK VINA RESULT:      -7.6      3.809      6.220
REMARK  Name = 
REMARK  6 active torsions:
REMARK  status: ('A' for Active; 'I' for Inactive)
REMARK    1  A    between atoms: N_1  and  C_2
REMARK    2  A    between atoms: N_10  and  C_11
REMARK    3  A    between atoms: C_13  and  C_14
REMARK    4  A    between atoms: C_14  and  N_15
REMARK    5  A    between atoms: C_27  and  O_28
REMARK    6  A    between atoms: C_29  and  O_30
REMARK                            x       y       z     vdW  Elec       q    Type
REMARK                         _______ _______ _______ _____ _____    ______ ____
ROOT
ATOM      1  C   UNL     1       0.224  11.322  19.500  0.00  0.00    +0.000 C 
ATOM      2  O   UNL     1       0.076  10.096  18.787  0.00  0.00    +0.000 OA
ATOM      3  C   UNL     1       1.359   9.720  18.312  0.00  0.00    +0.000 C 
ATOM      4  C   UNL     1       2.290  10.941  18.480  0.00  0.00    +0.000 C 
ATOM      5  C   UNL     1       1.713  11.530  19.756  0.00  0.00    +0.000 C 
ENDROOT
BRANCH   1  14
ATOM      6  C   UNL     1      -3.280  12.363  22.745  0.00  0.00    +0.000 A 
ATOM      7  N   UNL     1      -4.037  13.063  21.850  0.00  0.00    +0.000 NA
ATOM      8  C   UNL     1      -3.662  13.183  20.538  0.00  0.00    +0.000 A 
ATOM      9  N   UNL     1      -2.502  12.619  20.098  0.00  0.00    +0.000 NA
ATOM     10  C   UNL     1      -1.740  11.920  20.981  0.00  0.00    +0.000 A 
ATOM     11  C   UNL     1      -2.113  11.766  22.280  0.00  0.00    +0.000 A 
ATOM     12  C   UNL     1      -1.140  11.004  22.898  0.00  0.00    +0.000 A 
ATOM     13  C   UNL     1      -0.190  10.748  21.913  0.00  0.00    +0.000 A 
ATOM     14  N   UNL     1      -0.556  11.327  20.741  0.00  0.00    +0.000 N 
BRANCH   6  15
ATOM     15  N   UNL     1      -3.661  12.297  24.107  0.00  0.00    +0.000 N 
ATOM     16  H   UNL     1      -4.485  11.748  24.384  0.00  0.00    +0.000 HD
ATOM     17  H   UNL     1      -3.168  12.852  24.822  0.00  0.00    +0.000 HD
ENDBRANCH   6  15
ENDBRANCH   1  14
BRANCH   4  18
ATOM     18  O   UNL     1       2.175  11.788  17.348  0.00  0.00    +0.000 OA
ATOM     19  H   UNL     1       1.554  12.539  17.514  0.00  0.00    +0.000 HD
ENDBRANCH   4  18
BRANCH   5  20
ATOM     20  O   UNL     1       2.057  12.867  20.054  0.00  0.00    +0.000 OA
ATOM     21  H   UNL     1       1.937  13.436  19.251  0.00  0.00    +0.000 HD
ENDBRANCH   5  20
BRANCH   3  22
ATOM     22  C   UNL     1       1.849   8.453  19.080  0.00  0.00    +0.000 C 
BRANCH  22  23
ATOM     23  N   UNL     1       2.290   7.319  18.197  0.00  0.00    +0.000 NA
ATOM     24  C   UNL     1       3.613   7.651  17.588  0.00  0.00    +0.000 C 
ATOM     25  C   UNL     1       4.477   6.410  17.639  0.00  0.00    +0.000 C 
ATOM     26  F   UNL     1       5.829   6.704  17.607  0.00  0.00    +0.000 F 
ATOM     27  F   UNL     1       4.191   5.570  16.578  0.00  0.00    +0.000 F 
ATOM     28  C   UNL     1       4.035   5.835  18.967  0.00  0.00    +0.000 C 
ATOM     29  C   UNL     1       2.495   5.993  18.904  0.00  0.00    +0.000 C 
ATOM     30  C   UNL     1       1.823   5.910  20.312  0.00  0.00    +0.000 C 
ATOM     31  C   UNL     1       2.052   4.551  20.983  0.00  0.00    +0.000 C 
ATOM     32  N   UNL     1       1.496   3.458  20.175  0.00  0.00    +0.000 NA
ATOM     33  C   UNL     1       2.047   3.446  18.813  0.00  0.00    +0.000 C 
ATOM     34  C   UNL     1       1.842   4.811  18.097  0.00  0.00    +0.000 C 
ATOM     35  H   UNL     1       0.455   3.552  20.128  0.00  0.00    +0.000 HD
ENDBRANCH  22  23
ENDBRANCH   3  22
TORSDOF 6
ENDMDL
MODEL 6
REMARK VINA RESULT:      -7.5      6.441      9.638
REMARK  Name = 
REMARK  6 active torsions:
REMARK  status: ('A' for Active; 'I' for Inactive)
REMARK    1  A    between atoms: N_1  and  C_2
REMARK    2  A    between atoms: N_10  and  C_11
REMARK    3  A    between atoms: C_13  and  C_14
REMARK    4  A    between atoms: C_14  and  N_15
REMARK    5  A    between atoms: C_27  and  O_28
REMARK    6  A    between atoms: C_29  and  O_30
REMARK                            x       y       z     vdW  Elec       q    Type
REMARK                         _______ _______ _______ _____ _____    ______ ____
ROOT
ATOM      1  C   UNL     1      -5.479  10.732  18.066  0.00  0.00    +0.000 C 
ATOM      2  O   UNL     1      -4.342   9.913  18.332  0.00  0.00    +0.000 OA
ATOM      3  C   UNL     1      -3.286  10.366  17.500  0.00  0.00    +0.000 C 
ATOM      4  C   UNL     1      -3.901  11.313  16.446  0.00  0.00    +0.000 C 
ATOM      5  C   UNL     1      -5.000  11.948  17.282  0.00  0.00    +0.000 C 
ENDROOT
BRANCH   1  14
ATOM      6  C   UNL     1      -6.434  12.846  22.369  0.00  0.00    +0.000 A 
ATOM      7  N   UNL     1      -5.327  13.644  22.333  0.00  0.00    +0.000 NA
ATOM      8  C   UNL     1      -4.477  13.637  21.260  0.00  0.00    +0.000 A 
ATOM      9  N   UNL     1      -4.707  12.809  20.203  0.00  0.00    +0.000 NA
ATOM     10  C   UNL     1      -5.806  12.008  20.228  0.00  0.00    +0.000 A 
ATOM     11  C   UNL     1      -6.677  12.025  21.273  0.00  0.00    +0.000 A 
ATOM     12  C   UNL     1      -7.678  11.118  20.986  0.00  0.00    +0.000 A 
ATOM     13  C   UNL     1      -7.337  10.568  19.753  0.00  0.00    +0.000 A 
ATOM     14  N   UNL     1      -6.177  11.108  19.299  0.00  0.00    +0.000 N 
BRANCH   6  15
ATOM     15  N   UNL     1      -7.269  12.831  23.512  0.00  0.00    +0.000 N 
ATOM     16  H   UNL     1      -8.285  12.949  23.408  0.00  0.00    +0.000 HD
ATOM     17  H   UNL     1      -6.868  12.778  24.460  0.00  0.00    +0.000 HD
ENDBRANCH   6  15
ENDBRANCH   1  14
BRANCH   4  18
ATOM     18  O   UNL     1      -4.377  10.557  15.344  0.00  0.00    +0.000 OA
ATOM     19  H   UNL     1      -4.595   9.628  15.604  0.00  0.00    +0.000 HD
ENDBRANCH   4  18
BRANCH   5  20
ATOM     20  O   UNL     1      -6.029  12.616  16.583  0.00  0.00    +0.000 OA
ATOM     21  H   UNL     1      -6.785  11.996  16.416  0.00  0.00    +0.000 HD
ENDBRANCH   5  20
BRANCH   3  22
ATOM     22  C   UNL     1      -2.185  11.040  18.375  0.00  0.00    +0.000 C 
BRANCH  22  23
ATOM     23  N   UNL     1      -1.142  10.096  18.905  0.00  0.00    +0.000 NA
ATOM     24  C   UNL     1      -0.018  10.001  17.926  0.00  0.00    +0.000 C 
ATOM     25  C   UNL     1       1.282  10.023  18.701  0.00  0.00    +0.000 C 
ATOM     26  F   UNL     1       2.348  10.464  17.936  0.00  0.00    +0.000 F 
ATOM     27  F   UNL     1       1.587   8.765  19.184  0.00  0.00    +0.000 F 
ATOM     28  C   UNL     1       0.915  10.993  19.804  0.00  0.00    +0.000 C 
ATOM     29  C   UNL     1      -0.500  10.512  20.214  0.00  0.00    +0.000 C 
ATOM     30  C   UNL     1      -1.300  11.598  21.001  0.00  0.00    +0.000 C 
ATOM     31  C   UNL     1      -0.617  11.980  22.318  0.00  0.00    +0.000 C 
ATOM     32  N   UNL     1      -0.483  10.817  23.205  0.00  0.00    +0.000 NA
ATOM     33  C   UNL     1       0.246   9.716  22.561  0.00  0.00    +0.000 C 
ATOM     34  C   UNL     1      -0.411   9.301  21.215  0.00  0.00    +0.000 C 
ATOM     35  H   UNL     1      -1.432  10.485  23.492  0.00  0.00    +0.000 HD
ENDBRANCH  22  23
ENDBRANCH   3  22
TORSDOF 6
ENDMDL
MODEL 7
REMARK VINA RESULT:      -7.5      5.893     10.471
REMARK  Name = 
REMARK  6 active torsions:
REMARK  status: ('A' for Active; 'I' for Inactive)
REMARK    1  A    between atoms: N_1  and  C_2
REMARK    2  A    between atoms: N_10  and  C_11
REMARK    3  A    between atoms: C_13  and  C_14
REMARK    4  A    between atoms: C_14  and  N_15
REMARK    5  A    between atoms: C_27  and  O_28
REMARK    6  A    between atoms: C_29  and  O_30
REMARK                            x       y       z     vdW  Elec       q    Type
REMARK                         _______ _______ _______ _____ _____    ______ ____
ROOT
ATOM      1  C   UNL     1       0.068  10.992  19.038  0.00  0.00    +0.000 C 
ATOM      2  O   UNL     1      -0.254  12.083  19.897  0.00  0.00    +0.000 OA
ATOM      3  C   UNL     1      -1.461  12.660  19.422  0.00  0.00    +0.000 C 
ATOM      4  C   UNL     1      -1.726  12.082  18.014  0.00  0.00    +0.000 C 
ATOM      5  C   UNL     1      -1.169  10.680  18.203  0.00  0.00    +0.000 C 
ENDROOT
BRANCH   1  14
ATOM      6  C   UNL     1       2.266   6.757  20.100  0.00  0.00    +0.000 A 
ATOM      7  N   UNL     1       2.892   6.667  18.891  0.00  0.00    +0.000 NA
ATOM      8  C   UNL     1       2.769   7.652  17.948  0.00  0.00    +0.000 A 
ATOM      9  N   UNL     1       1.992   8.744  18.189  0.00  0.00    +0.000 NA
ATOM     10  C   UNL     1       1.362   8.845  19.390  0.00  0.00    +0.000 A 
ATOM     11  C   UNL     1       1.498   7.890  20.350  0.00  0.00    +0.000 A 
ATOM     12  C   UNL     1       0.750   8.294  21.438  0.00  0.00    +0.000 A 
ATOM     13  C   UNL     1       0.166   9.500  21.059  0.00  0.00    +0.000 A 
ATOM     14  N   UNL     1       0.533   9.825  19.794  0.00  0.00    +0.000 N 
BRANCH   6  15
ATOM     15  N   UNL     1       2.365   5.702  21.038  0.00  0.00    +0.000 N 
ATOM     16  H   UNL     1       2.419   4.727  20.713  0.00  0.00    +0.000 HD
ATOM     17  H   UNL     1       2.311   5.886  22.051  0.00  0.00    +0.000 HD
ENDBRANCH   6  15
ENDBRANCH   1  14
BRANCH   4  18
ATOM     18  O   UNL     1      -1.036  12.852  17.044  0.00  0.00    +0.000 OA
ATOM     19  H   UNL     1      -0.229  13.282  17.423  0.00  0.00    +0.000 HD
ENDBRANCH   4  18
BRANCH   5  20
ATOM     20  O   UNL     1      -0.894   9.940  17.032  0.00  0.00    +0.000 OA
ATOM     21  H   UNL     1      -0.085  10.299  16.585  0.00  0.00    +0.000 HD
ENDBRANCH   5  20
BRANCH   3  22
ATOM     22  C   UNL     1      -2.610  12.376  20.438  0.00  0.00    +0.000 C 
BRANCH  22  23
ATOM     23  N   UNL     1      -2.255  12.645  21.874  0.00  0.00    +0.000 NA
ATOM     24  C   UNL     1      -1.318  13.806  21.941  0.00  0.00    +0.000 C 
ATOM     25  C   UNL     1      -1.744  14.686  23.097  0.00  0.00    +0.000 C 
ATOM     26  F   UNL     1      -1.322  15.996  22.949  0.00  0.00    +0.000 F 
ATOM     27  F   UNL     1      -1.244  14.203  24.291  0.00  0.00    +0.000 F 
ATOM     28  C   UNL     1      -3.247  14.542  22.997  0.00  0.00    +0.000 C 
ATOM     29  C   UNL     1      -3.422  13.019  22.767  0.00  0.00    +0.000 C 
ATOM     30  C   UNL     1      -4.821  12.657  22.175  0.00  0.00    +0.000 C 
ATOM     31  C   UNL     1      -5.967  13.047  23.116  0.00  0.00    +0.000 C 
ATOM     32  N   UNL     1      -5.854  12.357  24.407  0.00  0.00    +0.000 NA
ATOM     33  C   UNL     1      -4.560  12.613  25.056  0.00  0.00    +0.000 C 
ATOM     34  C   UNL     1      -3.368  12.237  24.131  0.00  0.00    +0.000 C 
ATOM     35  H   UNL     1      -5.974  11.328  24.265  0.00  0.00    +0.000 HD
ENDBRANCH  22  23
ENDBRANCH   3  22
TORSDOF 6
ENDMDL
MODEL 8
REMARK VINA RESULT:      -7.4      6.384     10.849
REMARK  Name = 
REMARK  6 active torsions:
REMARK  status: ('A' for Active; 'I' for Inactive)
REMARK    1  A    between atoms: N_1  and  C_2
REMARK    2  A    between atoms: N_10  and  C_11
REMARK    3  A    between atoms: C_13  and  C_14
REMARK    4  A    between atoms: C_14  and  N_15
REMARK    5  A    between atoms: C_27  and  O_28
REMARK    6  A    between atoms: C_29  and  O_30
REMARK                            x       y       z     vdW  Elec       q    Type
REMARK                         _______ _______ _______ _____ _____    ______ ____
ROOT
ATOM      1  C   UNL     1       0.290  10.946  19.142  0.00  0.00    +0.000 C 
ATOM      2  O   UNL     1       0.134  12.000  20.089  0.00  0.00    +0.000 OA
ATOM      3  C   UNL     1      -1.113  12.626  19.830  0.00  0.00    +0.000 C 
ATOM      4  C   UNL     1      -1.603  12.126  18.454  0.00  0.00    +0.000 C 
ATOM      5  C   UNL     1      -1.067  10.704  18.491  0.00  0.00    +0.000 C 
ENDROOT
BRANCH   1  14
ATOM      6  C   UNL     1       2.584   6.662  19.680  0.00  0.00    +0.000 A 
ATOM      7  N   UNL     1       3.088   6.662  18.411  0.00  0.00    +0.000 NA
ATOM      8  C   UNL     1       2.871   7.710  17.556  0.00  0.00    +0.000 A 
ATOM      9  N   UNL     1       2.121   8.777  17.950  0.00  0.00    +0.000 NA
ATOM     10  C   UNL     1       1.613   8.788  19.211  0.00  0.00    +0.000 A 
ATOM     11  C   UNL     1       1.845   7.769  20.083  0.00  0.00    +0.000 A 
ATOM     12  C   UNL     1       1.209   8.090  21.266  0.00  0.00    +0.000 A 
ATOM     13  C   UNL     1       0.590   9.316  21.033  0.00  0.00    +0.000 A 
ATOM     14  N   UNL     1       0.829   9.732  19.763  0.00  0.00    +0.000 N 
BRANCH   6  15
ATOM     15  N   UNL     1       2.777   5.545  20.527  0.00  0.00    +0.000 N 
ATOM     16  H   UNL     1       2.559   5.616  21.530  0.00  0.00    +0.000 HD
ATOM     17  H   UNL     1       3.203   4.677  20.170  0.00  0.00    +0.000 HD
ENDBRANCH   6  15
ENDBRANCH   1  14
BRANCH   4  18
ATOM     18  O   UNL     1      -1.045  12.928  17.426  0.00  0.00    +0.000 OA
ATOM     19  H   UNL     1      -0.529  13.688  17.795  0.00  0.00    +0.000 HD
ENDBRANCH   4  18
BRANCH   5  20
ATOM     20  O   UNL     1      -0.994  10.018  17.259  0.00  0.00    +0.000 OA
ATOM     21  H   UNL     1      -0.616   9.111  17.397  0.00  0.00    +0.000 HD
ENDBRANCH   5  20
BRANCH   3  22
ATOM     22  C   UNL     1      -2.104  12.318  20.994  0.00  0.00    +0.000 C 
BRANCH  22  23
ATOM     23  N   UNL     1      -3.129  13.389  21.242  0.00  0.00    +0.000 NA
ATOM     24  C   UNL     1      -4.483  12.765  21.338  0.00  0.00    +0.000 C 
ATOM     25  C   UNL     1      -5.222  13.421  22.484  0.00  0.00    +0.000 C 
ATOM     26  F   UNL     1      -6.222  12.615  23.000  0.00  0.00    +0.000 F 
ATOM     27  F   UNL     1      -5.791  14.614  22.082  0.00  0.00    +0.000 F 
ATOM     28  C   UNL     1      -4.077  13.624  23.454  0.00  0.00    +0.000 C 
ATOM     29  C   UNL     1      -2.953  14.164  22.534  0.00  0.00    +0.000 C 
ATOM     30  C   UNL     1      -1.534  14.025  23.173  0.00  0.00    +0.000 C 
ATOM     31  C   UNL     1      -1.402  14.830  24.471  0.00  0.00    +0.000 C 
ATOM     32  N   UNL     1      -1.630  16.262  24.234  0.00  0.00    +0.000 NA
ATOM     33  C   UNL     1      -2.939  16.515  23.615  0.00  0.00    +0.000 C 
ATOM     34  C   UNL     1      -3.117  15.711  22.297  0.00  0.00    +0.000 C 
ATOM     35  H   UNL     1      -0.874  16.639  23.617  0.00  0.00    +0.000 HD
ENDBRANCH  22  23
ENDBRANCH   3  22
TORSDOF 6
ENDMDL
MODEL 9
REMARK VINA RESULT:      -7.3      4.383      8.220
REMARK  Name = 
REMARK  6 active torsions:
REMARK  status: ('A' for Active; 'I' for Inactive)
REMARK    1  A    between atoms: N_1  and  C_2
REMARK    2  A    between atoms: N_10  and  C_11
REMARK    3  A    between atoms: C_13  and  C_14
REMARK    4  A    between atoms: C_14  and  N_15
REMARK    5  A    between atoms: C_27  and  O_28
REMARK    6  A    between atoms: C_29  and  O_30
REMARK                            x       y       z     vdW  Elec       q    Type
REMARK                         _______ _______ _______ _____ _____    ______ ____
ROOT
ATOM      1  C   UNL     1       2.427   8.130  19.304  0.00  0.00    +0.000 C 
ATOM      2  O   UNL     1       1.557   8.910  20.122  0.00  0.00    +0.000 OA
ATOM      3  C   UNL     1       0.805   9.753  19.263  0.00  0.00    +0.000 C 
ATOM      4  C   UNL     1       1.471   9.705  17.870  0.00  0.00    +0.000 C 
ATOM      5  C   UNL     1       1.949   8.263  17.863  0.00  0.00    +0.000 C 
ENDROOT
BRANCH   1  14
ATOM      6  C   UNL     1       3.889   3.489  19.777  0.00  0.00    +0.000 A 
ATOM      7  N   UNL     1       5.038   3.676  19.063  0.00  0.00    +0.000 NA
ATOM      8  C   UNL     1       5.381   4.908  18.572  0.00  0.00    +0.000 A 
ATOM      9  N   UNL     1       4.564   5.981  18.769  0.00  0.00    +0.000 NA
ATOM     10  C   UNL     1       3.417   5.807  19.478  0.00  0.00    +0.000 A 
ATOM     11  C   UNL     1       3.076   4.596  19.999  0.00  0.00    +0.000 A 
ATOM     12  C   UNL     1       1.877   4.760  20.663  0.00  0.00    +0.000 A 
ATOM     13  C   UNL     1       1.535   6.098  20.486  0.00  0.00    +0.000 A 
ATOM     14  N   UNL     1       2.478   6.732  19.744  0.00  0.00    +0.000 N 
BRANCH   6  15
ATOM     15  N   UNL     1       3.529   2.197  20.228  0.00  0.00    +0.000 N 
ATOM     16  H   UNL     1       4.147   1.396  20.039  0.00  0.00    +0.000 HD
ATOM     17  H   UNL     1       2.619   2.029  20.682  0.00  0.00    +0.000 HD
ENDBRANCH   6  15
ENDBRANCH   1  14
BRANCH   4  18
ATOM     18  O   UNL     1       2.517  10.662  17.808  0.00  0.00    +0.000 OA
ATOM     19  H   UNL     1       2.285  11.420  17.216  0.00  0.00    +0.000 HD
ENDBRANCH   4  18
BRANCH   5  20
ATOM     20  O   UNL     1       2.928   7.921  16.905  0.00  0.00    +0.000 OA
ATOM     21  H   UNL     1       2.501   7.757  16.025  0.00  0.00    +0.000 HD
ENDBRANCH   5  20
BRANCH   3  22
ATOM     22  C   UNL     1      -0.685   9.293  19.256  0.00  0.00    +0.000 C 
BRANCH  22  23
ATOM     23  N   UNL     1      -1.683  10.405  19.424  0.00  0.00    +0.000 NA
ATOM     24  C   UNL     1      -1.011  11.580  20.056  0.00  0.00    +0.000 C 
ATOM     25  C   UNL     1      -1.487  12.830  19.346  0.00  0.00    +0.000 C 
ATOM     26  F   UNL     1      -0.591  13.878  19.461  0.00  0.00    +0.000 F 
ATOM     27  F   UNL     1      -2.706  13.245  19.850  0.00  0.00    +0.000 F 
ATOM     28  C   UNL     1      -1.594  12.305  17.931  0.00  0.00    +0.000 C 
ATOM     29  C   UNL     1      -2.285  10.932  18.136  0.00  0.00    +0.000 C 
ATOM     30  C   UNL     1      -2.106   9.980  16.910  0.00  0.00    +0.000 C 
ATOM     31  C   UNL     1      -2.735  10.551  15.635  0.00  0.00    +0.000 C 
ATOM     32  N   UNL     1      -4.178  10.768  15.805  0.00  0.00    +0.000 NA
ATOM     33  C   UNL     1      -4.472  11.643  16.948  0.00  0.00    +0.000 C 
ATOM     34  C   UNL     1      -3.844  11.103  18.264  0.00  0.00    +0.000 C 
ATOM     35  H   UNL     1      -4.656   9.847  15.941  0.00  0.00    +0.000 HD
ENDBRANCH  22  23
ENDBRANCH   3  22
TORSDOF 6
ENDMDL
