MODEL 1
REMARK VINA RESULT:      -7.7      0.000      0.000
REMARK  Name = 
REMARK  9 active torsions:
REMARK  status: ('A' for Active; 'I' for Inactive)
REMARK    1  A    between atoms: C_1  and  C_2
REMARK    2  A    between atoms: C_2  and  C_3
REMARK    3  A    between atoms: C_3  and  C_4
REMARK    4  A    between atoms: C_4  and  N_5
REMARK    5  A    between atoms: N_8  and  C_9
REMARK    6  A    between atoms: C_13  and  C_14
REMARK    7  A    between atoms: C_14  and  C_16
REMARK    8  A    between atoms: N_19  and  C_20
REMARK    9  A    between atoms: C_21  and  O_22
REMARK                            x       y       z     vdW  Elec       q    Type
REMARK                         _______ _______ _______ _____ _____    ______ ____
ROOT
ATOM      1  N   UNL     1       3.270   4.690  20.140  0.00  0.00    +0.000 N 
ATOM      2  C   UNL     1       4.291   3.954  19.491  0.00  0.00    +0.000 A 
ATOM      3  O   UNL     1       4.719   2.856  19.806  0.00  0.00    +0.000 OA
ATOM      4  N   UNL     1       4.712   4.743  18.400  0.00  0.00    +0.000 N 
ATOM      5  C   UNL     1       5.738   4.394  17.462  0.00  0.00    +0.000 C 
ATOM      6  C   UNL     1       3.969   5.927  18.379  0.00  0.00    +0.000 A 
ATOM      7  C   UNL     1       4.000   6.975  17.488  0.00  0.00    +0.000 A 
ATOM      8  C   UNL     1       3.110   8.029  17.716  0.00  0.00    +0.000 A 
ATOM      9  C   UNL     1       2.209   8.009  18.813  0.00  0.00    +0.000 A 
ATOM     10  C   UNL     1       2.239   6.955  19.734  0.00  0.00    +0.000 A 
ATOM     11  C   UNL     1       3.098   5.910  19.471  0.00  0.00    +0.000 A 
ENDROOT
BRANCH   9  12
ATOM     12  C   UNL     1       1.186   9.077  19.018  0.00  0.00    +0.000 C 
ATOM     13  O   UNL     1       0.708   9.637  18.032  0.00  0.00    +0.000 OA
BRANCH  12  14
ATOM     14  C   UNL     1       0.795   9.435  20.364  0.00  0.00    +0.000 A 
ATOM     15  C   UNL     1       1.373   8.993  21.578  0.00  0.00    +0.000 A 
ATOM     16  N   UNL     1       0.799   9.545  22.652  0.00  0.00    +0.000 NA
ATOM     17  N   UNL     1      -0.187  10.296  22.132  0.00  0.00    +0.000 N 
ATOM     18  C   UNL     1      -1.045  11.057  23.005  0.00  0.00    +0.000 C 
ATOM     19  C   UNL     1      -0.246  10.248  20.761  0.00  0.00    +0.000 A 
BRANCH  19  20
ATOM     20  O   UNL     1      -1.160  10.883  20.027  0.00  0.00    +0.000 OA
ATOM     21  H   UNL     1      -1.699  11.479  20.580  0.00  0.00    +0.000 HD
ENDBRANCH  19  20
ENDBRANCH  12  14
ENDBRANCH   9  12
BRANCH   1  22
ATOM     22  C   UNL     1       2.510   4.222  21.274  0.00  0.00    +0.000 C 
BRANCH  22  23
ATOM     23  C   UNL     1       1.624   3.003  20.992  0.00  0.00    +0.000 C 
BRANCH  23  25
ATOM     24  C   UNL     1       0.952   2.352  18.668  0.00  0.00    +0.000 C 
ATOM     25  C   UNL     1       0.615   3.225  19.868  0.00  0.00    +0.000 C 
ENDBRANCH  23  25
ENDBRANCH  22  23
ENDBRANCH   1  22
TORSDOF 6
ENDMDL
MODEL 2
REMARK VINA RESULT:      -7.5      1.368      1.681
REMARK  Name = 
REMARK  9 active torsions:
REMARK  status: ('A' for Active; 'I' for Inactive)
REMARK    1  A    between atoms: C_1  and  C_2
REMARK    2  A    between atoms: C_2  and  C_3
REMARK    3  A    between atoms: C_3  and  C_4
REMARK    4  A    between atoms: C_4  and  N_5
REMARK    5  A    between atoms: N_8  and  C_9
REMARK    6  A    between atoms: C_13  and  C_14
REMARK    7  A    between atoms: C_14  and  C_16
REMARK    8  A    between atoms: N_19  and  C_20
REMARK    9  A    between atoms: C_21  and  O_22
REMARK                            x       y       z     vdW  Elec       q    Type
REMARK                         _______ _______ _______ _____ _____    ______ ____
ROOT
ATOM      1  N   UNL     1       2.426   3.903  18.156  0.00  0.00    +0.000 N 
ATOM      2  C   UNL     1       3.443   3.080  17.615  0.00  0.00    +0.000 A 
ATOM      3  O   UNL     1       3.462   1.860  17.583  0.00  0.00    +0.000 OA
ATOM      4  N   UNL     1       4.430   3.954  17.112  0.00  0.00    +0.000 N 
ATOM      5  C   UNL     1       5.653   3.557  16.476  0.00  0.00    +0.000 C 
ATOM      6  C   UNL     1       4.028   5.274  17.337  0.00  0.00    +0.000 A 
ATOM      7  C   UNL     1       4.643   6.456  16.990  0.00  0.00    +0.000 A 
ATOM      8  C   UNL     1       3.980   7.639  17.333  0.00  0.00    +0.000 A 
ATOM      9  C   UNL     1       2.727   7.617  17.998  0.00  0.00    +0.000 A 
ATOM     10  C   UNL     1       2.154   6.400  18.387  0.00  0.00    +0.000 A 
ATOM     11  C   UNL     1       2.804   5.245  18.008  0.00  0.00    +0.000 A 
ENDROOT
BRANCH   9  12
ATOM     12  C   UNL     1       1.960   8.864  18.286  0.00  0.00    +0.000 C 
ATOM     13  O   UNL     1       1.852   9.712  17.400  0.00  0.00    +0.000 OA
BRANCH  12  14
ATOM     14  C   UNL     1       1.376   9.052  19.597  0.00  0.00    +0.000 A 
ATOM     15  C   UNL     1       1.511   8.214  20.730  0.00  0.00    +0.000 A 
ATOM     16  N   UNL     1       0.873   8.694  21.803  0.00  0.00    +0.000 NA
ATOM     17  N   UNL     1       0.281   9.811  21.344  0.00  0.00    +0.000 N 
ATOM     18  C   UNL     1      -0.517  10.616  22.235  0.00  0.00    +0.000 C 
ATOM     19  C   UNL     1       0.534  10.060  20.019  0.00  0.00    +0.000 A 
BRANCH  19  20
ATOM     20  O   UNL     1       0.028  11.088  19.338  0.00  0.00    +0.000 OA
ATOM     21  H   UNL     1       0.686  11.454  18.719  0.00  0.00    +0.000 HD
ENDBRANCH  19  20
ENDBRANCH  12  14
ENDBRANCH   9  12
BRANCH   1  22
ATOM     22  C   UNL     1       1.188   3.421  18.719  0.00  0.00    +0.000 C 
BRANCH  22  23
ATOM     23  C   UNL     1       0.948   3.824  20.178  0.00  0.00    +0.000 C 
BRANCH  23  25
ATOM     24  C   UNL     1       2.731   2.703  21.535  0.00  0.00    +0.000 C 
ATOM     25  C   UNL     1       1.252   2.711  21.179  0.00  0.00    +0.000 C 
ENDBRANCH  23  25
ENDBRANCH  22  23
ENDBRANCH   1  22
TORSDOF 6
ENDMDL
MODEL 3
REMARK VINA RESULT:      -7.3      1.918      2.354
REMARK  Name = 
REMARK  9 active torsions:
REMARK  status: ('A' for Active; 'I' for Inactive)
REMARK    1  A    between atoms: C_1  and  C_2
REMARK    2  A    between atoms: C_2  and  C_3
REMARK    3  A    between atoms: C_3  and  C_4
REMARK    4  A    between atoms: C_4  and  N_5
REMARK    5  A    between atoms: N_8  and  C_9
REMARK    6  A    between atoms: C_13  and  C_14
REMARK    7  A    between atoms: C_14  and  C_16
REMARK    8  A    between atoms: N_19  and  C_20
REMARK    9  A    between atoms: C_21  and  O_22
REMARK                            x       y       z     vdW  Elec       q    Type
REMARK                         _______ _______ _______ _____ _____    ______ ____
ROOT
ATOM      1  N   UNL     1       2.993   5.023  20.115  0.00  0.00    +0.000 N 
ATOM      2  C   UNL     1       3.835   4.504  19.101  0.00  0.00    +0.000 A 
ATOM      3  O   UNL     1       4.380   3.413  19.086  0.00  0.00    +0.000 OA
ATOM      4  N   UNL     1       3.911   5.501  18.106  0.00  0.00    +0.000 N 
ATOM      5  C   UNL     1       4.663   5.411  16.888  0.00  0.00    +0.000 C 
ATOM      6  C   UNL     1       3.137   6.598  18.497  0.00  0.00    +0.000 A 
ATOM      7  C   UNL     1       2.881   7.779  17.838  0.00  0.00    +0.000 A 
ATOM      8  C   UNL     1       2.038   8.692  18.479  0.00  0.00    +0.000 A 
ATOM      9  C   UNL     1       1.466   8.405  19.746  0.00  0.00    +0.000 A 
ATOM     10  C   UNL     1       1.790   7.219  20.416  0.00  0.00    +0.000 A 
ATOM     11  C   UNL     1       2.593   6.317  19.752  0.00  0.00    +0.000 A 
ENDROOT
BRANCH   9  12
ATOM     12  C   UNL     1       0.489   9.324  20.402  0.00  0.00    +0.000 C 
ATOM     13  O   UNL     1       0.107   9.066  21.543  0.00  0.00    +0.000 OA
BRANCH  12  14
ATOM     14  C   UNL     1       0.008  10.481  19.679  0.00  0.00    +0.000 A 
ATOM     15  C   UNL     1      -1.052  10.534  18.743  0.00  0.00    +0.000 A 
ATOM     16  N   UNL     1      -1.269  11.771  18.282  0.00  0.00    +0.000 NA
ATOM     17  N   UNL     1      -0.311  12.502  18.878  0.00  0.00    +0.000 N 
ATOM     18  C   UNL     1      -0.223  13.917  18.618  0.00  0.00    +0.000 C 
ATOM     19  C   UNL     1       0.497  11.770  19.712  0.00  0.00    +0.000 A 
BRANCH  19  20
ATOM     20  O   UNL     1       1.534  12.272  20.383  0.00  0.00    +0.000 OA
ATOM     21  H   UNL     1       1.246  12.975  20.995  0.00  0.00    +0.000 HD
ENDBRANCH  19  20
ENDBRANCH  12  14
ENDBRANCH   9  12
BRANCH   1  22
ATOM     22  C   UNL     1       2.587   4.303  21.298  0.00  0.00    +0.000 C 
BRANCH  22  23
ATOM     23  C   UNL     1       1.630   3.134  21.039  0.00  0.00    +0.000 C 
BRANCH  23  25
ATOM     24  C   UNL     1       0.836   2.381  18.785  0.00  0.00    +0.000 C 
ATOM     25  C   UNL     1       0.640   3.392  19.905  0.00  0.00    +0.000 C 
ENDBRANCH  23  25
ENDBRANCH  22  23
ENDBRANCH   1  22
TORSDOF 6
ENDMDL
MODEL 4
REMARK VINA RESULT:      -7.3      2.504      4.481
REMARK  Name = 
REMARK  9 active torsions:
REMARK  status: ('A' for Active; 'I' for Inactive)
REMARK    1  A    between atoms: C_1  and  C_2
REMARK    2  A    between atoms: C_2  and  C_3
REMARK    3  A    between atoms: C_3  and  C_4
REMARK    4  A    between atoms: C_4  and  N_5
REMARK    5  A    between atoms: N_8  and  C_9
REMARK    6  A    between atoms: C_13  and  C_14
REMARK    7  A    between atoms: C_14  and  C_16
REMARK    8  A    between atoms: N_19  and  C_20
REMARK    9  A    between atoms: C_21  and  O_22
REMARK                            x       y       z     vdW  Elec       q    Type
REMARK                         _______ _______ _______ _____ _____    ______ ____
ROOT
ATOM      1  N   UNL     1       6.622   5.192  18.309  0.00  0.00    +0.000 N 
ATOM      2  C   UNL     1       7.034   4.504  17.141  0.00  0.00    +0.000 A 
ATOM      3  O   UNL     1       8.179   4.284  16.784  0.00  0.00    +0.000 OA
ATOM      4  N   UNL     1       5.852   4.118  16.475  0.00  0.00    +0.000 N 
ATOM      5  C   UNL     1       5.787   3.397  15.237  0.00  0.00    +0.000 C 
ATOM      6  C   UNL     1       4.748   4.554  17.214  0.00  0.00    +0.000 A 
ATOM      7  C   UNL     1       3.403   4.379  16.980  0.00  0.00    +0.000 A 
ATOM      8  C   UNL     1       2.520   4.918  17.922  0.00  0.00    +0.000 A 
ATOM      9  C   UNL     1       2.995   5.604  19.070  0.00  0.00    +0.000 A 
ATOM     10  C   UNL     1       4.367   5.814  19.252  0.00  0.00    +0.000 A 
ATOM     11  C   UNL     1       5.221   5.244  18.332  0.00  0.00    +0.000 A 
ENDROOT
BRANCH   9  12
ATOM     12  C   UNL     1       2.074   6.101  20.134  0.00  0.00    +0.000 C 
ATOM     13  O   UNL     1       1.638   5.302  20.962  0.00  0.00    +0.000 OA
BRANCH  12  14
ATOM     14  C   UNL     1       1.707   7.501  20.158  0.00  0.00    +0.000 A 
ATOM     15  C   UNL     1       1.256   8.256  21.267  0.00  0.00    +0.000 A 
ATOM     16  N   UNL     1       1.037   9.539  20.960  0.00  0.00    +0.000 NA
ATOM     17  N   UNL     1       1.291   9.596  19.641  0.00  0.00    +0.000 N 
ATOM     18  C   UNL     1       1.157  10.848  18.939  0.00  0.00    +0.000 C 
ATOM     19  C   UNL     1       1.677   8.392  19.106  0.00  0.00    +0.000 A 
BRANCH  19  20
ATOM     20  O   UNL     1       1.947   8.197  17.816  0.00  0.00    +0.000 OA
ATOM     21  H   UNL     1       1.541   8.893  17.265  0.00  0.00    +0.000 HD
ENDBRANCH  19  20
ENDBRANCH  12  14
ENDBRANCH   9  12
BRANCH   1  22
ATOM     22  C   UNL     1       7.513   5.705  19.321  0.00  0.00    +0.000 C 
BRANCH  22  23
ATOM     23  C   UNL     1       8.335   6.927  18.891  0.00  0.00    +0.000 C 
BRANCH  23  25
ATOM     24  C   UNL     1       8.157   9.208  17.870  0.00  0.00    +0.000 C 
ATOM     25  C   UNL     1       7.660   7.771  17.813  0.00  0.00    +0.000 C 
ENDBRANCH  23  25
ENDBRANCH  22  23
ENDBRANCH   1  22
TORSDOF 6
ENDMDL
MODEL 5
REMARK VINA RESULT:      -7.3      3.362      7.479
REMARK  Name = 
REMARK  9 active torsions:
REMARK  status: ('A' for Active; 'I' for Inactive)
REMARK    1  A    between atoms: C_1  and  C_2
REMARK    2  A    between atoms: C_2  and  C_3
REMARK    3  A    between atoms: C_3  and  C_4
REMARK    4  A    between atoms: C_4  and  N_5
REMARK    5  A    between atoms: N_8  and  C_9
REMARK    6  A    between atoms: C_13  and  C_14
REMARK    7  A    between atoms: C_14  and  C_16
REMARK    8  A    between atoms: N_19  and  C_20
REMARK    9  A    between atoms: C_21  and  O_22
REMARK                            x       y       z     vdW  Elec       q    Type
REMARK                         _______ _______ _______ _____ _____    ______ ____
ROOT
ATOM      1  N   UNL     1       3.421   4.480  19.759  0.00  0.00    +0.000 N 
ATOM      2  C   UNL     1       2.490   5.444  20.218  0.00  0.00    +0.000 A 
ATOM      3  O   UNL     1       1.701   5.323  21.140  0.00  0.00    +0.000 OA
ATOM      4  N   UNL     1       2.663   6.579  19.397  0.00  0.00    +0.000 N 
ATOM      5  C   UNL     1       1.923   7.803  19.496  0.00  0.00    +0.000 C 
ATOM      6  C   UNL     1       3.671   6.318  18.464  0.00  0.00    +0.000 A 
ATOM      7  C   UNL     1       4.207   7.132  17.491  0.00  0.00    +0.000 A 
ATOM      8  C   UNL     1       5.237   6.595  16.712  0.00  0.00    +0.000 A 
ATOM      9  C   UNL     1       5.711   5.274  16.926  0.00  0.00    +0.000 A 
ATOM     10  C   UNL     1       5.109   4.452  17.885  0.00  0.00    +0.000 A 
ATOM     11  C   UNL     1       4.121   5.011  18.667  0.00  0.00    +0.000 A 
ENDROOT
BRANCH   9  12
ATOM     12  C   UNL     1       6.872   4.717  16.170  0.00  0.00    +0.000 C 
ATOM     13  O   UNL     1       7.931   4.526  16.768  0.00  0.00    +0.000 OA
BRANCH  12  14
ATOM     14  C   UNL     1       6.729   4.430  14.759  0.00  0.00    +0.000 A 
ATOM     15  C   UNL     1       5.825   3.528  14.150  0.00  0.00    +0.000 A 
ATOM     16  N   UNL     1       5.923   3.525  12.816  0.00  0.00    +0.000 NA
ATOM     17  N   UNL     1       6.930   4.381  12.572  0.00  0.00    +0.000 N 
ATOM     18  C   UNL     1       7.336   4.642  11.213  0.00  0.00    +0.000 C 
ATOM     19  C   UNL     1       7.464   4.937  13.708  0.00  0.00    +0.000 A 
BRANCH  19  20
ATOM     20  O   UNL     1       8.491   5.786  13.717  0.00  0.00    +0.000 OA
ATOM     21  H   UNL     1       8.751   6.009  14.630  0.00  0.00    +0.000 HD
ENDBRANCH  19  20
ENDBRANCH  12  14
ENDBRANCH   9  12
BRANCH   1  22
ATOM     22  C   UNL     1       3.633   3.186  20.362  0.00  0.00    +0.000 C 
BRANCH  22  23
ATOM     23  C   UNL     1       2.499   2.180  20.134  0.00  0.00    +0.000 C 
BRANCH  23  25
ATOM     24  C   UNL     1       0.512   2.620  18.673  0.00  0.00    +0.000 C 
ATOM     25  C   UNL     1       1.965   2.171  18.703  0.00  0.00    +0.000 C 
ENDBRANCH  23  25
ENDBRANCH  22  23
ENDBRANCH   1  22
TORSDOF 6
ENDMDL
MODEL 6
REMARK VINA RESULT:      -7.3      1.683      3.391
REMARK  Name = 
REMARK  9 active torsions:
REMARK  status: ('A' for Active; 'I' for Inactive)
REMARK    1  A    between atoms: C_1  and  C_2
REMARK    2  A    between atoms: C_2  and  C_3
REMARK    3  A    between atoms: C_3  and  C_4
REMARK    4  A    between atoms: C_4  and  N_5
REMARK    5  A    between atoms: N_8  and  C_9
REMARK    6  A    between atoms: C_13  and  C_14
REMARK    7  A    between atoms: C_14  and  C_16
REMARK    8  A    between atoms: N_19  and  C_20
REMARK    9  A    between atoms: C_21  and  O_22
REMARK                            x       y       z     vdW  Elec       q    Type
REMARK                         _______ _______ _______ _____ _____    ______ ____
ROOT
ATOM      1  N   UNL     1       4.347   4.335  18.801  0.00  0.00    +0.000 N 
ATOM      2  C   UNL     1       4.182   3.248  19.692  0.00  0.00    +0.000 A 
ATOM      3  O   UNL     1       4.839   2.220  19.727  0.00  0.00    +0.000 OA
ATOM      4  N   UNL     1       3.107   3.592  20.539  0.00  0.00    +0.000 N 
ATOM      5  C   UNL     1       2.583   2.780  21.598  0.00  0.00    +0.000 C 
ATOM      6  C   UNL     1       2.629   4.856  20.178  0.00  0.00    +0.000 A 
ATOM      7  C   UNL     1       1.624   5.613  20.737  0.00  0.00    +0.000 A 
ATOM      8  C   UNL     1       1.383   6.867  20.166  0.00  0.00    +0.000 A 
ATOM      9  C   UNL     1       2.149   7.336  19.067  0.00  0.00    +0.000 A 
ATOM     10  C   UNL     1       3.127   6.521  18.486  0.00  0.00    +0.000 A 
ATOM     11  C   UNL     1       3.374   5.304  19.085  0.00  0.00    +0.000 A 
ENDROOT
BRANCH   9  12
ATOM     12  C   UNL     1       1.972   8.708  18.506  0.00  0.00    +0.000 C 
ATOM     13  O   UNL     1       2.648   9.042  17.533  0.00  0.00    +0.000 OA
BRANCH  12  14
ATOM     14  C   UNL     1       1.027   9.612  19.125  0.00  0.00    +0.000 A 
ATOM     15  C   UNL     1       1.054  10.118  20.447  0.00  0.00    +0.000 A 
ATOM     16  N   UNL     1       0.049  10.964  20.694  0.00  0.00    +0.000 NA
ATOM     17  N   UNL     1      -0.658  10.958  19.550  0.00  0.00    +0.000 N 
ATOM     18  C   UNL     1      -1.843  11.769  19.436  0.00  0.00    +0.000 C 
ATOM     19  C   UNL     1      -0.124  10.144  18.582  0.00  0.00    +0.000 A 
BRANCH  19  20
ATOM     20  O   UNL     1      -0.668   9.951  17.381  0.00  0.00    +0.000 OA
ATOM     21  H   UNL     1      -0.332  10.602  16.737  0.00  0.00    +0.000 HD
ENDBRANCH  19  20
ENDBRANCH  12  14
ENDBRANCH   9  12
BRANCH   1  22
ATOM     22  C   UNL     1       5.384   4.433  17.802  0.00  0.00    +0.000 C 
BRANCH  22  23
ATOM     23  C   UNL     1       4.966   3.980  16.398  0.00  0.00    +0.000 C 
BRANCH  23  25
ATOM     24  C   UNL     1       5.273   6.330  15.584  0.00  0.00    +0.000 C 
ATOM     25  C   UNL     1       5.520   4.860  15.279  0.00  0.00    +0.000 C 
ENDBRANCH  23  25
ENDBRANCH  22  23
ENDBRANCH   1  22
TORSDOF 6
ENDMDL
MODEL 7
REMARK VINA RESULT:      -7.3      1.563      1.837
REMARK  Name = 
REMARK  9 active torsions:
REMARK  status: ('A' for Active; 'I' for Inactive)
REMARK    1  A    between atoms: C_1  and  C_2
REMARK    2  A    between atoms: C_2  and  C_3
REMARK    3  A    between atoms: C_3  and  C_4
REMARK    4  A    between atoms: C_4  and  N_5
REMARK    5  A    between atoms: N_8  and  C_9
REMARK    6  A    between atoms: C_13  and  C_14
REMARK    7  A    between atoms: C_14  and  C_16
REMARK    8  A    between atoms: N_19  and  C_20
REMARK    9  A    between atoms: C_21  and  O_22
REMARK                            x       y       z     vdW  Elec       q    Type
REMARK                         _______ _______ _______ _____ _____    ______ ____
ROOT
ATOM      1  N   UNL     1       3.231   5.066  19.916  0.00  0.00    +0.000 N 
ATOM      2  C   UNL     1       4.345   4.345  19.421  0.00  0.00    +0.000 A 
ATOM      3  O   UNL     1       4.775   3.281  19.837  0.00  0.00    +0.000 OA
ATOM      4  N   UNL     1       4.856   5.100  18.345  0.00  0.00    +0.000 N 
ATOM      5  C   UNL     1       5.994   4.751  17.545  0.00  0.00    +0.000 C 
ATOM      6  C   UNL     1       4.076   6.249  18.182  0.00  0.00    +0.000 A 
ATOM      7  C   UNL     1       4.169   7.255  17.248  0.00  0.00    +0.000 A 
ATOM      8  C   UNL     1       3.220   8.280  17.322  0.00  0.00    +0.000 A 
ATOM      9  C   UNL     1       2.203   8.272  18.312  0.00  0.00    +0.000 A 
ATOM     10  C   UNL     1       2.168   7.264  19.284  0.00  0.00    +0.000 A 
ATOM     11  C   UNL     1       3.090   6.245  19.171  0.00  0.00    +0.000 A 
ENDROOT
BRANCH   9  12
ATOM     12  C   UNL     1       1.125   9.304  18.349  0.00  0.00    +0.000 C 
ATOM     13  O   UNL     1       0.159   9.178  17.597  0.00  0.00    +0.000 OA
BRANCH  12  14
ATOM     14  C   UNL     1       1.247  10.427  19.254  0.00  0.00    +0.000 A 
ATOM     15  C   UNL     1       0.860  10.485  20.614  0.00  0.00    +0.000 A 
ATOM     16  N   UNL     1       1.146  11.663  21.179  0.00  0.00    +0.000 NA
ATOM     17  N   UNL     1       1.663  12.381  20.168  0.00  0.00    +0.000 N 
ATOM     18  C   UNL     1       2.096  13.736  20.399  0.00  0.00    +0.000 C 
ATOM     19  C   UNL     1       1.725  11.691  18.983  0.00  0.00    +0.000 A 
BRANCH  19  20
ATOM     20  O   UNL     1       2.168  12.208  17.836  0.00  0.00    +0.000 OA
ATOM     21  H   UNL     1       2.738  12.982  18.000  0.00  0.00    +0.000 HD
ENDBRANCH  19  20
ENDBRANCH  12  14
ENDBRANCH   9  12
BRANCH   1  22
ATOM     22  C   UNL     1       2.365   4.619  20.981  0.00  0.00    +0.000 C 
BRANCH  22  23
ATOM     23  C   UNL     1       1.013   4.066  20.517  0.00  0.00    +0.000 C 
BRANCH  23  25
ATOM     24  C   UNL     1       1.130   2.456  18.601  0.00  0.00    +0.000 C 
ATOM     25  C   UNL     1       1.058   2.593  20.114  0.00  0.00    +0.000 C 
ENDBRANCH  23  25
ENDBRANCH  22  23
ENDBRANCH   1  22
TORSDOF 6
ENDMDL
MODEL 8
REMARK VINA RESULT:      -7.3      2.267      7.189
REMARK  Name = 
REMARK  9 active torsions:
REMARK  status: ('A' for Active; 'I' for Inactive)
REMARK    1  A    between atoms: C_1  and  C_2
REMARK    2  A    between atoms: C_2  and  C_3
REMARK    3  A    between atoms: C_3  and  C_4
REMARK    4  A    between atoms: C_4  and  N_5
REMARK    5  A    between atoms: N_8  and  C_9
REMARK    6  A    between atoms: C_13  and  C_14
REMARK    7  A    between atoms: C_14  and  C_16
REMARK    8  A    between atoms: N_19  and  C_20
REMARK    9  A    between atoms: C_21  and  O_22
REMARK                            x       y       z     vdW  Elec       q    Type
REMARK                         _______ _______ _______ _____ _____    ______ ____
ROOT
ATOM      1  N   UNL     1      -0.324  11.012  19.587  0.00  0.00    +0.000 N 
ATOM      2  C   UNL     1      -0.934  11.318  20.828  0.00  0.00    +0.000 A 
ATOM      3  O   UNL     1      -1.699  12.238  21.063  0.00  0.00    +0.000 OA
ATOM      4  N   UNL     1      -0.485  10.338  21.739  0.00  0.00    +0.000 N 
ATOM      5  C   UNL     1      -0.846  10.258  23.124  0.00  0.00    +0.000 C 
ATOM      6  C   UNL     1       0.374   9.457  21.075  0.00  0.00    +0.000 A 
ATOM      7  C   UNL     1       1.019   8.334  21.541  0.00  0.00    +0.000 A 
ATOM      8  C   UNL     1       1.806   7.630  20.624  0.00  0.00    +0.000 A 
ATOM      9  C   UNL     1       1.923   8.052  19.274  0.00  0.00    +0.000 A 
ATOM     10  C   UNL     1       1.298   9.229  18.844  0.00  0.00    +0.000 A 
ATOM     11  C   UNL     1       0.499   9.889  19.753  0.00  0.00    +0.000 A 
ENDROOT
BRANCH   9  12
ATOM     12  C   UNL     1       2.679   7.261  18.259  0.00  0.00    +0.000 C 
ATOM     13  O   UNL     1       2.981   7.799  17.193  0.00  0.00    +0.000 OA
BRANCH  12  14
ATOM     14  C   UNL     1       3.026   5.886  18.544  0.00  0.00    +0.000 A 
ATOM     15  C   UNL     1       4.160   5.410  19.246  0.00  0.00    +0.000 A 
ATOM     16  N   UNL     1       4.165   4.079  19.371  0.00  0.00    +0.000 NA
ATOM     17  N   UNL     1       3.065   3.694  18.699  0.00  0.00    +0.000 N 
ATOM     18  C   UNL     1       2.732   2.295  18.611  0.00  0.00    +0.000 C 
ATOM     19  C   UNL     1       2.357   4.742  18.164  0.00  0.00    +0.000 A 
BRANCH  19  20
ATOM     20  O   UNL     1       1.254   4.604  17.430  0.00  0.00    +0.000 OA
ATOM     21  H   UNL     1       1.476   4.449  16.492  0.00  0.00    +0.000 HD
ENDBRANCH  19  20
ENDBRANCH  12  14
ENDBRANCH   9  12
BRANCH   1  22
ATOM     22  C   UNL     1      -0.560  11.723  18.354  0.00  0.00    +0.000 C 
BRANCH  22  23
ATOM     23  C   UNL     1      -1.921  11.446  17.705  0.00  0.00    +0.000 C 
BRANCH  23  25
ATOM     24  C   UNL     1      -2.731   9.928  15.884  0.00  0.00    +0.000 C 
ATOM     25  C   UNL     1      -2.108   9.994  17.271  0.00  0.00    +0.000 C 
ENDBRANCH  23  25
ENDBRANCH  22  23
ENDBRANCH   1  22
TORSDOF 6
ENDMDL
MODEL 9
REMARK VINA RESULT:      -7.2      2.299      2.815
REMARK  Name = 
REMARK  9 active torsions:
REMARK  status: ('A' for Active; 'I' for Inactive)
REMARK    1  A    between atoms: C_1  and  C_2
REMARK    2  A    between atoms: C_2  and  C_3
REMARK    3  A    between atoms: C_3  and  C_4
REMARK    4  A    between atoms: C_4  and  N_5
REMARK    5  A    between atoms: N_8  and  C_9
REMARK    6  A    between atoms: C_13  and  C_14
REMARK    7  A    between atoms: C_14  and  C_16
REMARK    8  A    between atoms: N_19  and  C_20
REMARK    9  A    between atoms: C_21  and  O_22
REMARK                            x       y       z     vdW  Elec       q    Type
REMARK                         _______ _______ _______ _____ _____    ______ ____
ROOT
ATOM      1  N   UNL     1       2.714   5.895  19.720  0.00  0.00    +0.000 N 
ATOM      2  C   UNL     1       3.685   5.357  18.842  0.00  0.00    +0.000 A 
ATOM      3  O   UNL     1       4.215   4.260  18.914  0.00  0.00    +0.000 OA
ATOM      4  N   UNL     1       3.915   6.343  17.859  0.00  0.00    +0.000 N 
ATOM      5  C   UNL     1       4.833   6.233  16.762  0.00  0.00    +0.000 C 
ATOM      6  C   UNL     1       3.106   7.452  18.126  0.00  0.00    +0.000 A 
ATOM      7  C   UNL     1       2.961   8.629  17.428  0.00  0.00    +0.000 A 
ATOM      8  C   UNL     1       2.045   9.557  17.934  0.00  0.00    +0.000 A 
ATOM      9  C   UNL     1       1.295   9.289  19.109  0.00  0.00    +0.000 A 
ATOM     10  C   UNL     1       1.505   8.106  19.828  0.00  0.00    +0.000 A 
ATOM     11  C   UNL     1       2.385   7.189  19.293  0.00  0.00    +0.000 A 
ENDROOT
BRANCH   9  12
ATOM     12  C   UNL     1       0.245  10.224  19.610  0.00  0.00    +0.000 C 
ATOM     13  O   UNL     1       0.424  10.793  20.686  0.00  0.00    +0.000 OA
BRANCH  12  14
ATOM     14  C   UNL     1      -0.956  10.427  18.829  0.00  0.00    +0.000 A 
ATOM     15  C   UNL     1      -1.278   9.853  17.576  0.00  0.00    +0.000 A 
ATOM     16  N   UNL     1      -2.488  10.219  17.139  0.00  0.00    +0.000 NA
ATOM     17  N   UNL     1      -2.919  11.074  18.083  0.00  0.00    +0.000 N 
ATOM     18  C   UNL     1      -4.216  11.690  17.953  0.00  0.00    +0.000 C 
ATOM     19  C   UNL     1      -2.026  11.250  19.110  0.00  0.00    +0.000 A 
BRANCH  19  20
ATOM     20  O   UNL     1      -2.220  12.075  20.139  0.00  0.00    +0.000 OA
ATOM     21  H   UNL     1      -2.932  11.746  20.719  0.00  0.00    +0.000 HD
ENDBRANCH  19  20
ENDBRANCH  12  14
ENDBRANCH   9  12
BRANCH   1  22
ATOM     22  C   UNL     1       2.134   5.191  20.839  0.00  0.00    +0.000 C 
BRANCH  22  23
ATOM     23  C   UNL     1       0.924   4.317  20.488  0.00  0.00    +0.000 C 
BRANCH  23  25
ATOM     24  C   UNL     1       0.887   2.442  18.826  0.00  0.00    +0.000 C 
ATOM     25  C   UNL     1       1.277   2.852  20.238  0.00  0.00    +0.000 C 
ENDBRANCH  23  25
ENDBRANCH  22  23
ENDBRANCH   1  22
TORSDOF 6
ENDMDL
