MODEL 1
REMARK VINA RESULT:      -6.5      0.000      0.000
REMARK  Name = 
REMARK  14 active torsions:
REMARK  status: ('A' for Active; 'I' for Inactive)
REMARK    1  A    between atoms: C_2  and  C_3
REMARK    2  A    between atoms: C_3  and  O_4
REMARK    3  A    between atoms: O_4  and  C_5
REMARK    4  A    between atoms: C_7  and  C_8
REMARK    5  A    between atoms: C_8  and  O_9
REMARK    6  A    between atoms: C_10  and  O_11
REMARK    7  A    between atoms: O_11  and  C_12
REMARK    8  A    between atoms: C_12  and  C_13
REMARK    9  A    between atoms: C_19  and  O_20
REMARK   10  A    between atoms: O_20  and  C_21
REMARK   11  A    between atoms: C_21  and  C_22
REMARK   12  A    between atoms: C_28  and  O_29
REMARK   13  A    between atoms: O_29  and  C_30
REMARK   14  A    between atoms: C_30  and  C_31
REMARK                            x       y       z     vdW  Elec       q    Type
REMARK                         _______ _______ _______ _____ _____    ______ ____
ROOT
ATOM      1  C   UNL     1      -0.671  12.323  18.584  0.00  0.00    +0.000 C 
ATOM      2  O   UNL     1      -0.009  13.562  18.312  0.00  0.00    +0.000 OA
ATOM      3  C   UNL     1       1.166  13.784  19.086  0.00  0.00    +0.000 C 
ATOM      4  C   UNL     1       0.855  13.742  20.601  0.00  0.00    +0.000 C 
ATOM      5  C   UNL     1       0.149  12.415  20.960  0.00  0.00    +0.000 C 
ATOM      6  C   UNL     1      -1.104  12.194  20.071  0.00  0.00    +0.000 C 
ENDROOT
BRANCH   1   7
ATOM      7  O   UNL     1      -1.782  12.176  17.686  0.00  0.00    +0.000 OA
BRANCH   7   8
ATOM      8  C   UNL     1      -2.015  10.789  17.467  0.00  0.00    +0.000 C 
BRANCH   8  10
ATOM      9  C   UNL     1      -2.983  10.286  14.863  0.00  0.00    +0.000 C 
ATOM     10  C   UNL     1      -2.536  10.519  16.065  0.00  0.00    +0.000 C 
ENDBRANCH   8  10
ENDBRANCH   7   8
ENDBRANCH   1   7
BRANCH   3  11
ATOM     11  C   UNL     1       2.338  12.894  18.644  0.00  0.00    +0.000 C 
BRANCH  11  12
ATOM     12  O   UNL     1       2.499  12.924  17.230  0.00  0.00    +0.000 OA
ATOM     13  H   UNL     1       3.451  12.879  17.039  0.00  0.00    +0.000 HD
ENDBRANCH  11  12
ENDBRANCH   3  11
BRANCH   4  14
ATOM     14  O   UNL     1       0.012  14.828  21.023  0.00  0.00    +0.000 OA
BRANCH  14  15
ATOM     15  C   UNL     1       0.081  15.094  22.420  0.00  0.00    +0.000 C 
BRANCH  15  16
ATOM     16  C   UNL     1      -1.256  15.481  22.984  0.00  0.00    +0.000 A 
ATOM     17  C   UNL     1      -2.306  15.918  22.172  0.00  0.00    +0.000 A 
ATOM     18  C   UNL     1      -3.535  16.271  22.738  0.00  0.00    +0.000 A 
ATOM     19  C   UNL     1      -3.724  16.168  24.121  0.00  0.00    +0.000 A 
ATOM     20  C   UNL     1      -2.692  15.717  24.931  0.00  0.00    +0.000 A 
ATOM     21  C   UNL     1      -1.467  15.365  24.367  0.00  0.00    +0.000 A 
ENDBRANCH  15  16
ENDBRANCH  14  15
ENDBRANCH   4  14
BRANCH   5  22
ATOM     22  O   UNL     1       1.007  11.281  20.797  0.00  0.00    +0.000 OA
BRANCH  22  23
ATOM     23  C   UNL     1       0.314  10.031  20.805  0.00  0.00    +0.000 C 
BRANCH  23  24
ATOM     24  C   UNL     1       1.122   9.084  19.968  0.00  0.00    +0.000 A 
ATOM     25  C   UNL     1       1.362   9.345  18.613  0.00  0.00    +0.000 A 
ATOM     26  C   UNL     1       2.067   8.424  17.836  0.00  0.00    +0.000 A 
ATOM     27  C   UNL     1       2.532   7.241  18.411  0.00  0.00    +0.000 A 
ATOM     28  C   UNL     1       2.302   6.977  19.760  0.00  0.00    +0.000 A 
ATOM     29  C   UNL     1       1.601   7.899  20.537  0.00  0.00    +0.000 A 
ENDBRANCH  23  24
ENDBRANCH  22  23
ENDBRANCH   5  22
BRANCH   6  30
ATOM     30  O   UNL     1      -2.156  13.125  20.357  0.00  0.00    +0.000 OA
BRANCH  30  31
ATOM     31  C   UNL     1      -3.455  12.548  20.420  0.00  0.00    +0.000 C 
BRANCH  31  32
ATOM     32  C   UNL     1      -4.008  12.602  21.821  0.00  0.00    +0.000 A 
ATOM     33  C   UNL     1      -5.327  12.996  22.076  0.00  0.00    +0.000 A 
ATOM     34  C   UNL     1      -5.806  13.062  23.384  0.00  0.00    +0.000 A 
ATOM     35  C   UNL     1      -4.969  12.741  24.448  0.00  0.00    +0.000 A 
ATOM     36  C   UNL     1      -3.649  12.364  24.209  0.00  0.00    +0.000 A 
ATOM     37  C   UNL     1      -3.168  12.297  22.902  0.00  0.00    +0.000 A 
ENDBRANCH  31  32
ENDBRANCH  30  31
ENDBRANCH   6  30
TORSDOF 14
ENDMDL
MODEL 2
REMARK VINA RESULT:      -6.2      0.696      1.270
REMARK  Name = 
REMARK  14 active torsions:
REMARK  status: ('A' for Active; 'I' for Inactive)
REMARK    1  A    between atoms: C_2  and  C_3
REMARK    2  A    between atoms: C_3  and  O_4
REMARK    3  A    between atoms: O_4  and  C_5
REMARK    4  A    between atoms: C_7  and  C_8
REMARK    5  A    between atoms: C_8  and  O_9
REMARK    6  A    between atoms: C_10  and  O_11
REMARK    7  A    between atoms: O_11  and  C_12
REMARK    8  A    between atoms: C_12  and  C_13
REMARK    9  A    between atoms: C_19  and  O_20
REMARK   10  A    between atoms: O_20  and  C_21
REMARK   11  A    between atoms: C_21  and  C_22
REMARK   12  A    between atoms: C_28  and  O_29
REMARK   13  A    between atoms: O_29  and  C_30
REMARK   14  A    between atoms: C_30  and  C_31
REMARK                            x       y       z     vdW  Elec       q    Type
REMARK                         _______ _______ _______ _____ _____    ______ ____
ROOT
ATOM      1  C   UNL     1      -0.881  12.100  18.662  0.00  0.00    +0.000 C 
ATOM      2  O   UNL     1      -0.363  13.416  18.440  0.00  0.00    +0.000 OA
ATOM      3  C   UNL     1       0.830  13.708  19.162  0.00  0.00    +0.000 C 
ATOM      4  C   UNL     1       0.621  13.537  20.684  0.00  0.00    +0.000 C 
ATOM      5  C   UNL     1       0.074  12.125  20.990  0.00  0.00    +0.000 C 
ATOM      6  C   UNL     1      -1.204  11.834  20.159  0.00  0.00    +0.000 C 
ENDROOT
BRANCH   1   7
ATOM      7  O   UNL     1      -2.027  11.897  17.821  0.00  0.00    +0.000 OA
BRANCH   7   8
ATOM      8  C   UNL     1      -2.096  10.522  17.464  0.00  0.00    +0.000 C 
BRANCH   8  10
ATOM      9  C   UNL     1      -2.953  10.171  14.797  0.00  0.00    +0.000 C 
ATOM     10  C   UNL     1      -2.557  10.333  16.028  0.00  0.00    +0.000 C 
ENDBRANCH   8  10
ENDBRANCH   7   8
ENDBRANCH   1   7
BRANCH   3  11
ATOM     11  C   UNL     1       2.055  12.973  18.593  0.00  0.00    +0.000 C 
BRANCH  11  12
ATOM     12  O   UNL     1       2.640  13.706  17.522  0.00  0.00    +0.000 OA
ATOM     13  H   UNL     1       1.940  13.889  16.872  0.00  0.00    +0.000 HD
ENDBRANCH  11  12
ENDBRANCH   3  11
BRANCH   4  14
ATOM     14  O   UNL     1      -0.296  14.502  21.228  0.00  0.00    +0.000 OA
BRANCH  14  15
ATOM     15  C   UNL     1      -0.005  14.873  22.572  0.00  0.00    +0.000 C 
BRANCH  15  16
ATOM     16  C   UNL     1      -1.226  15.367  23.295  0.00  0.00    +0.000 A 
ATOM     17  C   UNL     1      -2.096  16.302  22.729  0.00  0.00    +0.000 A 
ATOM     18  C   UNL     1      -3.221  16.737  23.438  0.00  0.00    +0.000 A 
ATOM     19  C   UNL     1      -3.490  16.220  24.709  0.00  0.00    +0.000 A 
ATOM     20  C   UNL     1      -2.640  15.275  25.269  0.00  0.00    +0.000 A 
ATOM     21  C   UNL     1      -1.519  14.842  24.563  0.00  0.00    +0.000 A 
ENDBRANCH  15  16
ENDBRANCH  14  15
ENDBRANCH   4  14
BRANCH   5  22
ATOM     22  O   UNL     1       1.028  11.098  20.699  0.00  0.00    +0.000 OA
BRANCH  22  23
ATOM     23  C   UNL     1       0.545   9.777  20.953  0.00  0.00    +0.000 C 
BRANCH  23  24
ATOM     24  C   UNL     1       1.249   8.867  19.990  0.00  0.00    +0.000 A 
ATOM     25  C   UNL     1       1.762   7.634  20.409  0.00  0.00    +0.000 A 
ATOM     26  C   UNL     1       2.465   6.827  19.512  0.00  0.00    +0.000 A 
ATOM     27  C   UNL     1       2.656   7.250  18.198  0.00  0.00    +0.000 A 
ATOM     28  C   UNL     1       2.142   8.474  17.772  0.00  0.00    +0.000 A 
ATOM     29  C   UNL     1       1.437   9.279  18.666  0.00  0.00    +0.000 A 
ENDBRANCH  23  24
ENDBRANCH  22  23
ENDBRANCH   5  22
BRANCH   6  30
ATOM     30  O   UNL     1      -2.323  12.631  20.567  0.00  0.00    +0.000 OA
BRANCH  30  31
ATOM     31  C   UNL     1      -2.821  12.331  21.866  0.00  0.00    +0.000 C 
BRANCH  31  32
ATOM     32  C   UNL     1      -4.080  13.104  22.160  0.00  0.00    +0.000 A 
ATOM     33  C   UNL     1      -4.602  14.033  21.252  0.00  0.00    +0.000 A 
ATOM     34  C   UNL     1      -5.755  14.753  21.560  0.00  0.00    +0.000 A 
ATOM     35  C   UNL     1      -6.394  14.557  22.781  0.00  0.00    +0.000 A 
ATOM     36  C   UNL     1      -5.876  13.647  23.700  0.00  0.00    +0.000 A 
ATOM     37  C   UNL     1      -4.723  12.925  23.395  0.00  0.00    +0.000 A 
ENDBRANCH  31  32
ENDBRANCH  30  31
ENDBRANCH   6  30
TORSDOF 14
ENDMDL
MODEL 3
REMARK VINA RESULT:      -6.2      0.863      1.335
REMARK  Name = 
REMARK  14 active torsions:
REMARK  status: ('A' for Active; 'I' for Inactive)
REMARK    1  A    between atoms: C_2  and  C_3
REMARK    2  A    between atoms: C_3  and  O_4
REMARK    3  A    between atoms: O_4  and  C_5
REMARK    4  A    between atoms: C_7  and  C_8
REMARK    5  A    between atoms: C_8  and  O_9
REMARK    6  A    between atoms: C_10  and  O_11
REMARK    7  A    between atoms: O_11  and  C_12
REMARK    8  A    between atoms: C_12  and  C_13
REMARK    9  A    between atoms: C_19  and  O_20
REMARK   10  A    between atoms: O_20  and  C_21
REMARK   11  A    between atoms: C_21  and  C_22
REMARK   12  A    between atoms: C_28  and  O_29
REMARK   13  A    between atoms: O_29  and  C_30
REMARK   14  A    between atoms: C_30  and  C_31
REMARK                            x       y       z     vdW  Elec       q    Type
REMARK                         _______ _______ _______ _____ _____    ______ ____
ROOT
ATOM      1  C   UNL     1      -1.080  12.188  18.589  0.00  0.00    +0.000 C 
ATOM      2  O   UNL     1      -0.634  13.519  18.306  0.00  0.00    +0.000 OA
ATOM      3  C   UNL     1       0.558  13.897  18.989  0.00  0.00    +0.000 C 
ATOM      4  C   UNL     1       0.389  13.775  20.521  0.00  0.00    +0.000 C 
ATOM      5  C   UNL     1      -0.079  12.350  20.892  0.00  0.00    +0.000 C 
ATOM      6  C   UNL     1      -1.358  11.964  20.101  0.00  0.00    +0.000 C 
ENDROOT
BRANCH   1   7
ATOM      7  O   UNL     1      -2.231  11.896  17.782  0.00  0.00    +0.000 OA
BRANCH   7   8
ATOM      8  C   UNL     1      -2.196  10.523  17.412  0.00  0.00    +0.000 C 
BRANCH   8  10
ATOM      9  C   UNL     1      -3.001  10.135  14.733  0.00  0.00    +0.000 C 
ATOM     10  C   UNL     1      -2.630  10.314  15.970  0.00  0.00    +0.000 C 
ENDBRANCH   8  10
ENDBRANCH   7   8
ENDBRANCH   1   7
BRANCH   3  11
ATOM     11  C   UNL     1       1.806  13.202  18.421  0.00  0.00    +0.000 C 
BRANCH  11  12
ATOM     12  O   UNL     1       2.897  13.285  19.332  0.00  0.00    +0.000 OA
ATOM     13  H   UNL     1       2.533  13.486  20.212  0.00  0.00    +0.000 HD
ENDBRANCH  11  12
ENDBRANCH   3  11
BRANCH   4  14
ATOM     14  O   UNL     1      -0.564  14.713  21.049  0.00  0.00    +0.000 OA
BRANCH  14  15
ATOM     15  C   UNL     1      -0.129  15.361  22.240  0.00  0.00    +0.000 C 
BRANCH  15  16
ATOM     16  C   UNL     1      -1.259  15.579  23.205  0.00  0.00    +0.000 A 
ATOM     17  C   UNL     1      -1.451  14.761  24.320  0.00  0.00    +0.000 A 
ATOM     18  C   UNL     1      -2.518  14.998  25.194  0.00  0.00    +0.000 A 
ATOM     19  C   UNL     1      -3.386  16.070  24.963  0.00  0.00    +0.000 A 
ATOM     20  C   UNL     1      -3.189  16.900  23.868  0.00  0.00    +0.000 A 
ATOM     21  C   UNL     1      -2.125  16.664  22.998  0.00  0.00    +0.000 A 
ENDBRANCH  15  16
ENDBRANCH  14  15
ENDBRANCH   4  14
BRANCH   5  22
ATOM     22  O   UNL     1       0.919  11.361  20.618  0.00  0.00    +0.000 OA
BRANCH  22  23
ATOM     23  C   UNL     1       0.507  10.028  20.929  0.00  0.00    +0.000 C 
BRANCH  23  24
ATOM     24  C   UNL     1       1.236   9.120  19.984  0.00  0.00    +0.000 A 
ATOM     25  C   UNL     1       1.404   9.465  18.638  0.00  0.00    +0.000 A 
ATOM     26  C   UNL     1       2.035   8.580  17.761  0.00  0.00    +0.000 A 
ATOM     27  C   UNL     1       2.499   7.351  18.228  0.00  0.00    +0.000 A 
ATOM     28  C   UNL     1       2.340   7.002  19.568  0.00  0.00    +0.000 A 
ATOM     29  C   UNL     1       1.713   7.887  20.445  0.00  0.00    +0.000 A 
ENDBRANCH  23  24
ENDBRANCH  22  23
ENDBRANCH   5  22
BRANCH   6  30
ATOM     30  O   UNL     1      -2.507  12.719  20.505  0.00  0.00    +0.000 OA
BRANCH  30  31
ATOM     31  C   UNL     1      -2.976  12.429  21.818  0.00  0.00    +0.000 C 
BRANCH  31  32
ATOM     32  C   UNL     1      -4.166  13.281  22.173  0.00  0.00    +0.000 A 
ATOM     33  C   UNL     1      -4.539  14.384  21.397  0.00  0.00    +0.000 A 
ATOM     34  C   UNL     1      -5.631  15.171  21.762  0.00  0.00    +0.000 A 
ATOM     35  C   UNL     1      -6.355  14.866  22.910  0.00  0.00    +0.000 A 
ATOM     36  C   UNL     1      -5.985  13.779  23.701  0.00  0.00    +0.000 A 
ATOM     37  C   UNL     1      -4.894  12.992  23.337  0.00  0.00    +0.000 A 
ENDBRANCH  31  32
ENDBRANCH  30  31
ENDBRANCH   6  30
TORSDOF 14
ENDMDL
MODEL 4
REMARK VINA RESULT:      -6.1      5.829     10.550
REMARK  Name = 
REMARK  14 active torsions:
REMARK  status: ('A' for Active; 'I' for Inactive)
REMARK    1  A    between atoms: C_2  and  C_3
REMARK    2  A    between atoms: C_3  and  O_4
REMARK    3  A    between atoms: O_4  and  C_5
REMARK    4  A    between atoms: C_7  and  C_8
REMARK    5  A    between atoms: C_8  and  O_9
REMARK    6  A    between atoms: C_10  and  O_11
REMARK    7  A    between atoms: O_11  and  C_12
REMARK    8  A    between atoms: C_12  and  C_13
REMARK    9  A    between atoms: C_19  and  O_20
REMARK   10  A    between atoms: O_20  and  C_21
REMARK   11  A    between atoms: C_21  and  C_22
REMARK   12  A    between atoms: C_28  and  O_29
REMARK   13  A    between atoms: O_29  and  C_30
REMARK   14  A    between atoms: C_30  and  C_31
REMARK                            x       y       z     vdW  Elec       q    Type
REMARK                         _______ _______ _______ _____ _____    ______ ____
ROOT
ATOM      1  C   UNL     1       7.087   7.357  17.477  0.00  0.00    +0.000 C 
ATOM      2  O   UNL     1       7.389   6.889  18.795  0.00  0.00    +0.000 OA
ATOM      3  C   UNL     1       7.297   5.476  18.953  0.00  0.00    +0.000 C 
ATOM      4  C   UNL     1       5.886   4.961  18.585  0.00  0.00    +0.000 C 
ATOM      5  C   UNL     1       5.507   5.424  17.160  0.00  0.00    +0.000 C 
ATOM      6  C   UNL     1       5.654   6.963  17.020  0.00  0.00    +0.000 C 
ENDROOT
BRANCH   1   7
ATOM      7  O   UNL     1       7.296   8.776  17.421  0.00  0.00    +0.000 OA
BRANCH   7   8
ATOM      8  C   UNL     1       8.410   9.108  18.242  0.00  0.00    +0.000 C 
BRANCH   8  10
ATOM      9  C   UNL     1       9.128  11.827  17.987  0.00  0.00    +0.000 C 
ATOM     10  C   UNL     1       8.797  10.572  18.105  0.00  0.00    +0.000 C 
ENDBRANCH   8  10
ENDBRANCH   7   8
ENDBRANCH   1   7
BRANCH   3  11
ATOM     11  C   UNL     1       8.454   4.732  18.267  0.00  0.00    +0.000 C 
BRANCH  11  12
ATOM     12  O   UNL     1       7.989   3.556  17.613  0.00  0.00    +0.000 OA
ATOM     13  H   UNL     1       7.736   3.802  16.707  0.00  0.00    +0.000 HD
ENDBRANCH  11  12
ENDBRANCH   3  11
BRANCH   4  14
ATOM     14  O   UNL     1       4.872   5.426  19.493  0.00  0.00    +0.000 OA
BRANCH  14  15
ATOM     15  C   UNL     1       4.356   4.407  20.343  0.00  0.00    +0.000 C 
BRANCH  15  16
ATOM     16  C   UNL     1       3.090   3.810  19.797  0.00  0.00    +0.000 A 
ATOM     17  C   UNL     1       3.082   2.995  18.663  0.00  0.00    +0.000 A 
ATOM     18  C   UNL     1       1.880   2.461  18.187  0.00  0.00    +0.000 A 
ATOM     19  C   UNL     1       0.682   2.726  18.859  0.00  0.00    +0.000 A 
ATOM     20  C   UNL     1       0.685   3.519  19.998  0.00  0.00    +0.000 A 
ATOM     21  C   UNL     1       1.883   4.051  20.472  0.00  0.00    +0.000 A 
ENDBRANCH  15  16
ENDBRANCH  14  15
ENDBRANCH   4  14
BRANCH   5  22
ATOM     22  O   UNL     1       6.324   4.814  16.155  0.00  0.00    +0.000 OA
BRANCH  22  23
ATOM     23  C   UNL     1       5.607   3.927  15.293  0.00  0.00    +0.000 C 
BRANCH  23  24
ATOM     24  C   UNL     1       6.190   4.094  13.921  0.00  0.00    +0.000 A 
ATOM     25  C   UNL     1       5.762   3.296  12.854  0.00  0.00    +0.000 A 
ATOM     26  C   UNL     1       6.356   3.426  11.598  0.00  0.00    +0.000 A 
ATOM     27  C   UNL     1       7.379   4.354  11.406  0.00  0.00    +0.000 A 
ATOM     28  C   UNL     1       7.807   5.157  12.462  0.00  0.00    +0.000 A 
ATOM     29  C   UNL     1       7.211   5.030  13.716  0.00  0.00    +0.000 A 
ENDBRANCH  23  24
ENDBRANCH  22  23
ENDBRANCH   5  22
BRANCH   6  30
ATOM     30  O   UNL     1       4.681   7.683  17.786  0.00  0.00    +0.000 OA
BRANCH  30  31
ATOM     31  C   UNL     1       3.329   7.419  17.425  0.00  0.00    +0.000 C 
BRANCH  31  32
ATOM     32  C   UNL     1       2.370   8.125  18.347  0.00  0.00    +0.000 A 
ATOM     33  C   UNL     1       2.161   7.692  19.662  0.00  0.00    +0.000 A 
ATOM     34  C   UNL     1       1.248   8.349  20.487  0.00  0.00    +0.000 A 
ATOM     35  C   UNL     1       0.532   9.439  20.003  0.00  0.00    +0.000 A 
ATOM     36  C   UNL     1       0.718   9.870  18.690  0.00  0.00    +0.000 A 
ATOM     37  C   UNL     1       1.630   9.215  17.864  0.00  0.00    +0.000 A 
ENDBRANCH  31  32
ENDBRANCH  30  31
ENDBRANCH   6  30
TORSDOF 14
ENDMDL
MODEL 5
REMARK VINA RESULT:      -6.1      5.693     10.487
REMARK  Name = 
REMARK  14 active torsions:
REMARK  status: ('A' for Active; 'I' for Inactive)
REMARK    1  A    between atoms: C_2  and  C_3
REMARK    2  A    between atoms: C_3  and  O_4
REMARK    3  A    between atoms: O_4  and  C_5
REMARK    4  A    between atoms: C_7  and  C_8
REMARK    5  A    between atoms: C_8  and  O_9
REMARK    6  A    between atoms: C_10  and  O_11
REMARK    7  A    between atoms: O_11  and  C_12
REMARK    8  A    between atoms: C_12  and  C_13
REMARK    9  A    between atoms: C_19  and  O_20
REMARK   10  A    between atoms: O_20  and  C_21
REMARK   11  A    between atoms: C_21  and  C_22
REMARK   12  A    between atoms: C_28  and  O_29
REMARK   13  A    between atoms: O_29  and  C_30
REMARK   14  A    between atoms: C_30  and  C_31
REMARK                            x       y       z     vdW  Elec       q    Type
REMARK                         _______ _______ _______ _____ _____    ______ ____
ROOT
ATOM      1  C   UNL     1       6.663   7.443  17.285  0.00  0.00    +0.000 C 
ATOM      2  O   UNL     1       7.027   6.630  18.406  0.00  0.00    +0.000 OA
ATOM      3  C   UNL     1       6.788   5.238  18.225  0.00  0.00    +0.000 C 
ATOM      4  C   UNL     1       5.300   4.961  17.909  0.00  0.00    +0.000 C 
ATOM      5  C   UNL     1       4.849   5.802  16.694  0.00  0.00    +0.000 C 
ATOM      6  C   UNL     1       5.159   7.307  16.917  0.00  0.00    +0.000 C 
ENDROOT
BRANCH   1   7
ATOM      7  O   UNL     1       7.029   8.806  17.553  0.00  0.00    +0.000 OA
BRANCH   7   8
ATOM      8  C   UNL     1       8.311   8.824  18.170  0.00  0.00    +0.000 C 
BRANCH   8  10
ATOM      9  C   UNL     1       9.324  11.449  18.409  0.00  0.00    +0.000 C 
ATOM     10  C   UNL     1       8.856  10.237  18.299  0.00  0.00    +0.000 C 
ENDBRANCH   8  10
ENDBRANCH   7   8
ENDBRANCH   1   7
BRANCH   3  11
ATOM     11  C   UNL     1       7.784   4.593  17.248  0.00  0.00    +0.000 C 
BRANCH  11  12
ATOM     12  O   UNL     1       8.781   3.855  17.947  0.00  0.00    +0.000 OA
ATOM     13  H   UNL     1       9.619   3.956  17.463  0.00  0.00    +0.000 HD
ENDBRANCH  11  12
ENDBRANCH   3  11
BRANCH   4  14
ATOM     14  O   UNL     1       4.433   5.268  19.015  0.00  0.00    +0.000 OA
BRANCH  14  15
ATOM     15  C   UNL     1       4.266   4.187  19.927  0.00  0.00    +0.000 C 
BRANCH  15  16
ATOM     16  C   UNL     1       2.918   3.539  19.788  0.00  0.00    +0.000 A 
ATOM     17  C   UNL     1       1.956   3.604  20.799  0.00  0.00    +0.000 A 
ATOM     18  C   UNL     1       0.713   2.985  20.630  0.00  0.00    +0.000 A 
ATOM     19  C   UNL     1       0.421   2.315  19.437  0.00  0.00    +0.000 A 
ATOM     20  C   UNL     1       1.365   2.264  18.421  0.00  0.00    +0.000 A 
ATOM     21  C   UNL     1       2.604   2.881  18.589  0.00  0.00    +0.000 A 
ENDBRANCH  15  16
ENDBRANCH  14  15
ENDBRANCH   4  14
BRANCH   5  22
ATOM     22  O   UNL     1       5.495   5.398  15.482  0.00  0.00    +0.000 OA
BRANCH  22  23
ATOM     23  C   UNL     1       5.226   4.044  15.112  0.00  0.00    +0.000 C 
BRANCH  23  24
ATOM     24  C   UNL     1       5.812   3.846  13.746  0.00  0.00    +0.000 A 
ATOM     25  C   UNL     1       7.036   4.426  13.395  0.00  0.00    +0.000 A 
ATOM     26  C   UNL     1       7.537   4.278  12.100  0.00  0.00    +0.000 A 
ATOM     27  C   UNL     1       6.815   3.550  11.155  0.00  0.00    +0.000 A 
ATOM     28  C   UNL     1       5.598   2.965  11.498  0.00  0.00    +0.000 A 
ATOM     29  C   UNL     1       5.099   3.109  12.792  0.00  0.00    +0.000 A 
ENDBRANCH  23  24
ENDBRANCH  22  23
ENDBRANCH   5  22
BRANCH   6  30
ATOM     30  O   UNL     1       4.348   7.893  17.943  0.00  0.00    +0.000 OA
BRANCH  30  31
ATOM     31  C   UNL     1       2.997   8.134  17.566  0.00  0.00    +0.000 C 
BRANCH  31  32
ATOM     32  C   UNL     1       2.128   8.375  18.772  0.00  0.00    +0.000 A 
ATOM     33  C   UNL     1       1.315   9.509  18.878  0.00  0.00    +0.000 A 
ATOM     34  C   UNL     1       0.540   9.721  20.018  0.00  0.00    +0.000 A 
ATOM     35  C   UNL     1       0.575   8.803  21.063  0.00  0.00    +0.000 A 
ATOM     36  C   UNL     1       1.392   7.678  20.977  0.00  0.00    +0.000 A 
ATOM     37  C   UNL     1       2.168   7.465  19.839  0.00  0.00    +0.000 A 
ENDBRANCH  31  32
ENDBRANCH  30  31
ENDBRANCH   6  30
TORSDOF 14
ENDMDL
MODEL 6
REMARK VINA RESULT:      -6.0      1.294      1.949
REMARK  Name = 
REMARK  14 active torsions:
REMARK  status: ('A' for Active; 'I' for Inactive)
REMARK    1  A    between atoms: C_2  and  C_3
REMARK    2  A    between atoms: C_3  and  O_4
REMARK    3  A    between atoms: O_4  and  C_5
REMARK    4  A    between atoms: C_7  and  C_8
REMARK    5  A    between atoms: C_8  and  O_9
REMARK    6  A    between atoms: C_10  and  O_11
REMARK    7  A    between atoms: O_11  and  C_12
REMARK    8  A    between atoms: C_12  and  C_13
REMARK    9  A    between atoms: C_19  and  O_20
REMARK   10  A    between atoms: O_20  and  C_21
REMARK   11  A    between atoms: C_21  and  C_22
REMARK   12  A    between atoms: C_28  and  O_29
REMARK   13  A    between atoms: O_29  and  C_30
REMARK   14  A    between atoms: C_30  and  C_31
REMARK                            x       y       z     vdW  Elec       q    Type
REMARK                         _______ _______ _______ _____ _____    ______ ____
ROOT
ATOM      1  C   UNL     1      -1.146  12.196  18.291  0.00  0.00    +0.000 C 
ATOM      2  O   UNL     1      -0.703  13.552  18.175  0.00  0.00    +0.000 OA
ATOM      3  C   UNL     1       0.347  13.907  19.069  0.00  0.00    +0.000 C 
ATOM      4  C   UNL     1      -0.067  13.674  20.541  0.00  0.00    +0.000 C 
ATOM      5  C   UNL     1      -0.544  12.217  20.734  0.00  0.00    +0.000 C 
ATOM      6  C   UNL     1      -1.662  11.860  19.718  0.00  0.00    +0.000 C 
ENDROOT
BRANCH   1   7
ATOM      7  O   UNL     1      -2.138  11.937  17.286  0.00  0.00    +0.000 OA
BRANCH   7   8
ATOM      8  C   UNL     1      -2.085  10.560  16.933  0.00  0.00    +0.000 C 
BRANCH   8  10
ATOM      9  C   UNL     1      -3.242  10.080  14.402  0.00  0.00    +0.000 C 
ATOM     10  C   UNL     1      -2.708  10.301  15.571  0.00  0.00    +0.000 C 
ENDBRANCH   8  10
ENDBRANCH   7   8
ENDBRANCH   1   7
BRANCH   3  11
ATOM     11  C   UNL     1       1.694  13.281  18.673  0.00  0.00    +0.000 C 
BRANCH  11  12
ATOM     12  O   UNL     1       2.613  13.313  19.760  0.00  0.00    +0.000 OA
ATOM     13  H   UNL     1       2.697  14.238  20.049  0.00  0.00    +0.000 HD
ENDBRANCH  11  12
ENDBRANCH   3  11
BRANCH   4  14
ATOM     14  O   UNL     1      -1.125  14.553  20.963  0.00  0.00    +0.000 OA
BRANCH  14  15
ATOM     15  C   UNL     1      -1.201  14.717  22.376  0.00  0.00    +0.000 C 
BRANCH  15  16
ATOM     16  C   UNL     1      -2.566  14.383  22.906  0.00  0.00    +0.000 A 
ATOM     17  C   UNL     1      -3.621  15.299  22.870  0.00  0.00    +0.000 A 
ATOM     18  C   UNL     1      -4.876  14.949  23.377  0.00  0.00    +0.000 A 
ATOM     19  C   UNL     1      -5.086  13.671  23.905  0.00  0.00    +0.000 A 
ATOM     20  C   UNL     1      -4.048  12.749  23.927  0.00  0.00    +0.000 A 
ATOM     21  C   UNL     1      -2.797  13.098  23.421  0.00  0.00    +0.000 A 
ENDBRANCH  15  16
ENDBRANCH  14  15
ENDBRANCH   4  14
BRANCH   5  22
ATOM     22  O   UNL     1       0.518  11.271  20.566  0.00  0.00    +0.000 OA
BRANCH  22  23
ATOM     23  C   UNL     1       0.114   9.914  20.763  0.00  0.00    +0.000 C 
BRANCH  23  24
ATOM     24  C   UNL     1       1.018   9.068  19.916  0.00  0.00    +0.000 A 
ATOM     25  C   UNL     1       1.281   9.405  18.583  0.00  0.00    +0.000 A 
ATOM     26  C   UNL     1       2.078   8.574  17.794  0.00  0.00    +0.000 A 
ATOM     27  C   UNL     1       2.613   7.406  18.335  0.00  0.00    +0.000 A 
ATOM     28  C   UNL     1       2.361   7.067  19.663  0.00  0.00    +0.000 A 
ATOM     29  C   UNL     1       1.568   7.898  20.452  0.00  0.00    +0.000 A 
ENDBRANCH  23  24
ENDBRANCH  22  23
ENDBRANCH   5  22
BRANCH   6  30
ATOM     30  O   UNL     1      -2.886  12.561  19.974  0.00  0.00    +0.000 OA
BRANCH  30  31
ATOM     31  C   UNL     1      -4.064  11.787  19.776  0.00  0.00    +0.000 C 
BRANCH  31  32
ATOM     32  C   UNL     1      -5.297  12.565  20.153  0.00  0.00    +0.000 A 
ATOM     33  C   UNL     1      -5.427  13.927  19.856  0.00  0.00    +0.000 A 
ATOM     34  C   UNL     1      -6.569  14.629  20.239  0.00  0.00    +0.000 A 
ATOM     35  C   UNL     1      -7.589  13.979  20.926  0.00  0.00    +0.000 A 
ATOM     36  C   UNL     1      -7.465  12.627  21.242  0.00  0.00    +0.000 A 
ATOM     37  C   UNL     1      -6.324  11.923  20.861  0.00  0.00    +0.000 A 
ENDBRANCH  31  32
ENDBRANCH  30  31
ENDBRANCH   6  30
TORSDOF 14
ENDMDL
MODEL 7
REMARK VINA RESULT:      -5.9      0.981      1.776
REMARK  Name = 
REMARK  14 active torsions:
REMARK  status: ('A' for Active; 'I' for Inactive)
REMARK    1  A    between atoms: C_2  and  C_3
REMARK    2  A    between atoms: C_3  and  O_4
REMARK    3  A    between atoms: O_4  and  C_5
REMARK    4  A    between atoms: C_7  and  C_8
REMARK    5  A    between atoms: C_8  and  O_9
REMARK    6  A    between atoms: C_10  and  O_11
REMARK    7  A    between atoms: O_11  and  C_12
REMARK    8  A    between atoms: C_12  and  C_13
REMARK    9  A    between atoms: C_19  and  O_20
REMARK   10  A    between atoms: O_20  and  C_21
REMARK   11  A    between atoms: C_21  and  C_22
REMARK   12  A    between atoms: C_28  and  O_29
REMARK   13  A    between atoms: O_29  and  C_30
REMARK   14  A    between atoms: C_30  and  C_31
REMARK                            x       y       z     vdW  Elec       q    Type
REMARK                         _______ _______ _______ _____ _____    ______ ____
ROOT
ATOM      1  C   UNL     1      -0.843  12.247  18.549  0.00  0.00    +0.000 C 
ATOM      2  O   UNL     1      -0.300  13.554  18.338  0.00  0.00    +0.000 OA
ATOM      3  C   UNL     1       0.912  13.808  19.042  0.00  0.00    +0.000 C 
ATOM      4  C   UNL     1       0.727  13.617  20.565  0.00  0.00    +0.000 C 
ATOM      5  C   UNL     1       0.153  12.213  20.859  0.00  0.00    +0.000 C 
ATOM      6  C   UNL     1      -1.146  11.964  20.047  0.00  0.00    +0.000 C 
ENDROOT
BRANCH   1   7
ATOM      7  O   UNL     1      -2.008  12.083  17.725  0.00  0.00    +0.000 OA
BRANCH   7   8
ATOM      8  C   UNL     1      -2.577  10.805  17.984  0.00  0.00    +0.000 C 
BRANCH   8  10
ATOM      9  C   UNL     1      -5.397  10.910  18.073  0.00  0.00    +0.000 C 
ATOM     10  C   UNL     1      -4.095  10.861  18.032  0.00  0.00    +0.000 C 
ENDBRANCH   8  10
ENDBRANCH   7   8
ENDBRANCH   1   7
BRANCH   3  11
ATOM     11  C   UNL     1       2.110  13.055  18.440  0.00  0.00    +0.000 C 
BRANCH  11  12
ATOM     12  O   UNL     1       2.879  13.907  17.597  0.00  0.00    +0.000 OA
ATOM     13  H   UNL     1       2.428  14.768  17.556  0.00  0.00    +0.000 HD
ENDBRANCH  11  12
ENDBRANCH   3  11
BRANCH   4  14
ATOM     14  O   UNL     1      -0.159  14.594  21.141  0.00  0.00    +0.000 OA
BRANCH  14  15
ATOM     15  C   UNL     1       0.036  14.788  22.538  0.00  0.00    +0.000 C 
BRANCH  15  16
ATOM     16  C   UNL     1      -1.205  15.303  23.211  0.00  0.00    +0.000 A 
ATOM     17  C   UNL     1      -1.581  14.890  24.491  0.00  0.00    +0.000 A 
ATOM     18  C   UNL     1      -2.745  15.393  25.081  0.00  0.00    +0.000 A 
ATOM     19  C   UNL     1      -3.528  16.329  24.396  0.00  0.00    +0.000 A 
ATOM     20  C   UNL     1      -3.149  16.759  23.132  0.00  0.00    +0.000 A 
ATOM     21  C   UNL     1      -1.989  16.257  22.545  0.00  0.00    +0.000 A 
ENDBRANCH  15  16
ENDBRANCH  14  15
ENDBRANCH   4  14
BRANCH   5  22
ATOM     22  O   UNL     1       1.078  11.169  20.535  0.00  0.00    +0.000 OA
BRANCH  22  23
ATOM     23  C   UNL     1       0.623   9.865  20.898  0.00  0.00    +0.000 C 
BRANCH  23  24
ATOM     24  C   UNL     1       1.289   8.899  19.964  0.00  0.00    +0.000 A 
ATOM     25  C   UNL     1       1.762   7.663  20.422  0.00  0.00    +0.000 A 
ATOM     26  C   UNL     1       2.431   6.802  19.551  0.00  0.00    +0.000 A 
ATOM     27  C   UNL     1       2.629   7.173  18.222  0.00  0.00    +0.000 A 
ATOM     28  C   UNL     1       2.157   8.399  17.757  0.00  0.00    +0.000 A 
ATOM     29  C   UNL     1       1.485   9.258  18.626  0.00  0.00    +0.000 A 
ENDBRANCH  23  24
ENDBRANCH  22  23
ENDBRANCH   5  22
BRANCH   6  30
ATOM     30  O   UNL     1      -2.239  12.779  20.488  0.00  0.00    +0.000 OA
BRANCH  30  31
ATOM     31  C   UNL     1      -2.823  12.370  21.720  0.00  0.00    +0.000 C 
BRANCH  31  32
ATOM     32  C   UNL     1      -4.075  13.153  22.017  0.00  0.00    +0.000 A 
ATOM     33  C   UNL     1      -4.769  13.001  23.222  0.00  0.00    +0.000 A 
ATOM     34  C   UNL     1      -5.941  13.719  23.460  0.00  0.00    +0.000 A 
ATOM     35  C   UNL     1      -6.431  14.592  22.494  0.00  0.00    +0.000 A 
ATOM     36  C   UNL     1      -5.758  14.740  21.282  0.00  0.00    +0.000 A 
ATOM     37  C   UNL     1      -4.587  14.023  21.042  0.00  0.00    +0.000 A 
ENDBRANCH  31  32
ENDBRANCH  30  31
ENDBRANCH   6  30
TORSDOF 14
ENDMDL
MODEL 8
REMARK VINA RESULT:      -5.8      1.610      2.479
REMARK  Name = 
REMARK  14 active torsions:
REMARK  status: ('A' for Active; 'I' for Inactive)
REMARK    1  A    between atoms: C_2  and  C_3
REMARK    2  A    between atoms: C_3  and  O_4
REMARK    3  A    between atoms: O_4  and  C_5
REMARK    4  A    between atoms: C_7  and  C_8
REMARK    5  A    between atoms: C_8  and  O_9
REMARK    6  A    between atoms: C_10  and  O_11
REMARK    7  A    between atoms: O_11  and  C_12
REMARK    8  A    between atoms: C_12  and  C_13
REMARK    9  A    between atoms: C_19  and  O_20
REMARK   10  A    between atoms: O_20  and  C_21
REMARK   11  A    between atoms: C_21  and  C_22
REMARK   12  A    between atoms: C_28  and  O_29
REMARK   13  A    between atoms: O_29  and  C_30
REMARK   14  A    between atoms: C_30  and  C_31
REMARK                            x       y       z     vdW  Elec       q    Type
REMARK                         _______ _______ _______ _____ _____    ______ ____
ROOT
ATOM      1  C   UNL     1      -0.734  10.599  19.176  0.00  0.00    +0.000 C 
ATOM      2  O   UNL     1      -0.258  11.854  18.677  0.00  0.00    +0.000 OA
ATOM      3  C   UNL     1       1.101  12.136  18.997  0.00  0.00    +0.000 C 
ATOM      4  C   UNL     1       1.332  12.122  20.526  0.00  0.00    +0.000 C 
ATOM      5  C   UNL     1       0.849  10.781  21.123  0.00  0.00    +0.000 C 
ATOM      6  C   UNL     1      -0.623  10.493  20.723  0.00  0.00    +0.000 C 
ENDROOT
BRANCH   1   7
ATOM      7  O   UNL     1      -2.079  10.390  18.718  0.00  0.00    +0.000 OA
BRANCH   7   8
ATOM      8  C   UNL     1      -2.585  11.616  18.204  0.00  0.00    +0.000 C 
BRANCH   8  10
ATOM      9  C   UNL     1      -4.846  12.505  19.643  0.00  0.00    +0.000 C 
ATOM     10  C   UNL     1      -3.802  12.095  18.978  0.00  0.00    +0.000 C 
ENDBRANCH   8  10
ENDBRANCH   7   8
ENDBRANCH   1   7
BRANCH   3  11
ATOM     11  C   UNL     1       2.086  11.277  18.189  0.00  0.00    +0.000 C 
BRANCH  11  12
ATOM     12  O   UNL     1       2.648  12.020  17.112  0.00  0.00    +0.000 OA
ATOM     13  H   UNL     1       1.929  12.231  16.491  0.00  0.00    +0.000 HD
ENDBRANCH  11  12
ENDBRANCH   3  11
BRANCH   4  14
ATOM     14  O   UNL     1       0.641  13.188  21.201  0.00  0.00    +0.000 OA
BRANCH  14  15
ATOM     15  C   UNL     1       0.665  14.422  20.491  0.00  0.00    +0.000 C 
BRANCH  15  16
ATOM     16  C   UNL     1      -0.537  15.269  20.797  0.00  0.00    +0.000 A 
ATOM     17  C   UNL     1      -1.834  14.860  20.475  0.00  0.00    +0.000 A 
ATOM     18  C   UNL     1      -2.927  15.680  20.776  0.00  0.00    +0.000 A 
ATOM     19  C   UNL     1      -2.726  16.905  21.419  0.00  0.00    +0.000 A 
ATOM     20  C   UNL     1      -1.442  17.308  21.760  0.00  0.00    +0.000 A 
ATOM     21  C   UNL     1      -0.353  16.491  21.461  0.00  0.00    +0.000 A 
ENDBRANCH  15  16
ENDBRANCH  14  15
ENDBRANCH   4  14
BRANCH   5  22
ATOM     22  O   UNL     1       1.645   9.673  20.687  0.00  0.00    +0.000 OA
BRANCH  22  23
ATOM     23  C   UNL     1       1.256   8.425  21.263  0.00  0.00    +0.000 C 
BRANCH  23  24
ATOM     24  C   UNL     1       1.743   7.351  20.335  0.00  0.00    +0.000 A 
ATOM     25  C   UNL     1       2.255   7.668  19.071  0.00  0.00    +0.000 A 
ATOM     26  C   UNL     1       2.649   6.652  18.199  0.00  0.00    +0.000 A 
ATOM     27  C   UNL     1       2.533   5.318  18.588  0.00  0.00    +0.000 A 
ATOM     28  C   UNL     1       2.029   4.995  19.847  0.00  0.00    +0.000 A 
ATOM     29  C   UNL     1       1.639   6.009  20.720  0.00  0.00    +0.000 A 
ENDBRANCH  23  24
ENDBRANCH  22  23
ENDBRANCH   5  22
BRANCH   6  30
ATOM     30  O   UNL     1      -1.550  11.393  21.342  0.00  0.00    +0.000 OA
BRANCH  30  31
ATOM     31  C   UNL     1      -1.479  11.431  22.763  0.00  0.00    +0.000 C 
BRANCH  31  32
ATOM     32  C   UNL     1      -2.216  12.623  23.315  0.00  0.00    +0.000 A 
ATOM     33  C   UNL     1      -1.540  13.692  23.916  0.00  0.00    +0.000 A 
ATOM     34  C   UNL     1      -2.249  14.772  24.442  0.00  0.00    +0.000 A 
ATOM     35  C   UNL     1      -3.639  14.790  24.377  0.00  0.00    +0.000 A 
ATOM     36  C   UNL     1      -4.324  13.725  23.796  0.00  0.00    +0.000 A 
ATOM     37  C   UNL     1      -3.618  12.644  23.270  0.00  0.00    +0.000 A 
ENDBRANCH  31  32
ENDBRANCH  30  31
ENDBRANCH   6  30
TORSDOF 14
ENDMDL
MODEL 9
REMARK VINA RESULT:      -5.7      2.459      6.138
REMARK  Name = 
REMARK  14 active torsions:
REMARK  status: ('A' for Active; 'I' for Inactive)
REMARK    1  A    between atoms: C_2  and  C_3
REMARK    2  A    between atoms: C_3  and  O_4
REMARK    3  A    between atoms: O_4  and  C_5
REMARK    4  A    between atoms: C_7  and  C_8
REMARK    5  A    between atoms: C_8  and  O_9
REMARK    6  A    between atoms: C_10  and  O_11
REMARK    7  A    between atoms: O_11  and  C_12
REMARK    8  A    between atoms: C_12  and  C_13
REMARK    9  A    between atoms: C_19  and  O_20
REMARK   10  A    between atoms: O_20  and  C_21
REMARK   11  A    between atoms: C_21  and  C_22
REMARK   12  A    between atoms: C_28  and  O_29
REMARK   13  A    between atoms: O_29  and  C_30
REMARK   14  A    between atoms: C_30  and  C_31
REMARK                            x       y       z     vdW  Elec       q    Type
REMARK                         _______ _______ _______ _____ _____    ______ ____
ROOT
ATOM      1  C   UNL     1       0.034  11.830  21.429  0.00  0.00    +0.000 C 
ATOM      2  O   UNL     1      -0.812  10.834  20.844  0.00  0.00    +0.000 OA
ATOM      3  C   UNL     1      -0.419  10.422  19.538  0.00  0.00    +0.000 C 
ATOM      4  C   UNL     1      -0.366  11.622  18.564  0.00  0.00    +0.000 C 
ATOM      5  C   UNL     1       0.547  12.729  19.136  0.00  0.00    +0.000 C 
ATOM      6  C   UNL     1       0.108  13.124  20.571  0.00  0.00    +0.000 C 
ENDROOT
BRANCH   1   7
ATOM      7  O   UNL     1      -0.411  12.098  22.768  0.00  0.00    +0.000 OA
BRANCH   7   8
ATOM      8  C   UNL     1      -1.538  11.277  23.051  0.00  0.00    +0.000 C 
BRANCH   8  10
ATOM      9  C   UNL     1      -3.883  12.805  23.424  0.00  0.00    +0.000 C 
ATOM     10  C   UNL     1      -2.800  12.100  23.252  0.00  0.00    +0.000 C 
ENDBRANCH   8  10
ENDBRANCH   7   8
ENDBRANCH   1   7
BRANCH   3  11
ATOM     11  C   UNL     1       0.845   9.548  19.553  0.00  0.00    +0.000 C 
BRANCH  11  12
ATOM     12  O   UNL     1       1.432   9.475  18.258  0.00  0.00    +0.000 OA
ATOM     13  H   UNL     1       2.243   8.944  18.330  0.00  0.00    +0.000 HD
ENDBRANCH  11  12
ENDBRANCH   3  11
BRANCH   4  14
ATOM     14  O   UNL     1      -1.663  12.192  18.317  0.00  0.00    +0.000 OA
BRANCH  14  15
ATOM     15  C   UNL     1      -2.642  11.234  17.927  0.00  0.00    +0.000 C 
BRANCH  15  16
ATOM     16  C   UNL     1      -4.014  11.606  18.412  0.00  0.00    +0.000 A 
ATOM     17  C   UNL     1      -4.218  12.279  19.619  0.00  0.00    +0.000 A 
ATOM     18  C   UNL     1      -5.513  12.604  20.035  0.00  0.00    +0.000 A 
ATOM     19  C   UNL     1      -6.610  12.275  19.232  0.00  0.00    +0.000 A 
ATOM     20  C   UNL     1      -6.413  11.624  18.021  0.00  0.00    +0.000 A 
ATOM     21  C   UNL     1      -5.123  11.300  17.607  0.00  0.00    +0.000 A 
ENDBRANCH  15  16
ENDBRANCH  14  15
ENDBRANCH   4  14
BRANCH   5  22
ATOM     22  O   UNL     1       1.920  12.327  19.194  0.00  0.00    +0.000 OA
BRANCH  22  23
ATOM     23  C   UNL     1       2.717  12.846  18.128  0.00  0.00    +0.000 C 
BRANCH  23  24
ATOM     24  C   UNL     1       3.157  14.218  18.546  0.00  0.00    +0.000 A 
ATOM     25  C   UNL     1       3.508  14.489  19.874  0.00  0.00    +0.000 A 
ATOM     26  C   UNL     1       3.860  15.784  20.255  0.00  0.00    +0.000 A 
ATOM     27  C   UNL     1       3.861  16.811  19.312  0.00  0.00    +0.000 A 
ATOM     28  C   UNL     1       3.517  16.548  17.987  0.00  0.00    +0.000 A 
ATOM     29  C   UNL     1       3.170  15.254  17.604  0.00  0.00    +0.000 A 
ENDBRANCH  23  24
ENDBRANCH  22  23
ENDBRANCH   5  22
BRANCH   6  30
ATOM     30  O   UNL     1      -1.155  13.801  20.597  0.00  0.00    +0.000 OA
BRANCH  30  31
ATOM     31  C   UNL     1      -1.117  15.105  21.166  0.00  0.00    +0.000 C 
BRANCH  31  32
ATOM     32  C   UNL     1      -1.171  16.168  20.100  0.00  0.00    +0.000 A 
ATOM     33  C   UNL     1      -2.264  17.033  19.978  0.00  0.00    +0.000 A 
ATOM     34  C   UNL     1      -2.300  17.991  18.965  0.00  0.00    +0.000 A 
ATOM     35  C   UNL     1      -1.245  18.089  18.063  0.00  0.00    +0.000 A 
ATOM     36  C   UNL     1      -0.157  17.224  18.164  0.00  0.00    +0.000 A 
ATOM     37  C   UNL     1      -0.120  16.265  19.175  0.00  0.00    +0.000 A 
ENDBRANCH  31  32
ENDBRANCH  30  31
ENDBRANCH   6  30
TORSDOF 14
ENDMDL
