MODEL 1
REMARK VINA RESULT:      -6.4      0.000      0.000
REMARK  Name = 
REMARK  6 active torsions:
REMARK  status: ('A' for Active; 'I' for Inactive)
REMARK    1  A    between atoms: C_3  and  O_4
REMARK    2  A    between atoms: C_9  and  O_10
REMARK    3  A    between atoms: C_18  and  O_19
REMARK    4  A    between atoms: C_21  and  O_22
REMARK    5  A    between atoms: C_23  and  O_24
REMARK    6  A    between atoms: C_25  and  O_26
REMARK                            x       y       z     vdW  Elec       q    Type
REMARK                         _______ _______ _______ _____ _____    ______ ____
ROOT
ATOM      1  O   UNL     1      -4.160  11.930  24.569  0.00  0.00    +0.000 OA
ATOM      2  C   UNL     1      -3.558  12.520  23.651  0.00  0.00    +0.000 C 
ATOM      3  C   UNL     1      -2.049  12.251  23.502  0.00  0.00    +0.000 C 
ATOM      4  C   UNL     1      -1.098  13.375  22.993  0.00  0.00    +0.000 C 
ATOM      5  C   UNL     1      -0.308  13.205  21.708  0.00  0.00    +0.000 A 
ATOM      6  C   UNL     1       0.866  13.908  21.437  0.00  0.00    +0.000 A 
ATOM      7  C   UNL     1       1.475  13.831  20.165  0.00  0.00    +0.000 A 
ATOM      8  C   UNL     1       0.887  13.103  19.121  0.00  0.00    +0.000 A 
ATOM      9  C   UNL     1      -0.274  12.392  19.356  0.00  0.00    +0.000 A 
ATOM     10  C   UNL     1      -0.791  12.412  20.674  0.00  0.00    +0.000 A 
ATOM     11  C   UNL     1      -1.131  11.724  18.360  0.00  0.00    +0.000 A 
ATOM     12  C   UNL     1      -2.438  12.242  18.314  0.00  0.00    +0.000 A 
ATOM     13  C   UNL     1      -3.532  11.378  18.272  0.00  0.00    +0.000 A 
ATOM     14  C   UNL     1      -3.326  10.130  17.679  0.00  0.00    +0.000 A 
ATOM     15  C   UNL     1      -2.014   9.691  17.408  0.00  0.00    +0.000 A 
ATOM     16  C   UNL     1      -0.924  10.445  17.859  0.00  0.00    +0.000 A 
ATOM     17  C   UNL     1      -4.798  11.729  19.087  0.00  0.00    +0.000 C 
ATOM     18  C   UNL     1      -4.459  12.748  20.244  0.00  0.00    +0.000 C 
ATOM     19  C   UNL     1      -5.216  12.713  21.592  0.00  0.00    +0.000 C 
ATOM     20  C   UNL     1      -4.369  13.437  22.719  0.00  0.00    +0.000 C 
ENDROOT
BRANCH   3  21
ATOM     21  O   UNL     1      -1.905  10.985  22.866  0.00  0.00    +0.000 OA
ATOM     22  H   UNL     1      -2.795  10.702  22.580  0.00  0.00    +0.000 HD
ENDBRANCH   3  21
BRANCH   8  23
ATOM     23  O   UNL     1       1.413  13.121  17.865  0.00  0.00    +0.000 OA
ATOM     24  H   UNL     1       0.756  13.481  17.260  0.00  0.00    +0.000 HD
ENDBRANCH   8  23
BRANCH  16  25
ATOM     25  O   UNL     1       0.329   9.903  17.897  0.00  0.00    +0.000 OA
ATOM     26  H   UNL     1       0.935  10.466  17.392  0.00  0.00    +0.000 HD
ENDBRANCH  16  25
BRANCH  18  27
ATOM     27  O   UNL     1      -4.553  14.099  19.743  0.00  0.00    +0.000 OA
ATOM     28  H   UNL     1      -5.057  14.630  20.388  0.00  0.00    +0.000 HD
ENDBRANCH  18  27
BRANCH  19  29
ATOM     29  O   UNL     1      -6.457  13.401  21.374  0.00  0.00    +0.000 OA
ATOM     30  H   UNL     1      -7.048  13.087  22.094  0.00  0.00    +0.000 HD
ENDBRANCH  19  29
BRANCH  20  31
ATOM     31  O   UNL     1      -5.261  14.091  23.664  0.00  0.00    +0.000 OA
ATOM     32  H   UNL     1      -4.744  14.227  24.488  0.00  0.00    +0.000 HD
ENDBRANCH  20  31
TORSDOF 6
ENDMDL
MODEL 2
REMARK VINA RESULT:      -6.4      1.378      4.568
REMARK  Name = 
REMARK  6 active torsions:
REMARK  status: ('A' for Active; 'I' for Inactive)
REMARK    1  A    between atoms: C_3  and  O_4
REMARK    2  A    between atoms: C_9  and  O_10
REMARK    3  A    between atoms: C_18  and  O_19
REMARK    4  A    between atoms: C_21  and  O_22
REMARK    5  A    between atoms: C_23  and  O_24
REMARK    6  A    between atoms: C_25  and  O_26
REMARK                            x       y       z     vdW  Elec       q    Type
REMARK                         _______ _______ _______ _____ _____    ______ ____
ROOT
ATOM      1  O   UNL     1      -6.580  15.437  22.880  0.00  0.00    +0.000 OA
ATOM      2  C   UNL     1      -6.108  14.378  22.424  0.00  0.00    +0.000 C 
ATOM      3  C   UNL     1      -6.167  14.171  20.900  0.00  0.00    +0.000 C 
ATOM      4  C   UNL     1      -6.343  12.741  20.307  0.00  0.00    +0.000 C 
ATOM      5  C   UNL     1      -5.279  12.132  19.410  0.00  0.00    +0.000 A 
ATOM      6  C   UNL     1      -5.545  11.114  18.495  0.00  0.00    +0.000 A 
ATOM      7  C   UNL     1      -4.494  10.476  17.800  0.00  0.00    +0.000 A 
ATOM      8  C   UNL     1      -3.154  10.798  18.056  0.00  0.00    +0.000 A 
ATOM      9  C   UNL     1      -2.854  11.804  18.954  0.00  0.00    +0.000 A 
ATOM     10  C   UNL     1      -3.943  12.488  19.547  0.00  0.00    +0.000 A 
ATOM     11  C   UNL     1      -1.528  12.163  19.487  0.00  0.00    +0.000 A 
ATOM     12  C   UNL     1      -1.431  12.018  20.883  0.00  0.00    +0.000 A 
ATOM     13  C   UNL     1      -0.836  13.019  21.650  0.00  0.00    +0.000 A 
ATOM     14  C   UNL     1       0.148  13.791  21.024  0.00  0.00    +0.000 A 
ATOM     15  C   UNL     1       0.303  13.727  19.626  0.00  0.00    +0.000 A 
ATOM     16  C   UNL     1      -0.614  13.000  18.858  0.00  0.00    +0.000 A 
ATOM     17  C   UNL     1      -1.454  13.385  23.019  0.00  0.00    +0.000 C 
ATOM     18  C   UNL     1      -2.962  12.922  23.097  0.00  0.00    +0.000 C 
ATOM     19  C   UNL     1      -4.008  13.726  23.904  0.00  0.00    +0.000 C 
ATOM     20  C   UNL     1      -5.472  13.380  23.407  0.00  0.00    +0.000 C 
ENDROOT
BRANCH   3  21
ATOM     21  O   UNL     1      -5.126  14.954  20.325  0.00  0.00    +0.000 OA
ATOM     22  H   UNL     1      -4.792  14.466  19.548  0.00  0.00    +0.000 HD
ENDBRANCH   3  21
BRANCH   8  23
ATOM     23  O   UNL     1      -2.139  10.106  17.470  0.00  0.00    +0.000 OA
ATOM     24  H   UNL     1      -1.774  10.638  16.754  0.00  0.00    +0.000 HD
ENDBRANCH   8  23
BRANCH  16  25
ATOM     25  O   UNL     1      -0.684  13.174  17.506  0.00  0.00    +0.000 OA
ATOM     26  H   UNL     1      -0.774  12.310  17.077  0.00  0.00    +0.000 HD
ENDBRANCH  16  25
BRANCH  18  27
ATOM     27  O   UNL     1      -3.026  11.558  23.568  0.00  0.00    +0.000 OA
ATOM     28  H   UNL     1      -3.260  10.985  22.814  0.00  0.00    +0.000 HD
ENDBRANCH  18  27
BRANCH  19  29
ATOM     29  O   UNL     1      -3.837  13.344  25.278  0.00  0.00    +0.000 OA
ATOM     30  H   UNL     1      -2.967  13.720  25.537  0.00  0.00    +0.000 HD
ENDBRANCH  19  29
BRANCH  20  31
ATOM     31  O   UNL     1      -6.401  13.447  24.525  0.00  0.00    +0.000 OA
ATOM     32  H   UNL     1      -5.916  13.113  25.312  0.00  0.00    +0.000 HD
ENDBRANCH  20  31
TORSDOF 6
ENDMDL
MODEL 3
REMARK VINA RESULT:      -6.4      1.995      2.887
REMARK  Name = 
REMARK  6 active torsions:
REMARK  status: ('A' for Active; 'I' for Inactive)
REMARK    1  A    between atoms: C_3  and  O_4
REMARK    2  A    between atoms: C_9  and  O_10
REMARK    3  A    between atoms: C_18  and  O_19
REMARK    4  A    between atoms: C_21  and  O_22
REMARK    5  A    between atoms: C_23  and  O_24
REMARK    6  A    between atoms: C_25  and  O_26
REMARK                            x       y       z     vdW  Elec       q    Type
REMARK                         _______ _______ _______ _____ _____    ______ ____
ROOT
ATOM      1  O   UNL     1      -6.680  11.787  21.962  0.00  0.00    +0.000 OA
ATOM      2  C   UNL     1      -5.919  12.460  21.240  0.00  0.00    +0.000 C 
ATOM      3  C   UNL     1      -4.720  13.148  21.917  0.00  0.00    +0.000 C 
ATOM      4  C   UNL     1      -4.196  14.516  21.387  0.00  0.00    +0.000 C 
ATOM      5  C   UNL     1      -2.782  14.655  20.852  0.00  0.00    +0.000 A 
ATOM      6  C   UNL     1      -2.102  15.872  20.806  0.00  0.00    +0.000 A 
ATOM      7  C   UNL     1      -0.852  15.975  20.156  0.00  0.00    +0.000 A 
ATOM      8  C   UNL     1      -0.290  14.880  19.484  0.00  0.00    +0.000 A 
ATOM      9  C   UNL     1      -0.936  13.660  19.512  0.00  0.00    +0.000 A 
ATOM     10  C   UNL     1      -2.132  13.576  20.265  0.00  0.00    +0.000 A 
ATOM     11  C   UNL     1      -0.608  12.454  18.729  0.00  0.00    +0.000 A 
ATOM     12  C   UNL     1      -1.644  12.051  17.868  0.00  0.00    +0.000 A 
ATOM     13  C   UNL     1      -2.009  10.707  17.794  0.00  0.00    +0.000 A 
ATOM     14  C   UNL     1      -1.009   9.768  18.065  0.00  0.00    +0.000 A 
ATOM     15  C   UNL     1       0.203  10.184  18.651  0.00  0.00    +0.000 A 
ATOM     16  C   UNL     1       0.346  11.508  19.084  0.00  0.00    +0.000 A 
ATOM     17  C   UNL     1      -3.505  10.340  17.679  0.00  0.00    +0.000 C 
ATOM     18  C   UNL     1      -4.417  11.527  18.184  0.00  0.00    +0.000 C 
ATOM     19  C   UNL     1      -5.770  11.259  18.881  0.00  0.00    +0.000 C 
ATOM     20  C   UNL     1      -6.212  12.523  19.730  0.00  0.00    +0.000 C 
ENDROOT
BRANCH   3  21
ATOM     21  O   UNL     1      -3.728  12.151  22.138  0.00  0.00    +0.000 OA
ATOM     22  H   UNL     1      -4.195  11.317  22.337  0.00  0.00    +0.000 HD
ENDBRANCH   3  21
BRANCH   8  23
ATOM     23  O   UNL     1       0.857  15.009  18.763  0.00  0.00    +0.000 OA
ATOM     24  H   UNL     1       1.246  15.871  18.952  0.00  0.00    +0.000 HD
ENDBRANCH   8  23
BRANCH  16  25
ATOM     25  O   UNL     1       1.360  11.859  19.927  0.00  0.00    +0.000 OA
ATOM     26  H   UNL     1       2.180  11.947  19.420  0.00  0.00    +0.000 HD
ENDBRANCH  16  25
BRANCH  18  27
ATOM     27  O   UNL     1      -4.679  12.433  17.090  0.00  0.00    +0.000 OA
ATOM     28  H   UNL     1      -4.521  11.958  16.253  0.00  0.00    +0.000 HD
ENDBRANCH  18  27
BRANCH  19  29
ATOM     29  O   UNL     1      -6.719  10.999  17.835  0.00  0.00    +0.000 OA
ATOM     30  H   UNL     1      -7.538  11.462  18.118  0.00  0.00    +0.000 HD
ENDBRANCH  19  29
BRANCH  20  31
ATOM     31  O   UNL     1      -7.662  12.640  19.724  0.00  0.00    +0.000 OA
ATOM     32  H   UNL     1      -7.951  12.475  18.799  0.00  0.00    +0.000 HD
ENDBRANCH  20  31
TORSDOF 6
ENDMDL
MODEL 4
REMARK VINA RESULT:      -6.3      1.900      5.890
REMARK  Name = 
REMARK  6 active torsions:
REMARK  status: ('A' for Active; 'I' for Inactive)
REMARK    1  A    between atoms: C_3  and  O_4
REMARK    2  A    between atoms: C_9  and  O_10
REMARK    3  A    between atoms: C_18  and  O_19
REMARK    4  A    between atoms: C_21  and  O_22
REMARK    5  A    between atoms: C_23  and  O_24
REMARK    6  A    between atoms: C_25  and  O_26
REMARK                            x       y       z     vdW  Elec       q    Type
REMARK                         _______ _______ _______ _____ _____    ______ ____
ROOT
ATOM      1  O   UNL     1       0.366  13.347  18.200  0.00  0.00    +0.000 OA
ATOM      2  C   UNL     1      -0.510  12.787  18.887  0.00  0.00    +0.000 C 
ATOM      3  C   UNL     1      -1.013  13.528  20.139  0.00  0.00    +0.000 C 
ATOM      4  C   UNL     1      -1.456  12.728  21.400  0.00  0.00    +0.000 C 
ATOM      5  C   UNL     1      -2.881  12.814  21.919  0.00  0.00    +0.000 A 
ATOM      6  C   UNL     1      -3.229  12.534  23.240  0.00  0.00    +0.000 A 
ATOM      7  C   UNL     1      -4.585  12.476  23.631  0.00  0.00    +0.000 A 
ATOM      8  C   UNL     1      -5.618  12.631  22.696  0.00  0.00    +0.000 A 
ATOM      9  C   UNL     1      -5.308  12.913  21.380  0.00  0.00    +0.000 A 
ATOM     10  C   UNL     1      -3.939  13.068  21.055  0.00  0.00    +0.000 A 
ATOM     11  C   UNL     1      -6.228  12.932  20.228  0.00  0.00    +0.000 A 
ATOM     12  C   UNL     1      -5.900  11.987  19.238  0.00  0.00    +0.000 A 
ATOM     13  C   UNL     1      -5.901  12.354  17.893  0.00  0.00    +0.000 A 
ATOM     14  C   UNL     1      -6.773  13.382  17.522  0.00  0.00    +0.000 A 
ATOM     15  C   UNL     1      -7.388  14.171  18.514  0.00  0.00    +0.000 A 
ATOM     16  C   UNL     1      -7.018  14.012  19.856  0.00  0.00    +0.000 A 
ATOM     17  C   UNL     1      -4.793  11.808  16.965  0.00  0.00    +0.000 C 
ATOM     18  C   UNL     1      -3.540  11.335  17.801  0.00  0.00    +0.000 C 
ATOM     19  C   UNL     1      -2.105  11.459  17.238  0.00  0.00    +0.000 C 
ATOM     20  C   UNL     1      -1.046  11.423  18.416  0.00  0.00    +0.000 C 
ENDROOT
BRANCH   3  21
ATOM     21  O   UNL     1      -1.917  14.537  19.700  0.00  0.00    +0.000 OA
ATOM     22  H   UNL     1      -2.034  15.163  20.440  0.00  0.00    +0.000 HD
ENDBRANCH   3  21
BRANCH   8  23
ATOM     23  O   UNL     1      -6.921  12.463  23.052  0.00  0.00    +0.000 OA
ATOM     24  H   UNL     1      -6.954  12.003  23.898  0.00  0.00    +0.000 HD
ENDBRANCH   8  23
BRANCH  16  25
ATOM     25  O   UNL     1      -7.348  14.955  20.785  0.00  0.00    +0.000 OA
ATOM     26  H   UNL     1      -6.644  15.620  20.828  0.00  0.00    +0.000 HD
ENDBRANCH  16  25
BRANCH  18  27
ATOM     27  O   UNL     1      -3.717   9.958  18.200  0.00  0.00    +0.000 OA
ATOM     28  H   UNL     1      -4.619   9.856  18.557  0.00  0.00    +0.000 HD
ENDBRANCH  18  27
BRANCH  19  29
ATOM     29  O   UNL     1      -1.919  10.340  16.358  0.00  0.00    +0.000 OA
ATOM     30  H   UNL     1      -1.219   9.798  16.785  0.00  0.00    +0.000 HD
ENDBRANCH  19  29
BRANCH  20  31
ATOM     31  O   UNL     1       0.175  10.776  17.962  0.00  0.00    +0.000 OA
ATOM     32  H   UNL     1       0.017   9.808  18.021  0.00  0.00    +0.000 HD
ENDBRANCH  20  31
TORSDOF 6
ENDMDL
MODEL 5
REMARK VINA RESULT:      -6.2      2.137      6.056
REMARK  Name = 
REMARK  6 active torsions:
REMARK  status: ('A' for Active; 'I' for Inactive)
REMARK    1  A    between atoms: C_3  and  O_4
REMARK    2  A    between atoms: C_9  and  O_10
REMARK    3  A    between atoms: C_18  and  O_19
REMARK    4  A    between atoms: C_21  and  O_22
REMARK    5  A    between atoms: C_23  and  O_24
REMARK    6  A    between atoms: C_25  and  O_26
REMARK                            x       y       z     vdW  Elec       q    Type
REMARK                         _______ _______ _______ _____ _____    ______ ____
ROOT
ATOM      1  O   UNL     1      -0.550  13.019  17.825  0.00  0.00    +0.000 OA
ATOM      2  C   UNL     1      -1.321  12.512  18.663  0.00  0.00    +0.000 C 
ATOM      3  C   UNL     1      -1.442  13.208  20.031  0.00  0.00    +0.000 C 
ATOM      4  C   UNL     1      -1.699  12.371  21.318  0.00  0.00    +0.000 C 
ATOM      5  C   UNL     1      -2.955  12.580  22.147  0.00  0.00    +0.000 A 
ATOM      6  C   UNL     1      -3.042  12.241  23.497  0.00  0.00    +0.000 A 
ATOM      7  C   UNL     1      -4.276  12.309  24.179  0.00  0.00    +0.000 A 
ATOM      8  C   UNL     1      -5.459  12.652  23.508  0.00  0.00    +0.000 A 
ATOM      9  C   UNL     1      -5.408  12.996  22.172  0.00  0.00    +0.000 A 
ATOM     10  C   UNL     1      -4.134  13.017  21.556  0.00  0.00    +0.000 A 
ATOM     11  C   UNL     1      -6.546  13.208  21.258  0.00  0.00    +0.000 A 
ATOM     12  C   UNL     1      -6.564  12.310  20.175  0.00  0.00    +0.000 A 
ATOM     13  C   UNL     1      -6.809  12.776  18.884  0.00  0.00    +0.000 A 
ATOM     14  C   UNL     1      -7.601  13.922  18.769  0.00  0.00    +0.000 A 
ATOM     15  C   UNL     1      -7.880  14.698  19.911  0.00  0.00    +0.000 A 
ATOM     16  C   UNL     1      -7.252  14.396  21.126  0.00  0.00    +0.000 A 
ATOM     17  C   UNL     1      -6.008  12.179  17.705  0.00  0.00    +0.000 C 
ATOM     18  C   UNL     1      -4.675  11.503  18.214  0.00  0.00    +0.000 C 
ATOM     19  C   UNL     1      -3.392  11.506  17.350  0.00  0.00    +0.000 C 
ATOM     20  C   UNL     1      -2.117  11.259  18.258  0.00  0.00    +0.000 C 
ENDROOT
BRANCH   3  21
ATOM     21  O   UNL     1      -2.281  14.345  19.855  0.00  0.00    +0.000 OA
ATOM     22  H   UNL     1      -2.474  14.703  20.743  0.00  0.00    +0.000 HD
ENDBRANCH   3  21
BRANCH   8  23
ATOM     23  O   UNL     1      -6.665  12.607  24.139  0.00  0.00    +0.000 OA
ATOM     24  H   UNL     1      -6.567  12.985  25.020  0.00  0.00    +0.000 HD
ENDBRANCH   8  23
BRANCH  16  25
ATOM     25  O   UNL     1      -7.249  15.298  22.150  0.00  0.00    +0.000 OA
ATOM     26  H   UNL     1      -7.562  16.154  21.823  0.00  0.00    +0.000 HD
ENDBRANCH  16  25
BRANCH  18  27
ATOM     27  O   UNL     1      -4.937  10.130  18.575  0.00  0.00    +0.000 OA
ATOM     28  H   UNL     1      -5.880   9.943  18.408  0.00  0.00    +0.000 HD
ENDBRANCH  18  27
BRANCH  19  29
ATOM     29  O   UNL     1      -3.547  10.443  16.397  0.00  0.00    +0.000 OA
ATOM     30  H   UNL     1      -2.719  10.458  15.868  0.00  0.00    +0.000 HD
ENDBRANCH  19  29
BRANCH  20  31
ATOM     31  O   UNL     1      -1.116  10.513  17.510  0.00  0.00    +0.000 OA
ATOM     32  H   UNL     1      -0.929  11.033  16.698  0.00  0.00    +0.000 HD
ENDBRANCH  20  31
TORSDOF 6
ENDMDL
MODEL 6
REMARK VINA RESULT:      -6.2      2.350      4.599
REMARK  Name = 
REMARK  6 active torsions:
REMARK  status: ('A' for Active; 'I' for Inactive)
REMARK    1  A    between atoms: C_3  and  O_4
REMARK    2  A    between atoms: C_9  and  O_10
REMARK    3  A    between atoms: C_18  and  O_19
REMARK    4  A    between atoms: C_21  and  O_22
REMARK    5  A    between atoms: C_23  and  O_24
REMARK    6  A    between atoms: C_25  and  O_26
REMARK                            x       y       z     vdW  Elec       q    Type
REMARK                         _______ _______ _______ _____ _____    ______ ____
ROOT
ATOM      1  O   UNL     1      -7.125  11.367  18.544  0.00  0.00    +0.000 OA
ATOM      2  C   UNL     1      -6.095  12.045  18.727  0.00  0.00    +0.000 C 
ATOM      3  C   UNL     1      -5.864  12.622  20.135  0.00  0.00    +0.000 C 
ATOM      4  C   UNL     1      -5.144  13.992  20.315  0.00  0.00    +0.000 C 
ATOM      5  C   UNL     1      -3.833  14.090  21.074  0.00  0.00    +0.000 A 
ATOM      6  C   UNL     1      -3.384  15.269  21.669  0.00  0.00    +0.000 A 
ATOM      7  C   UNL     1      -2.089  15.348  22.226  0.00  0.00    +0.000 A 
ATOM      8  C   UNL     1      -1.194  14.271  22.140  0.00  0.00    +0.000 A 
ATOM      9  C   UNL     1      -1.608  13.088  21.560  0.00  0.00    +0.000 A 
ATOM     10  C   UNL     1      -2.949  13.019  21.111  0.00  0.00    +0.000 A 
ATOM     11  C   UNL     1      -0.775  11.921  21.216  0.00  0.00    +0.000 A 
ATOM     12  C   UNL     1      -0.765  11.630  19.840  0.00  0.00    +0.000 A 
ATOM     13  C   UNL     1      -0.919  10.316  19.401  0.00  0.00    +0.000 A 
ATOM     14  C   UNL     1      -0.474   9.309  20.263  0.00  0.00    +0.000 A 
ATOM     15  C   UNL     1      -0.160   9.621  21.601  0.00  0.00    +0.000 A 
ATOM     16  C   UNL     1      -0.425  10.903  22.095  0.00  0.00    +0.000 A 
ATOM     17  C   UNL     1      -1.778  10.038  18.147  0.00  0.00    +0.000 C 
ATOM     18  C   UNL     1      -2.768  11.236  17.865  0.00  0.00    +0.000 C 
ATOM     19  C   UNL     1      -4.164  10.996  17.245  0.00  0.00    +0.000 C 
ATOM     20  C   UNL     1      -5.120  12.222  17.550  0.00  0.00    +0.000 C 
ENDROOT
BRANCH   3  21
ATOM     21  O   UNL     1      -5.385  11.560  20.955  0.00  0.00    +0.000 OA
ATOM     22  H   UNL     1      -5.725  10.727  20.577  0.00  0.00    +0.000 HD
ENDBRANCH   3  21
BRANCH   8  23
ATOM     23  O   UNL     1       0.090  14.386  22.576  0.00  0.00    +0.000 OA
ATOM     24  H   UNL     1       0.666  13.906  21.970  0.00  0.00    +0.000 HD
ENDBRANCH   8  23
BRANCH  16  25
ATOM     25  O   UNL     1      -0.434  11.143  23.439  0.00  0.00    +0.000 OA
ATOM     26  H   UNL     1      -1.350  11.247  23.738  0.00  0.00    +0.000 HD
ENDBRANCH  16  25
BRANCH  18  27
ATOM     27  O   UNL     1      -2.108  12.225  17.045  0.00  0.00    +0.000 OA
ATOM     28  H   UNL     1      -1.613  12.828  17.632  0.00  0.00    +0.000 HD
ENDBRANCH  18  27
BRANCH  19  29
ATOM     29  O   UNL     1      -3.958  10.856  15.831  0.00  0.00    +0.000 OA
ATOM     30  H   UNL     1      -2.982  10.891  15.715  0.00  0.00    +0.000 HD
ENDBRANCH  19  29
BRANCH  20  31
ATOM     31  O   UNL     1      -6.041  12.417  16.440  0.00  0.00    +0.000 OA
ATOM     32  H   UNL     1      -6.483  11.552  16.290  0.00  0.00    +0.000 HD
ENDBRANCH  20  31
TORSDOF 6
ENDMDL
MODEL 7
REMARK VINA RESULT:      -6.1      2.312      6.877
REMARK  Name = 
REMARK  6 active torsions:
REMARK  status: ('A' for Active; 'I' for Inactive)
REMARK    1  A    between atoms: C_3  and  O_4
REMARK    2  A    between atoms: C_9  and  O_10
REMARK    3  A    between atoms: C_18  and  O_19
REMARK    4  A    between atoms: C_21  and  O_22
REMARK    5  A    between atoms: C_23  and  O_24
REMARK    6  A    between atoms: C_25  and  O_26
REMARK                            x       y       z     vdW  Elec       q    Type
REMARK                         _______ _______ _______ _____ _____    ______ ____
ROOT
ATOM      1  O   UNL     1      -3.561   9.660  17.212  0.00  0.00    +0.000 OA
ATOM      2  C   UNL     1      -3.877  10.792  17.625  0.00  0.00    +0.000 C 
ATOM      3  C   UNL     1      -5.364  11.051  17.926  0.00  0.00    +0.000 C 
ATOM      4  C   UNL     1      -5.977  12.465  17.701  0.00  0.00    +0.000 C 
ATOM      5  C   UNL     1      -6.567  13.253  18.858  0.00  0.00    +0.000 A 
ATOM      6  C   UNL     1      -7.517  14.260  18.687  0.00  0.00    +0.000 A 
ATOM      7  C   UNL     1      -7.916  15.067  19.776  0.00  0.00    +0.000 A 
ATOM      8  C   UNL     1      -7.324  14.926  21.039  0.00  0.00    +0.000 A 
ATOM      9  C   UNL     1      -6.382  13.937  21.243  0.00  0.00    +0.000 A 
ATOM     10  C   UNL     1      -6.092  13.083  20.152  0.00  0.00    +0.000 A 
ATOM     11  C   UNL     1      -5.526  13.746  22.428  0.00  0.00    +0.000 A 
ATOM     12  C   UNL     1      -4.152  13.846  22.144  0.00  0.00    +0.000 A 
ATOM     13  C   UNL     1      -3.261  12.908  22.663  0.00  0.00    +0.000 A 
ATOM     14  C   UNL     1      -3.614  12.308  23.876  0.00  0.00    +0.000 A 
ATOM     15  C   UNL     1      -4.925  12.450  24.372  0.00  0.00    +0.000 A 
ATOM     16  C   UNL     1      -5.901  13.072  23.584  0.00  0.00    +0.000 A 
ATOM     17  C   UNL     1      -2.099  12.404  21.777  0.00  0.00    +0.000 C 
ATOM     18  C   UNL     1      -2.410  12.647  20.248  0.00  0.00    +0.000 C 
ATOM     19  C   UNL     1      -1.903  11.672  19.161  0.00  0.00    +0.000 C 
ATOM     20  C   UNL     1      -2.759  11.829  17.837  0.00  0.00    +0.000 C 
ENDROOT
BRANCH   3  21
ATOM     21  O   UNL     1      -5.654  10.445  19.183  0.00  0.00    +0.000 OA
ATOM     22  H   UNL     1      -6.436   9.875  19.055  0.00  0.00    +0.000 HD
ENDBRANCH   3  21
BRANCH   8  23
ATOM     23  O   UNL     1      -7.626  15.777  22.057  0.00  0.00    +0.000 OA
ATOM     24  H   UNL     1      -6.847  16.307  22.260  0.00  0.00    +0.000 HD
ENDBRANCH   8  23
BRANCH  16  25
ATOM     25  O   UNL     1      -7.226  12.945  23.887  0.00  0.00    +0.000 OA
ATOM     26  H   UNL     1      -7.735  12.866  23.067  0.00  0.00    +0.000 HD
ENDBRANCH  16  25
BRANCH  18  27
ATOM     27  O   UNL     1      -1.968  13.968  19.868  0.00  0.00    +0.000 OA
ATOM     28  H   UNL     1      -1.987  14.029  18.895  0.00  0.00    +0.000 HD
ENDBRANCH  18  27
BRANCH  19  29
ATOM     29  O   UNL     1      -0.531  12.017  18.918  0.00  0.00    +0.000 OA
ATOM     30  H   UNL     1      -0.543  12.513  18.070  0.00  0.00    +0.000 HD
ENDBRANCH  19  29
BRANCH  20  31
ATOM     31  O   UNL     1      -1.919  11.587  16.674  0.00  0.00    +0.000 OA
ATOM     32  H   UNL     1      -2.401  11.953  15.900  0.00  0.00    +0.000 HD
ENDBRANCH  20  31
TORSDOF 6
ENDMDL
MODEL 8
REMARK VINA RESULT:      -6.0      2.095      4.686
REMARK  Name = 
REMARK  6 active torsions:
REMARK  status: ('A' for Active; 'I' for Inactive)
REMARK    1  A    between atoms: C_3  and  O_4
REMARK    2  A    between atoms: C_9  and  O_10
REMARK    3  A    between atoms: C_18  and  O_19
REMARK    4  A    between atoms: C_21  and  O_22
REMARK    5  A    between atoms: C_23  and  O_24
REMARK    6  A    between atoms: C_25  and  O_26
REMARK                            x       y       z     vdW  Elec       q    Type
REMARK                         _______ _______ _______ _____ _____    ______ ____
ROOT
ATOM      1  O   UNL     1      -7.460  11.803  17.795  0.00  0.00    +0.000 OA
ATOM      2  C   UNL     1      -6.393  11.503  18.363  0.00  0.00    +0.000 C 
ATOM      3  C   UNL     1      -5.147  11.309  17.479  0.00  0.00    +0.000 C 
ATOM      4  C   UNL     1      -4.056  10.271  17.876  0.00  0.00    +0.000 C 
ATOM      5  C   UNL     1      -2.632  10.709  18.169  0.00  0.00    +0.000 A 
ATOM      6  C   UNL     1      -1.535   9.853  18.067  0.00  0.00    +0.000 A 
ATOM      7  C   UNL     1      -0.256  10.265  18.501  0.00  0.00    +0.000 A 
ATOM      8  C   UNL     1      -0.062  11.515  19.107  0.00  0.00    +0.000 A 
ATOM      9  C   UNL     1      -1.126  12.388  19.221  0.00  0.00    +0.000 A 
ATOM     10  C   UNL     1      -2.366  11.975  18.675  0.00  0.00    +0.000 A 
ATOM     11  C   UNL     1      -1.169  13.653  19.976  0.00  0.00    +0.000 A 
ATOM     12  C   UNL     1      -2.127  13.655  21.007  0.00  0.00    +0.000 A 
ATOM     13  C   UNL     1      -2.967  14.754  21.179  0.00  0.00    +0.000 A 
ATOM     14  C   UNL     1      -2.467  15.997  20.779  0.00  0.00    +0.000 A 
ATOM     15  C   UNL     1      -1.300  16.062  19.991  0.00  0.00    +0.000 A 
ATOM     16  C   UNL     1      -0.728  14.882  19.500  0.00  0.00    +0.000 A 
ATOM     17  C   UNL     1      -4.449  14.517  21.547  0.00  0.00    +0.000 C 
ATOM     18  C   UNL     1      -4.897  13.052  21.161  0.00  0.00    +0.000 C 
ATOM     19  C   UNL     1      -6.342  12.750  20.701  0.00  0.00    +0.000 C 
ATOM     20  C   UNL     1      -6.390  11.385  19.897  0.00  0.00    +0.000 C 
ENDROOT
BRANCH   3  21
ATOM     21  O   UNL     1      -4.669  12.605  17.131  0.00  0.00    +0.000 OA
ATOM     22  H   UNL     1      -5.406  13.079  16.701  0.00  0.00    +0.000 HD
ENDBRANCH   3  21
BRANCH   8  23
ATOM     23  O   UNL     1       1.146  11.865  19.627  0.00  0.00    +0.000 OA
ATOM     24  H   UNL     1       1.166  11.616  20.558  0.00  0.00    +0.000 HD
ENDBRANCH   8  23
BRANCH  16  25
ATOM     25  O   UNL     1       0.192  14.921  18.493  0.00  0.00    +0.000 OA
ATOM     26  H   UNL     1       0.551  15.818  18.423  0.00  0.00    +0.000 HD
ENDBRANCH  16  25
BRANCH  18  27
ATOM     27  O   UNL     1      -4.607  12.154  22.255  0.00  0.00    +0.000 OA
ATOM     28  H   UNL     1      -3.861  12.523  22.764  0.00  0.00    +0.000 HD
ENDBRANCH  18  27
BRANCH  19  29
ATOM     29  O   UNL     1      -7.135  12.660  21.895  0.00  0.00    +0.000 OA
ATOM     30  H   UNL     1      -6.534  12.948  22.618  0.00  0.00    +0.000 HD
ENDBRANCH  19  29
BRANCH  20  31
ATOM     31  O   UNL     1      -7.660  10.716  20.136  0.00  0.00    +0.000 OA
ATOM     32  H   UNL     1      -7.934  10.954  21.049  0.00  0.00    +0.000 HD
ENDBRANCH  20  31
TORSDOF 6
ENDMDL
MODEL 9
REMARK VINA RESULT:      -6.0      2.275      5.397
REMARK  Name = 
REMARK  6 active torsions:
REMARK  status: ('A' for Active; 'I' for Inactive)
REMARK    1  A    between atoms: C_3  and  O_4
REMARK    2  A    between atoms: C_9  and  O_10
REMARK    3  A    between atoms: C_18  and  O_19
REMARK    4  A    between atoms: C_21  and  O_22
REMARK    5  A    between atoms: C_23  and  O_24
REMARK    6  A    between atoms: C_25  and  O_26
REMARK                            x       y       z     vdW  Elec       q    Type
REMARK                         _______ _______ _______ _____ _____    ______ ____
ROOT
ATOM      1  O   UNL     1       1.250  14.201  20.321  0.00  0.00    +0.000 OA
ATOM      2  C   UNL     1       0.252  13.496  20.563  0.00  0.00    +0.000 C 
ATOM      3  C   UNL     1      -1.111  14.204  20.667  0.00  0.00    +0.000 C 
ATOM      4  C   UNL     1      -2.202  13.670  21.642  0.00  0.00    +0.000 C 
ATOM      5  C   UNL     1      -3.543  13.184  21.121  0.00  0.00    +0.000 A 
ATOM      6  C   UNL     1      -4.695  13.142  21.906  0.00  0.00    +0.000 A 
ATOM      7  C   UNL     1      -5.876  12.536  21.422  0.00  0.00    +0.000 A 
ATOM      8  C   UNL     1      -5.907  11.902  20.172  0.00  0.00    +0.000 A 
ATOM      9  C   UNL     1      -4.785  11.928  19.367  0.00  0.00    +0.000 A 
ATOM     10  C   UNL     1      -3.658  12.638  19.848  0.00  0.00    +0.000 A 
ATOM     11  C   UNL     1      -4.561  11.178  18.118  0.00  0.00    +0.000 A 
ATOM     12  C   UNL     1      -3.475  10.286  18.191  0.00  0.00    +0.000 A 
ATOM     13  C   UNL     1      -2.552  10.222  17.148  0.00  0.00    +0.000 A 
ATOM     14  C   UNL     1      -3.021  10.544  15.871  0.00  0.00    +0.000 A 
ATOM     15  C   UNL     1      -4.277  11.166  15.723  0.00  0.00    +0.000 A 
ATOM     16  C   UNL     1      -4.984  11.582  16.858  0.00  0.00    +0.000 A 
ATOM     17  C   UNL     1      -1.051  10.060  17.482  0.00  0.00    +0.000 C 
ATOM     18  C   UNL     1      -0.752  10.511  18.965  0.00  0.00    +0.000 C 
ATOM     19  C   UNL     1       0.596  11.164  19.349  0.00  0.00    +0.000 C 
ATOM     20  C   UNL     1       0.449  11.976  20.702  0.00  0.00    +0.000 C 
ENDROOT
BRANCH   3  21
ATOM     21  O   UNL     1      -1.549  14.477  19.339  0.00  0.00    +0.000 OA
ATOM     22  H   UNL     1      -1.080  13.859  18.747  0.00  0.00    +0.000 HD
ENDBRANCH   3  21
BRANCH   8  23
ATOM     23  O   UNL     1      -7.009  11.221  19.755  0.00  0.00    +0.000 OA
ATOM     24  H   UNL     1      -7.196  11.465  18.841  0.00  0.00    +0.000 HD
ENDBRANCH   8  23
BRANCH  16  25
ATOM     25  O   UNL     1      -6.027  12.455  16.747  0.00  0.00    +0.000 OA
ATOM     26  H   UNL     1      -6.593  12.377  17.530  0.00  0.00    +0.000 HD
ENDBRANCH  16  25
BRANCH  18  27
ATOM     27  O   UNL     1      -0.948   9.394  19.859  0.00  0.00    +0.000 OA
ATOM     28  H   UNL     1      -1.414   9.716  20.653  0.00  0.00    +0.000 HD
ENDBRANCH  18  27
BRANCH  19  29
ATOM     29  O   UNL     1       1.534  10.089  19.505  0.00  0.00    +0.000 OA
ATOM     30  H   UNL     1       1.941  10.237  20.388  0.00  0.00    +0.000 HD
ENDBRANCH  19  29
BRANCH  20  31
ATOM     31  O   UNL     1       1.694  11.915  21.452  0.00  0.00    +0.000 OA
ATOM     32  H   UNL     1       1.478  12.176  22.374  0.00  0.00    +0.000 HD
ENDBRANCH  20  31
TORSDOF 6
ENDMDL
