MODEL 1
REMARK VINA RESULT:      -8.0      0.000      0.000
REMARK  Name = 
REMARK  10 active torsions:
REMARK  status: ('A' for Active; 'I' for Inactive)
REMARK    1  A    between atoms: C_1  and  O_2
REMARK    2  A    between atoms: O_2  and  C_3
REMARK    3  A    between atoms: C_5  and  N_6
REMARK    4  A    between atoms: N_6  and  C_7
REMARK    5  A    between atoms: N_14  and  S_15
REMARK    6  A    between atoms: S_15  and  C_18
REMARK    7  A    between atoms: C_26  and  O_27
REMARK    8  A    between atoms: O_27  and  C_28
REMARK    9  A    between atoms: C_29  and  O_30
REMARK   10  A    between atoms: O_30  and  C_31
REMARK                            x       y       z     vdW  Elec       q    Type
REMARK                         _______ _______ _______ _____ _____    ______ ____
ROOT
ATOM      1  C   UNL     1       2.343   7.074  19.946  0.00  0.00    +0.000 A 
ATOM      2  C   UNL     1       1.445   7.396  20.973  0.00  0.00    +0.000 A 
ATOM      3  C   UNL     1       0.666   8.583  20.961  0.00  0.00    +0.000 A 
ATOM      4  C   UNL     1       0.872   9.462  19.879  0.00  0.00    +0.000 A 
ATOM      5  C   UNL     1       1.611   9.023  18.759  0.00  0.00    +0.000 A 
ATOM      6  C   UNL     1       1.639  10.072  17.819  0.00  0.00    +0.000 A 
ATOM      7  C   UNL     1       1.508  11.193  18.594  0.00  0.00    +0.000 A 
ATOM      8  N   UNL     1       0.656  10.814  19.614  0.00  0.00    +0.000 N 
ATOM      9  C   UNL     1       2.253   7.775  18.749  0.00  0.00    +0.000 A 
ENDROOT
BRANCH   8  10
ATOM     10  S   UNL     1      -0.659  11.882  19.786  0.00  0.00    +0.000 S 
ATOM     11  O   UNL     1      -0.996  11.814  21.198  0.00  0.00    +0.000 OA
ATOM     12  O   UNL     1      -0.150  13.118  19.209  0.00  0.00    +0.000 OA
BRANCH  10  13
ATOM     13  C   UNL     1      -2.088  11.459  18.891  0.00  0.00    +0.000 A 
ATOM     14  C   UNL     1      -2.100  10.372  18.033  0.00  0.00    +0.000 A 
ATOM     15  C   UNL     1      -3.290  10.038  17.393  0.00  0.00    +0.000 A 
ATOM     16  C   UNL     1      -4.467  10.765  17.652  0.00  0.00    +0.000 A 
ATOM     17  C   UNL     1      -4.466  11.793  18.595  0.00  0.00    +0.000 A 
ATOM     18  C   UNL     1      -3.278  12.129  19.224  0.00  0.00    +0.000 A 
ENDBRANCH  10  13
ENDBRANCH   8  10
BRANCH   1  19
ATOM     19  N   UNL     1       3.369   6.098  20.082  0.00  0.00    +0.000 N 
ATOM     20  H   UNL     1       3.053   5.355  20.706  0.00  0.00    +0.000 HD
BRANCH  19  23
ATOM     21  C   UNL     1       5.968   5.447  17.453  0.00  0.00    +0.000 A 
ATOM     22  C   UNL     1       5.214   6.068  18.477  0.00  0.00    +0.000 A 
ATOM     23  C   UNL     1       4.070   5.461  19.005  0.00  0.00    +0.000 A 
ATOM     24  C   UNL     1       3.721   4.204  18.521  0.00  0.00    +0.000 A 
ATOM     25  C   UNL     1       4.406   3.598  17.456  0.00  0.00    +0.000 A 
ATOM     26  C   UNL     1       5.535   4.227  16.894  0.00  0.00    +0.000 A 
BRANCH  21  28
ATOM     27  C   UNL     1       7.381   7.357  17.474  0.00  0.00    +0.000 C 
ATOM     28  O   UNL     1       7.085   6.063  16.949  0.00  0.00    +0.000 OA
ENDBRANCH  21  28
BRANCH  25  29
ATOM     29  O   UNL     1       3.823   2.399  17.125  0.00  0.00    +0.000 OA
ATOM     30  C   UNL     1       3.520   1.457  18.140  0.00  0.00    +0.000 C 
ENDBRANCH  25  29
BRANCH  26  31
ATOM     31  O   UNL     1       6.097   3.586  15.823  0.00  0.00    +0.000 OA
ATOM     32  C   UNL     1       5.906   4.053  14.498  0.00  0.00    +0.000 C 
ENDBRANCH  26  31
ENDBRANCH  19  23
ENDBRANCH   1  19
TORSDOF 7
ENDMDL
MODEL 2
REMARK VINA RESULT:      -8.0      2.053      3.694
REMARK  Name = 
REMARK  10 active torsions:
REMARK  status: ('A' for Active; 'I' for Inactive)
REMARK    1  A    between atoms: C_1  and  O_2
REMARK    2  A    between atoms: O_2  and  C_3
REMARK    3  A    between atoms: C_5  and  N_6
REMARK    4  A    between atoms: N_6  and  C_7
REMARK    5  A    between atoms: N_14  and  S_15
REMARK    6  A    between atoms: S_15  and  C_18
REMARK    7  A    between atoms: C_26  and  O_27
REMARK    8  A    between atoms: O_27  and  C_28
REMARK    9  A    between atoms: C_29  and  O_30
REMARK   10  A    between atoms: O_30  and  C_31
REMARK                            x       y       z     vdW  Elec       q    Type
REMARK                         _______ _______ _______ _____ _____    ______ ____
ROOT
ATOM      1  C   UNL     1       2.106   8.239  18.505  0.00  0.00    +0.000 A 
ATOM      2  C   UNL     1       1.737   9.530  18.100  0.00  0.00    +0.000 A 
ATOM      3  C   UNL     1       1.057  10.434  18.959  0.00  0.00    +0.000 A 
ATOM      4  C   UNL     1       0.719   9.953  20.240  0.00  0.00    +0.000 A 
ATOM      5  C   UNL     1       1.284   8.743  20.698  0.00  0.00    +0.000 A 
ATOM      6  C   UNL     1       0.813   8.512  22.006  0.00  0.00    +0.000 A 
ATOM      7  C   UNL     1      -0.393   9.162  22.026  0.00  0.00    +0.000 A 
ATOM      8  N   UNL     1      -0.199  10.281  21.238  0.00  0.00    +0.000 N 
ATOM      9  C   UNL     1       2.075   7.941  19.862  0.00  0.00    +0.000 A 
ENDROOT
BRANCH   8  10
ATOM     10  S   UNL     1      -0.659  11.716  22.031  0.00  0.00    +0.000 S 
ATOM     11  O   UNL     1      -0.687  11.355  23.438  0.00  0.00    +0.000 OA
ATOM     12  O   UNL     1       0.311  12.683  21.537  0.00  0.00    +0.000 OA
BRANCH  10  13
ATOM     13  C   UNL     1      -2.234  12.325  21.618  0.00  0.00    +0.000 A 
ATOM     14  C   UNL     1      -2.636  12.437  20.298  0.00  0.00    +0.000 A 
ATOM     15  C   UNL     1      -3.931  12.868  20.028  0.00  0.00    +0.000 A 
ATOM     16  C   UNL     1      -4.827  13.137  21.079  0.00  0.00    +0.000 A 
ATOM     17  C   UNL     1      -4.444  12.922  22.403  0.00  0.00    +0.000 A 
ATOM     18  C   UNL     1      -3.151  12.502  22.670  0.00  0.00    +0.000 A 
ENDBRANCH  10  13
ENDBRANCH   8  10
BRANCH   1  19
ATOM     19  N   UNL     1       2.467   7.209  17.594  0.00  0.00    +0.000 N 
ATOM     20  H   UNL     1       3.079   7.589  16.872  0.00  0.00    +0.000 HD
BRANCH  19  23
ATOM     21  C   UNL     1       2.664   3.504  18.170  0.00  0.00    +0.000 A 
ATOM     22  C   UNL     1       2.168   4.799  17.884  0.00  0.00    +0.000 A 
ATOM     23  C   UNL     1       2.997   5.924  17.947  0.00  0.00    +0.000 A 
ATOM     24  C   UNL     1       4.339   5.724  18.257  0.00  0.00    +0.000 A 
ATOM     25  C   UNL     1       4.841   4.464  18.617  0.00  0.00    +0.000 A 
ATOM     26  C   UNL     1       3.998   3.334  18.594  0.00  0.00    +0.000 A 
BRANCH  21  28
ATOM     27  C   UNL     1       0.691   2.444  18.961  0.00  0.00    +0.000 C 
ATOM     28  O   UNL     1       1.831   2.417  18.103  0.00  0.00    +0.000 OA
ENDBRANCH  21  28
BRANCH  25  29
ATOM     29  O   UNL     1       6.173   4.548  18.943  0.00  0.00    +0.000 OA
ATOM     30  C   UNL     1       7.140   4.723  17.921  0.00  0.00    +0.000 C 
ENDBRANCH  25  29
BRANCH  26  31
ATOM     31  O   UNL     1       4.567   2.163  19.018  0.00  0.00    +0.000 OA
ATOM     32  C   UNL     1       4.603   1.814  20.391  0.00  0.00    +0.000 C 
ENDBRANCH  26  31
ENDBRANCH  19  23
ENDBRANCH   1  19
TORSDOF 7
ENDMDL
MODEL 3
REMARK VINA RESULT:      -8.0      2.090      3.502
REMARK  Name = 
REMARK  10 active torsions:
REMARK  status: ('A' for Active; 'I' for Inactive)
REMARK    1  A    between atoms: C_1  and  O_2
REMARK    2  A    between atoms: O_2  and  C_3
REMARK    3  A    between atoms: C_5  and  N_6
REMARK    4  A    between atoms: N_6  and  C_7
REMARK    5  A    between atoms: N_14  and  S_15
REMARK    6  A    between atoms: S_15  and  C_18
REMARK    7  A    between atoms: C_26  and  O_27
REMARK    8  A    between atoms: O_27  and  C_28
REMARK    9  A    between atoms: C_29  and  O_30
REMARK   10  A    between atoms: O_30  and  C_31
REMARK                            x       y       z     vdW  Elec       q    Type
REMARK                         _______ _______ _______ _____ _____    ______ ____
ROOT
ATOM      1  C   UNL     1       1.880   8.478  18.709  0.00  0.00    +0.000 A 
ATOM      2  C   UNL     1       1.596   8.131  20.037  0.00  0.00    +0.000 A 
ATOM      3  C   UNL     1       0.979   9.033  20.945  0.00  0.00    +0.000 A 
ATOM      4  C   UNL     1       0.705  10.327  20.461  0.00  0.00    +0.000 A 
ATOM      5  C   UNL     1       0.798  10.584  19.076  0.00  0.00    +0.000 A 
ATOM      6  C   UNL     1       0.444  11.930  18.859  0.00  0.00    +0.000 A 
ATOM      7  C   UNL     1       0.766  12.535  20.045  0.00  0.00    +0.000 A 
ATOM      8  N   UNL     1       0.474  11.588  21.009  0.00  0.00    +0.000 N 
ATOM      9  C   UNL     1       1.280   9.615  18.182  0.00  0.00    +0.000 A 
ENDROOT
BRANCH   8  10
ATOM     10  S   UNL     1      -0.535  12.205  22.235  0.00  0.00    +0.000 S 
ATOM     11  O   UNL     1      -0.461  11.213  23.294  0.00  0.00    +0.000 OA
ATOM     12  O   UNL     1      -0.007  13.546  22.444  0.00  0.00    +0.000 OA
BRANCH  10  13
ATOM     13  C   UNL     1      -2.209  12.383  21.806  0.00  0.00    +0.000 A 
ATOM     14  C   UNL     1      -3.174  12.625  22.769  0.00  0.00    +0.000 A 
ATOM     15  C   UNL     1      -4.490  12.825  22.362  0.00  0.00    +0.000 A 
ATOM     16  C   UNL     1      -4.820  12.830  20.994  0.00  0.00    +0.000 A 
ATOM     17  C   UNL     1      -3.823  12.687  20.029  0.00  0.00    +0.000 A 
ATOM     18  C   UNL     1      -2.516  12.479  20.437  0.00  0.00    +0.000 A 
ENDBRANCH  10  13
ENDBRANCH   8  10
BRANCH   1  19
ATOM     19  N   UNL     1       2.785   7.749  17.888  0.00  0.00    +0.000 N 
ATOM     20  H   UNL     1       3.645   8.285  17.767  0.00  0.00    +0.000 HD
BRANCH  19  23
ATOM     21  C   UNL     1       2.596   4.001  17.978  0.00  0.00    +0.000 A 
ATOM     22  C   UNL     1       2.239   5.366  17.859  0.00  0.00    +0.000 A 
ATOM     23  C   UNL     1       3.175   6.382  18.075  0.00  0.00    +0.000 A 
ATOM     24  C   UNL     1       4.482   6.007  18.369  0.00  0.00    +0.000 A 
ATOM     25  C   UNL     1       4.848   4.667  18.566  0.00  0.00    +0.000 A 
ATOM     26  C   UNL     1       3.896   3.642  18.388  0.00  0.00    +0.000 A 
BRANCH  21  28
ATOM     27  C   UNL     1       0.899   2.618  18.901  0.00  0.00    +0.000 C 
ATOM     28  O   UNL     1       1.659   3.022  17.764  0.00  0.00    +0.000 OA
ENDBRANCH  21  28
BRANCH  25  29
ATOM     29  O   UNL     1       6.174   4.571  18.912  0.00  0.00    +0.000 OA
ATOM     30  C   UNL     1       7.173   4.666  17.911  0.00  0.00    +0.000 C 
ENDBRANCH  25  29
BRANCH  26  31
ATOM     31  O   UNL     1       4.334   2.374  18.661  0.00  0.00    +0.000 OA
ATOM     32  C   UNL     1       4.453   1.904  19.993  0.00  0.00    +0.000 C 
ENDBRANCH  26  31
ENDBRANCH  19  23
ENDBRANCH   1  19
TORSDOF 7
ENDMDL
MODEL 4
REMARK VINA RESULT:      -7.9      2.616      9.601
REMARK  Name = 
REMARK  10 active torsions:
REMARK  status: ('A' for Active; 'I' for Inactive)
REMARK    1  A    between atoms: C_1  and  O_2
REMARK    2  A    between atoms: O_2  and  C_3
REMARK    3  A    between atoms: C_5  and  N_6
REMARK    4  A    between atoms: N_6  and  C_7
REMARK    5  A    between atoms: N_14  and  S_15
REMARK    6  A    between atoms: S_15  and  C_18
REMARK    7  A    between atoms: C_26  and  O_27
REMARK    8  A    between atoms: O_27  and  C_28
REMARK    9  A    between atoms: C_29  and  O_30
REMARK   10  A    between atoms: O_30  and  C_31
REMARK                            x       y       z     vdW  Elec       q    Type
REMARK                         _______ _______ _______ _____ _____    ______ ____
ROOT
ATOM      1  C   UNL     1       1.469   8.260  20.378  0.00  0.00    +0.000 A 
ATOM      2  C   UNL     1       2.030   8.306  19.094  0.00  0.00    +0.000 A 
ATOM      3  C   UNL     1       2.551   7.154  18.447  0.00  0.00    +0.000 A 
ATOM      4  C   UNL     1       2.524   5.952  19.181  0.00  0.00    +0.000 A 
ATOM      5  C   UNL     1       1.768   5.882  20.371  0.00  0.00    +0.000 A 
ATOM      6  C   UNL     1       1.884   4.574  20.883  0.00  0.00    +0.000 A 
ATOM      7  C   UNL     1       3.097   4.155  20.405  0.00  0.00    +0.000 A 
ATOM      8  N   UNL     1       3.194   4.729  19.151  0.00  0.00    +0.000 N 
ATOM      9  C   UNL     1       1.142   7.017  20.909  0.00  0.00    +0.000 A 
ENDROOT
BRANCH   8  10
ATOM     10  S   UNL     1       3.562   3.584  17.945  0.00  0.00    +0.000 S 
ATOM     11  O   UNL     1       3.897   2.378  18.685  0.00  0.00    +0.000 OA
ATOM     12  O   UNL     1       2.382   3.621  17.093  0.00  0.00    +0.000 OA
BRANCH  10  13
ATOM     13  C   UNL     1       4.924   3.971  16.937  0.00  0.00    +0.000 A 
ATOM     14  C   UNL     1       4.808   4.005  15.558  0.00  0.00    +0.000 A 
ATOM     15  C   UNL     1       5.913   4.386  14.803  0.00  0.00    +0.000 A 
ATOM     16  C   UNL     1       7.108   4.776  15.436  0.00  0.00    +0.000 A 
ATOM     17  C   UNL     1       7.181   4.837  16.828  0.00  0.00    +0.000 A 
ATOM     18  C   UNL     1       6.082   4.448  17.577  0.00  0.00    +0.000 A 
ENDBRANCH  10  13
ENDBRANCH   8  10
BRANCH   1  19
ATOM     19  N   UNL     1       1.259   9.414  21.181  0.00  0.00    +0.000 N 
ATOM     20  H   UNL     1       2.134   9.930  21.275  0.00  0.00    +0.000 HD
BRANCH  19  23
ATOM     21  C   UNL     1      -1.374  11.970  21.976  0.00  0.00    +0.000 A 
ATOM     22  C   UNL     1      -0.388  10.964  22.113  0.00  0.00    +0.000 A 
ATOM     23  C   UNL     1       0.224  10.389  20.995  0.00  0.00    +0.000 A 
ATOM     24  C   UNL     1      -0.137  10.871  19.740  0.00  0.00    +0.000 A 
ATOM     25  C   UNL     1      -1.162  11.814  19.569  0.00  0.00    +0.000 A 
ATOM     26  C   UNL     1      -1.809  12.365  20.694  0.00  0.00    +0.000 A 
BRANCH  21  28
ATOM     27  C   UNL     1      -1.411  13.750  23.548  0.00  0.00    +0.000 C 
ATOM     28  O   UNL     1      -1.961  12.516  23.088  0.00  0.00    +0.000 OA
ENDBRANCH  21  28
BRANCH  25  29
ATOM     29  O   UNL     1      -1.370  12.069  18.236  0.00  0.00    +0.000 OA
ATOM     30  C   UNL     1      -2.233  11.235  17.483  0.00  0.00    +0.000 C 
ENDBRANCH  25  29
BRANCH  26  31
ATOM     31  O   UNL     1      -2.835  13.230  20.422  0.00  0.00    +0.000 OA
ATOM     32  C   UNL     1      -4.180  12.787  20.366  0.00  0.00    +0.000 C 
ENDBRANCH  26  31
ENDBRANCH  19  23
ENDBRANCH   1  19
TORSDOF 7
ENDMDL
MODEL 5
REMARK VINA RESULT:      -7.8      2.117      3.779
REMARK  Name = 
REMARK  10 active torsions:
REMARK  status: ('A' for Active; 'I' for Inactive)
REMARK    1  A    between atoms: C_1  and  O_2
REMARK    2  A    between atoms: O_2  and  C_3
REMARK    3  A    between atoms: C_5  and  N_6
REMARK    4  A    between atoms: N_6  and  C_7
REMARK    5  A    between atoms: N_14  and  S_15
REMARK    6  A    between atoms: S_15  and  C_18
REMARK    7  A    between atoms: C_26  and  O_27
REMARK    8  A    between atoms: O_27  and  C_28
REMARK    9  A    between atoms: C_29  and  O_30
REMARK   10  A    between atoms: O_30  and  C_31
REMARK                            x       y       z     vdW  Elec       q    Type
REMARK                         _______ _______ _______ _____ _____    ______ ____
ROOT
ATOM      1  C   UNL     1       1.970   8.169  18.661  0.00  0.00    +0.000 A 
ATOM      2  C   UNL     1       1.606   9.322  17.951  0.00  0.00    +0.000 A 
ATOM      3  C   UNL     1       0.894  10.395  18.551  0.00  0.00    +0.000 A 
ATOM      4  C   UNL     1       0.521  10.228  19.899  0.00  0.00    +0.000 A 
ATOM      5  C   UNL     1       1.079   9.169  20.648  0.00  0.00    +0.000 A 
ATOM      6  C   UNL     1       0.570   9.250  21.959  0.00  0.00    +0.000 A 
ATOM      7  C   UNL     1      -0.639   9.869  21.791  0.00  0.00    +0.000 A 
ATOM      8  N   UNL     1      -0.429  10.771  20.764  0.00  0.00    +0.000 N 
ATOM      9  C   UNL     1       1.900   8.202  20.049  0.00  0.00    +0.000 A 
ENDROOT
BRANCH   8  10
ATOM     10  S   UNL     1      -0.922  12.347  21.180  0.00  0.00    +0.000 S 
ATOM     11  O   UNL     1       0.064  12.787  22.153  0.00  0.00    +0.000 OA
ATOM     12  O   UNL     1      -1.024  13.006  19.886  0.00  0.00    +0.000 OA
BRANCH  10  13
ATOM     13  C   UNL     1      -2.484  12.468  21.931  0.00  0.00    +0.000 A 
ATOM     14  C   UNL     1      -2.623  12.421  23.308  0.00  0.00    +0.000 A 
ATOM     15  C   UNL     1      -3.889  12.589  23.860  0.00  0.00    +0.000 A 
ATOM     16  C   UNL     1      -4.997  12.851  23.033  0.00  0.00    +0.000 A 
ATOM     17  C   UNL     1      -4.829  12.997  21.655  0.00  0.00    +0.000 A 
ATOM     18  C   UNL     1      -3.569  12.820  21.108  0.00  0.00    +0.000 A 
ENDBRANCH  10  13
ENDBRANCH   8  10
BRANCH   1  19
ATOM     19  N   UNL     1       2.366   6.957  18.032  0.00  0.00    +0.000 N 
ATOM     20  H   UNL     1       2.107   6.983  17.046  0.00  0.00    +0.000 HD
BRANCH  19  23
ATOM     21  C   UNL     1       5.088   4.493  18.814  0.00  0.00    +0.000 A 
ATOM     22  C   UNL     1       3.831   5.143  18.769  0.00  0.00    +0.000 A 
ATOM     23  C   UNL     1       3.668   6.361  18.101  0.00  0.00    +0.000 A 
ATOM     24  C   UNL     1       4.773   6.892  17.441  0.00  0.00    +0.000 A 
ATOM     25  C   UNL     1       6.046   6.307  17.529  0.00  0.00    +0.000 A 
ATOM     26  C   UNL     1       6.222   5.101  18.237  0.00  0.00    +0.000 A 
BRANCH  21  28
ATOM     27  C   UNL     1       4.017   2.698  19.943  0.00  0.00    +0.000 C 
ATOM     28  O   UNL     1       5.224   3.300  19.478  0.00  0.00    +0.000 OA
ENDBRANCH  21  28
BRANCH  25  29
ATOM     29  O   UNL     1       6.972   7.059  16.849  0.00  0.00    +0.000 OA
ATOM     30  C   UNL     1       7.653   8.110  17.514  0.00  0.00    +0.000 C 
ENDBRANCH  25  29
BRANCH  26  31
ATOM     31  O   UNL     1       7.510   4.644  18.316  0.00  0.00    +0.000 OA
ATOM     32  C   UNL     1       8.394   5.096  19.327  0.00  0.00    +0.000 C 
ENDBRANCH  26  31
ENDBRANCH  19  23
ENDBRANCH   1  19
TORSDOF 7
ENDMDL
MODEL 6
REMARK VINA RESULT:      -7.8      2.671      9.662
REMARK  Name = 
REMARK  10 active torsions:
REMARK  status: ('A' for Active; 'I' for Inactive)
REMARK    1  A    between atoms: C_1  and  O_2
REMARK    2  A    between atoms: O_2  and  C_3
REMARK    3  A    between atoms: C_5  and  N_6
REMARK    4  A    between atoms: N_6  and  C_7
REMARK    5  A    between atoms: N_14  and  S_15
REMARK    6  A    between atoms: S_15  and  C_18
REMARK    7  A    between atoms: C_26  and  O_27
REMARK    8  A    between atoms: O_27  and  C_28
REMARK    9  A    between atoms: C_29  and  O_30
REMARK   10  A    between atoms: O_30  and  C_31
REMARK                            x       y       z     vdW  Elec       q    Type
REMARK                         _______ _______ _______ _____ _____    ______ ____
ROOT
ATOM      1  C   UNL     1       1.456   8.119  20.412  0.00  0.00    +0.000 A 
ATOM      2  C   UNL     1       2.098   8.189  19.167  0.00  0.00    +0.000 A 
ATOM      3  C   UNL     1       2.630   7.044  18.518  0.00  0.00    +0.000 A 
ATOM      4  C   UNL     1       2.528   5.821  19.211  0.00  0.00    +0.000 A 
ATOM      5  C   UNL     1       1.696   5.736  20.349  0.00  0.00    +0.000 A 
ATOM      6  C   UNL     1       1.748   4.411  20.825  0.00  0.00    +0.000 A 
ATOM      7  C   UNL     1       2.978   3.975  20.411  0.00  0.00    +0.000 A 
ATOM      8  N   UNL     1       3.168   4.582  19.184  0.00  0.00    +0.000 N 
ATOM      9  C   UNL     1       1.066   6.870  20.882  0.00  0.00    +0.000 A 
ENDROOT
BRANCH   8  10
ATOM     10  S   UNL     1       3.583   3.465  17.968  0.00  0.00    +0.000 S 
ATOM     11  O   UNL     1       3.941   2.259  18.696  0.00  0.00    +0.000 OA
ATOM     12  O   UNL     1       2.415   3.482  17.100  0.00  0.00    +0.000 OA
BRANCH  10  13
ATOM     13  C   UNL     1       4.948   3.903  16.985  0.00  0.00    +0.000 A 
ATOM     14  C   UNL     1       4.831   4.027  15.611  0.00  0.00    +0.000 A 
ATOM     15  C   UNL     1       5.939   4.445  14.880  0.00  0.00    +0.000 A 
ATOM     16  C   UNL     1       7.139   4.781  15.534  0.00  0.00    +0.000 A 
ATOM     17  C   UNL     1       7.214   4.750  16.927  0.00  0.00    +0.000 A 
ATOM     18  C   UNL     1       6.112   4.325  17.651  0.00  0.00    +0.000 A 
ENDBRANCH  10  13
ENDBRANCH   8  10
BRANCH   1  19
ATOM     19  N   UNL     1       1.223   9.255  21.236  0.00  0.00    +0.000 N 
ATOM     20  H   UNL     1       2.092   9.775  21.355  0.00  0.00    +0.000 HD
BRANCH  19  23
ATOM     21  C   UNL     1      -1.446  11.306  19.573  0.00  0.00    +0.000 A 
ATOM     22  C   UNL     1      -0.380  10.399  19.786  0.00  0.00    +0.000 A 
ATOM     23  C   UNL     1       0.184  10.226  21.054  0.00  0.00    +0.000 A 
ATOM     24  C   UNL     1      -0.367  10.943  22.111  0.00  0.00    +0.000 A 
ATOM     25  C   UNL     1      -1.374  11.902  21.918  0.00  0.00    +0.000 A 
ATOM     26  C   UNL     1      -1.915  12.108  20.633  0.00  0.00    +0.000 A 
BRANCH  21  28
ATOM     27  C   UNL     1      -2.523  10.285  17.718  0.00  0.00    +0.000 C 
ATOM     28  O   UNL     1      -1.980  11.460  18.320  0.00  0.00    +0.000 OA
ENDBRANCH  21  28
BRANCH  25  29
ATOM     29  O   UNL     1      -1.693  12.516  23.105  0.00  0.00    +0.000 OA
ATOM     30  C   UNL     1      -1.123  13.773  23.425  0.00  0.00    +0.000 C 
ENDBRANCH  25  29
BRANCH  26  31
ATOM     31  O   UNL     1      -2.848  13.106  20.537  0.00  0.00    +0.000 OA
ATOM     32  C   UNL     1      -4.225  12.854  20.763  0.00  0.00    +0.000 C 
ENDBRANCH  26  31
ENDBRANCH  19  23
ENDBRANCH   1  19
TORSDOF 7
ENDMDL
MODEL 7
REMARK VINA RESULT:      -7.8      2.301      3.959
REMARK  Name = 
REMARK  10 active torsions:
REMARK  status: ('A' for Active; 'I' for Inactive)
REMARK    1  A    between atoms: C_1  and  O_2
REMARK    2  A    between atoms: O_2  and  C_3
REMARK    3  A    between atoms: C_5  and  N_6
REMARK    4  A    between atoms: N_6  and  C_7
REMARK    5  A    between atoms: N_14  and  S_15
REMARK    6  A    between atoms: S_15  and  C_18
REMARK    7  A    between atoms: C_26  and  O_27
REMARK    8  A    between atoms: O_27  and  C_28
REMARK    9  A    between atoms: C_29  and  O_30
REMARK   10  A    between atoms: O_30  and  C_31
REMARK                            x       y       z     vdW  Elec       q    Type
REMARK                         _______ _______ _______ _____ _____    ______ ____
ROOT
ATOM      1  C   UNL     1       2.104   7.940  18.504  0.00  0.00    +0.000 A 
ATOM      2  C   UNL     1       1.818   9.123  17.810  0.00  0.00    +0.000 A 
ATOM      3  C   UNL     1       1.136  10.215  18.411  0.00  0.00    +0.000 A 
ATOM      4  C   UNL     1       0.710  10.037  19.742  0.00  0.00    +0.000 A 
ATOM      5  C   UNL     1       1.193   8.937  20.484  0.00  0.00    +0.000 A 
ATOM      6  C   UNL     1       0.644   9.013  21.779  0.00  0.00    +0.000 A 
ATOM      7  C   UNL     1      -0.529   9.692  21.585  0.00  0.00    +0.000 A 
ATOM      8  N   UNL     1      -0.242  10.605  20.588  0.00  0.00    +0.000 N 
ATOM      9  C   UNL     1       1.988   7.945  19.890  0.00  0.00    +0.000 A 
ENDROOT
BRANCH   8  10
ATOM     10  S   UNL     1      -0.676  12.193  21.023  0.00  0.00    +0.000 S 
ATOM     11  O   UNL     1       0.348  12.597  21.973  0.00  0.00    +0.000 OA
ATOM     12  O   UNL     1      -0.791  12.862  19.735  0.00  0.00    +0.000 OA
BRANCH  10  13
ATOM     13  C   UNL     1      -2.213  12.357  21.816  0.00  0.00    +0.000 A 
ATOM     14  C   UNL     1      -2.316  12.321  23.196  0.00  0.00    +0.000 A 
ATOM     15  C   UNL     1      -3.562  12.524  23.780  0.00  0.00    +0.000 A 
ATOM     16  C   UNL     1      -4.686  12.810  22.982  0.00  0.00    +0.000 A 
ATOM     17  C   UNL     1      -4.551  12.946  21.600  0.00  0.00    +0.000 A 
ATOM     18  C   UNL     1      -3.311  12.733  21.020  0.00  0.00    +0.000 A 
ENDBRANCH  10  13
ENDBRANCH   8  10
BRANCH   1  19
ATOM     19  N   UNL     1       2.464   6.724  17.861  0.00  0.00    +0.000 N 
ATOM     20  H   UNL     1       3.018   6.928  17.029  0.00  0.00    +0.000 HD
BRANCH  19  23
ATOM     21  C   UNL     1       2.811   3.448  19.661  0.00  0.00    +0.000 A 
ATOM     22  C   UNL     1       2.257   4.613  19.077  0.00  0.00    +0.000 A 
ATOM     23  C   UNL     1       3.070   5.587  18.491  0.00  0.00    +0.000 A 
ATOM     24  C   UNL     1       4.442   5.355  18.460  0.00  0.00    +0.000 A 
ATOM     25  C   UNL     1       5.025   4.247  19.095  0.00  0.00    +0.000 A 
ATOM     26  C   UNL     1       4.210   3.283  19.722  0.00  0.00    +0.000 A 
BRANCH  21  28
ATOM     27  C   UNL     1       1.564   2.773  21.567  0.00  0.00    +0.000 C 
ATOM     28  O   UNL     1       1.993   2.507  20.232  0.00  0.00    +0.000 OA
ENDBRANCH  21  28
BRANCH  25  29
ATOM     29  O   UNL     1       6.393   4.285  18.977  0.00  0.00    +0.000 OA
ATOM     30  C   UNL     1       7.096   5.471  19.304  0.00  0.00    +0.000 C 
ENDBRANCH  25  29
BRANCH  26  31
ATOM     31  O   UNL     1       4.876   2.272  20.364  0.00  0.00    +0.000 OA
ATOM     32  C   UNL     1       4.864   0.946  19.864  0.00  0.00    +0.000 C 
ENDBRANCH  26  31
ENDBRANCH  19  23
ENDBRANCH   1  19
TORSDOF 7
ENDMDL
MODEL 8
REMARK VINA RESULT:      -7.8      2.024      3.075
REMARK  Name = 
REMARK  10 active torsions:
REMARK  status: ('A' for Active; 'I' for Inactive)
REMARK    1  A    between atoms: C_1  and  O_2
REMARK    2  A    between atoms: O_2  and  C_3
REMARK    3  A    between atoms: C_5  and  N_6
REMARK    4  A    between atoms: N_6  and  C_7
REMARK    5  A    between atoms: N_14  and  S_15
REMARK    6  A    between atoms: S_15  and  C_18
REMARK    7  A    between atoms: C_26  and  O_27
REMARK    8  A    between atoms: O_27  and  C_28
REMARK    9  A    between atoms: C_29  and  O_30
REMARK   10  A    between atoms: O_30  and  C_31
REMARK                            x       y       z     vdW  Elec       q    Type
REMARK                         _______ _______ _______ _____ _____    ______ ____
ROOT
ATOM      1  C   UNL     1       2.053   8.281  18.605  0.00  0.00    +0.000 A 
ATOM      2  C   UNL     1       1.718   9.536  18.078  0.00  0.00    +0.000 A 
ATOM      3  C   UNL     1       1.021  10.518  18.832  0.00  0.00    +0.000 A 
ATOM      4  C   UNL     1       0.630  10.153  20.135  0.00  0.00    +0.000 A 
ATOM      5  C   UNL     1       1.159   8.979  20.716  0.00  0.00    +0.000 A 
ATOM      6  C   UNL     1       0.638   8.867  22.020  0.00  0.00    +0.000 A 
ATOM      7  C   UNL     1      -0.558   9.530  21.939  0.00  0.00    +0.000 A 
ATOM      8  N   UNL     1      -0.319  10.575  21.067  0.00  0.00    +0.000 N 
ATOM      9  C   UNL     1       1.968   8.100  19.980  0.00  0.00    +0.000 A 
ENDROOT
BRANCH   8  10
ATOM     10  S   UNL     1      -0.786  12.078  21.717  0.00  0.00    +0.000 S 
ATOM     11  O   UNL     1      -0.551  11.940  23.145  0.00  0.00    +0.000 OA
ATOM     12  O   UNL     1      -0.010  13.026  20.931  0.00  0.00    +0.000 OA
BRANCH  10  13
ATOM     13  C   UNL     1      -2.459  12.497  21.504  0.00  0.00    +0.000 A 
ATOM     14  C   UNL     1      -3.020  12.590  20.241  0.00  0.00    +0.000 A 
ATOM     15  C   UNL     1      -4.379  12.863  20.131  0.00  0.00    +0.000 A 
ATOM     16  C   UNL     1      -5.176  12.993  21.284  0.00  0.00    +0.000 A 
ATOM     17  C   UNL     1      -4.621  12.795  22.549  0.00  0.00    +0.000 A 
ATOM     18  C   UNL     1      -3.265  12.533  22.656  0.00  0.00    +0.000 A 
ENDBRANCH  10  13
ENDBRANCH   8  10
BRANCH   1  19
ATOM     19  N   UNL     1       2.431   7.172  17.799  0.00  0.00    +0.000 N 
ATOM     20  H   UNL     1       3.079   7.481  17.074  0.00  0.00    +0.000 HD
BRANCH  19  23
ATOM     21  C   UNL     1       4.830   4.466  18.807  0.00  0.00    +0.000 A 
ATOM     22  C   UNL     1       4.299   5.672  18.289  0.00  0.00    +0.000 A 
ATOM     23  C   UNL     1       2.922   5.913  18.279  0.00  0.00    +0.000 A 
ATOM     24  C   UNL     1       2.090   4.946  18.836  0.00  0.00    +0.000 A 
ATOM     25  C   UNL     1       2.581   3.711  19.288  0.00  0.00    +0.000 A 
ATOM     26  C   UNL     1       3.966   3.449  19.262  0.00  0.00    +0.000 A 
BRANCH  21  28
ATOM     27  C   UNL     1       6.879   4.630  17.616  0.00  0.00    +0.000 C 
ATOM     28  O   UNL     1       6.184   4.251  18.804  0.00  0.00    +0.000 OA
ENDBRANCH  21  28
BRANCH  25  29
ATOM     29  O   UNL     1       1.553   2.911  19.725  0.00  0.00    +0.000 OA
ATOM     30  C   UNL     1       1.264   2.827  21.109  0.00  0.00    +0.000 C 
ENDBRANCH  25  29
BRANCH  26  31
ATOM     31  O   UNL     1       4.338   2.195  19.668  0.00  0.00    +0.000 OA
ATOM     32  C   UNL     1       4.123   1.059  18.849  0.00  0.00    +0.000 C 
ENDBRANCH  26  31
ENDBRANCH  19  23
ENDBRANCH   1  19
TORSDOF 7
ENDMDL
MODEL 9
REMARK VINA RESULT:      -7.7      2.261      3.317
REMARK  Name = 
REMARK  10 active torsions:
REMARK  status: ('A' for Active; 'I' for Inactive)
REMARK    1  A    between atoms: C_1  and  O_2
REMARK    2  A    between atoms: O_2  and  C_3
REMARK    3  A    between atoms: C_5  and  N_6
REMARK    4  A    between atoms: N_6  and  C_7
REMARK    5  A    between atoms: N_14  and  S_15
REMARK    6  A    between atoms: S_15  and  C_18
REMARK    7  A    between atoms: C_26  and  O_27
REMARK    8  A    between atoms: O_27  and  C_28
REMARK    9  A    between atoms: C_29  and  O_30
REMARK   10  A    between atoms: O_30  and  C_31
REMARK                            x       y       z     vdW  Elec       q    Type
REMARK                         _______ _______ _______ _____ _____    ______ ____
ROOT
ATOM      1  C   UNL     1       2.197   8.159  18.443  0.00  0.00    +0.000 A 
ATOM      2  C   UNL     1       1.958   9.380  17.796  0.00  0.00    +0.000 A 
ATOM      3  C   UNL     1       1.253  10.446  18.414  0.00  0.00    +0.000 A 
ATOM      4  C   UNL     1       0.752  10.205  19.708  0.00  0.00    +0.000 A 
ATOM      5  C   UNL     1       1.184   9.063  20.418  0.00  0.00    +0.000 A 
ATOM      6  C   UNL     1       0.565   9.078  21.683  0.00  0.00    +0.000 A 
ATOM      7  C   UNL     1      -0.591   9.778  21.460  0.00  0.00    +0.000 A 
ATOM      8  N   UNL     1      -0.242  10.738  20.528  0.00  0.00    +0.000 N 
ATOM      9  C   UNL     1       2.004   8.095  19.818  0.00  0.00    +0.000 A 
ENDROOT
BRANCH   8  10
ATOM     10  S   UNL     1      -0.687  12.307  21.021  0.00  0.00    +0.000 S 
ATOM     11  O   UNL     1       0.348  12.694  21.965  0.00  0.00    +0.000 OA
ATOM     12  O   UNL     1      -0.833  13.013  19.756  0.00  0.00    +0.000 OA
BRANCH  10  13
ATOM     13  C   UNL     1      -2.213  12.427  21.844  0.00  0.00    +0.000 A 
ATOM     14  C   UNL     1      -2.283  12.433  23.227  0.00  0.00    +0.000 A 
ATOM     15  C   UNL     1      -3.524  12.598  23.833  0.00  0.00    +0.000 A 
ATOM     16  C   UNL     1      -4.677  12.804  23.053  0.00  0.00    +0.000 A 
ATOM     17  C   UNL     1      -4.580  12.898  21.664  0.00  0.00    +0.000 A 
ATOM     18  C   UNL     1      -3.344  12.724  21.063  0.00  0.00    +0.000 A 
ENDBRANCH  10  13
ENDBRANCH   8  10
BRANCH   1  19
ATOM     19  N   UNL     1       2.583   6.974  17.758  0.00  0.00    +0.000 N 
ATOM     20  H   UNL     1       3.195   7.214  16.978  0.00  0.00    +0.000 HD
BRANCH  19  23
ATOM     21  C   UNL     1       5.102   4.499  19.032  0.00  0.00    +0.000 A 
ATOM     22  C   UNL     1       4.517   5.621  18.396  0.00  0.00    +0.000 A 
ATOM     23  C   UNL     1       3.130   5.795  18.364  0.00  0.00    +0.000 A 
ATOM     24  C   UNL     1       2.343   4.852  19.017  0.00  0.00    +0.000 A 
ATOM     25  C   UNL     1       2.889   3.694  19.592  0.00  0.00    +0.000 A 
ATOM     26  C   UNL     1       4.284   3.495  19.590  0.00  0.00    +0.000 A 
BRANCH  21  28
ATOM     27  C   UNL     1       7.161   4.791  17.884  0.00  0.00    +0.000 C 
ATOM     28  O   UNL     1       6.465   4.349  19.049  0.00  0.00    +0.000 OA
ENDBRANCH  21  28
BRANCH  25  29
ATOM     29  O   UNL     1       1.898   2.896  20.109  0.00  0.00    +0.000 OA
ATOM     30  C   UNL     1       1.634   2.911  21.502  0.00  0.00    +0.000 C 
ENDBRANCH  25  29
BRANCH  26  31
ATOM     31  O   UNL     1       4.714   2.308  20.121  0.00  0.00    +0.000 OA
ATOM     32  C   UNL     1       4.639   1.099  19.384  0.00  0.00    +0.000 C 
ENDBRANCH  26  31
ENDBRANCH  19  23
ENDBRANCH   1  19
TORSDOF 7
ENDMDL
