MODEL 1
REMARK VINA RESULT:      -6.2      0.000      0.000
REMARK  Name = 
REMARK  5 active torsions:
REMARK  status: ('A' for Active; 'I' for Inactive)
REMARK    1  A    between atoms: C_1  and  O_2
REMARK    2  A    between atoms: O_2  and  C_3
REMARK    3  A    between atoms: C_5  and  C_6
REMARK    4  A    between atoms: C_7  and  C_8
REMARK    5  A    between atoms: C_10  and  O_11
REMARK                            x       y       z     vdW  Elec       q    Type
REMARK                         _______ _______ _______ _____ _____    ______ ____
ROOT
ATOM      1  C   UNL     1       4.193   4.047  16.954  0.00  0.00    +0.000 C 
ATOM      2  C   UNL     1       5.499   4.083  16.627  0.00  0.00    +0.000 C 
ENDROOT
BRANCH   1   5
ATOM      3  C   UNL     1       2.598   5.150  20.189  0.00  0.00    +0.000 A 
ATOM      4  C   UNL     1       3.287   4.385  19.236  0.00  0.00    +0.000 A 
ATOM      5  C   UNL     1       3.577   4.906  17.975  0.00  0.00    +0.000 A 
ATOM      6  C   UNL     1       3.224   6.221  17.663  0.00  0.00    +0.000 A 
ATOM      7  C   UNL     1       2.569   7.003  18.634  0.00  0.00    +0.000 A 
ATOM      8  S   UNL     1       2.053   8.641  18.467  0.00  0.00    +0.000 S 
ATOM      9  C   UNL     1       1.402   8.679  20.040  0.00  0.00    +0.000 A 
ATOM     10  C   UNL     1       1.563   7.478  20.691  0.00  0.00    +0.000 A 
ATOM     11  C   UNL     1       2.244   6.491  19.896  0.00  0.00    +0.000 A 
BRANCH   3  13
ATOM     12  C   UNL     1       2.310   3.233  21.527  0.00  0.00    +0.000 C 
ATOM     13  O   UNL     1       2.271   4.655  21.432  0.00  0.00    +0.000 OA
ENDBRANCH   3  13
ENDBRANCH   1   5
BRANCH   2  14
ATOM     14  C   UNL     1       6.457   4.986  17.276  0.00  0.00    +0.000 A 
ATOM     15  C   UNL     1       7.041   4.615  18.485  0.00  0.00    +0.000 A 
ATOM     16  C   UNL     1       7.787   5.546  19.211  0.00  0.00    +0.000 A 
ATOM     17  C   UNL     1       7.971   6.864  18.732  0.00  0.00    +0.000 A 
ATOM     18  C   UNL     1       8.617   7.998  19.332  0.00  0.00    +0.000 A 
ATOM     19  C   UNL     1       8.536   9.133  18.558  0.00  0.00    +0.000 A 
ATOM     20  S   UNL     1       7.737   8.839  17.081  0.00  0.00    +0.000 S 
ATOM     21  C   UNL     1       7.418   7.196  17.493  0.00  0.00    +0.000 A 
ATOM     22  C   UNL     1       6.675   6.263  16.744  0.00  0.00    +0.000 A 
BRANCH  16  23
ATOM     23  O   UNL     1       8.306   5.197  20.435  0.00  0.00    +0.000 OA
ATOM     24  H   UNL     1       8.101   4.262  20.600  0.00  0.00    +0.000 HD
ENDBRANCH  16  23
ENDBRANCH   2  14
TORSDOF 4
ENDMDL
MODEL 2
REMARK VINA RESULT:      -6.0      5.136      8.400
REMARK  Name = 
REMARK  5 active torsions:
REMARK  status: ('A' for Active; 'I' for Inactive)
REMARK    1  A    between atoms: C_1  and  O_2
REMARK    2  A    between atoms: O_2  and  C_3
REMARK    3  A    between atoms: C_5  and  C_6
REMARK    4  A    between atoms: C_7  and  C_8
REMARK    5  A    between atoms: C_10  and  O_11
REMARK                            x       y       z     vdW  Elec       q    Type
REMARK                         _______ _______ _______ _____ _____    ______ ____
ROOT
ATOM      1  C   UNL     1      -0.260  13.001  18.489  0.00  0.00    +0.000 C 
ATOM      2  C   UNL     1       0.866  12.396  18.912  0.00  0.00    +0.000 C 
ENDROOT
BRANCH   1   5
ATOM      3  C   UNL     1      -3.131  10.878  17.272  0.00  0.00    +0.000 A 
ATOM      4  C   UNL     1      -1.850  11.432  17.414  0.00  0.00    +0.000 A 
ATOM      5  C   UNL     1      -1.574  12.345  18.432  0.00  0.00    +0.000 A 
ATOM      6  C   UNL     1      -2.565  12.683  19.357  0.00  0.00    +0.000 A 
ATOM      7  C   UNL     1      -3.840  12.096  19.239  0.00  0.00    +0.000 A 
ATOM      8  S   UNL     1      -5.199  12.361  20.268  0.00  0.00    +0.000 S 
ATOM      9  C   UNL     1      -6.187  11.308  19.365  0.00  0.00    +0.000 A 
ATOM     10  C   UNL     1      -5.514  10.761  18.298  0.00  0.00    +0.000 A 
ATOM     11  C   UNL     1      -4.145  11.199  18.209  0.00  0.00    +0.000 A 
BRANCH   3  13
ATOM     12  C   UNL     1      -3.086  10.449  14.957  0.00  0.00    +0.000 C 
ATOM     13  O   UNL     1      -3.443   9.997  16.261  0.00  0.00    +0.000 OA
ENDBRANCH   3  13
ENDBRANCH   1   5
BRANCH   2  14
ATOM     14  C   UNL     1       0.901  10.997  19.353  0.00  0.00    +0.000 A 
ATOM     15  C   UNL     1       0.479  10.670  20.640  0.00  0.00    +0.000 A 
ATOM     16  C   UNL     1       0.703   9.385  21.139  0.00  0.00    +0.000 A 
ATOM     17  C   UNL     1       1.345   8.400  20.354  0.00  0.00    +0.000 A 
ATOM     18  C   UNL     1       1.750   7.061  20.676  0.00  0.00    +0.000 A 
ATOM     19  C   UNL     1       2.402   6.433  19.640  0.00  0.00    +0.000 A 
ATOM     20  S   UNL     1       2.486   7.419  18.252  0.00  0.00    +0.000 S 
ATOM     21  C   UNL     1       1.713   8.738  19.049  0.00  0.00    +0.000 A 
ATOM     22  C   UNL     1       1.481  10.026  18.527  0.00  0.00    +0.000 A 
BRANCH  16  23
ATOM     23  O   UNL     1       0.344   9.086  22.432  0.00  0.00    +0.000 OA
ATOM     24  H   UNL     1      -0.393   8.454  22.408  0.00  0.00    +0.000 HD
ENDBRANCH  16  23
ENDBRANCH   2  14
TORSDOF 4
ENDMDL
MODEL 3
REMARK VINA RESULT:      -6.0      6.905     10.704
REMARK  Name = 
REMARK  5 active torsions:
REMARK  status: ('A' for Active; 'I' for Inactive)
REMARK    1  A    between atoms: C_1  and  O_2
REMARK    2  A    between atoms: O_2  and  C_3
REMARK    3  A    between atoms: C_5  and  C_6
REMARK    4  A    between atoms: C_7  and  C_8
REMARK    5  A    between atoms: C_10  and  O_11
REMARK                            x       y       z     vdW  Elec       q    Type
REMARK                         _______ _______ _______ _____ _____    ______ ____
ROOT
ATOM      1  C   UNL     1      -3.100  14.582  21.849  0.00  0.00    +0.000 C 
ATOM      2  C   UNL     1      -1.830  14.182  22.048  0.00  0.00    +0.000 C 
ENDROOT
BRANCH   1   5
ATOM      3  C   UNL     1      -6.109  12.308  21.890  0.00  0.00    +0.000 A 
ATOM      4  C   UNL     1      -5.138  13.240  22.285  0.00  0.00    +0.000 A 
ATOM      5  C   UNL     1      -4.177  13.698  21.383  0.00  0.00    +0.000 A 
ATOM      6  C   UNL     1      -4.201  13.265  20.055  0.00  0.00    +0.000 A 
ATOM      7  C   UNL     1      -5.201  12.360  19.648  0.00  0.00    +0.000 A 
ATOM      8  S   UNL     1      -5.423  11.706  18.067  0.00  0.00    +0.000 S 
ATOM      9  C   UNL     1      -6.764  10.778  18.553  0.00  0.00    +0.000 A 
ATOM     10  C   UNL     1      -7.049  10.947  19.888  0.00  0.00    +0.000 A 
ATOM     11  C   UNL     1      -6.158  11.868  20.543  0.00  0.00    +0.000 A 
BRANCH   3  13
ATOM     12  C   UNL     1      -7.353  12.683  23.855  0.00  0.00    +0.000 C 
ATOM     13  O   UNL     1      -7.054  11.815  22.763  0.00  0.00    +0.000 OA
ENDBRANCH   3  13
ENDBRANCH   1   5
BRANCH   2  14
ATOM     14  C   UNL     1      -1.380  12.807  21.803  0.00  0.00    +0.000 A 
ATOM     15  C   UNL     1      -1.322  11.903  22.861  0.00  0.00    +0.000 A 
ATOM     16  C   UNL     1      -0.702  10.664  22.684  0.00  0.00    +0.000 A 
ATOM     17  C   UNL     1      -0.139  10.303  21.438  0.00  0.00    +0.000 A 
ATOM     18  C   UNL     1       0.608   9.140  21.048  0.00  0.00    +0.000 A 
ATOM     19  C   UNL     1       1.034   9.189  19.740  0.00  0.00    +0.000 A 
ATOM     20  S   UNL     1       0.495  10.601  18.949  0.00  0.00    +0.000 S 
ATOM     21  C   UNL     1      -0.255  11.207  20.379  0.00  0.00    +0.000 A 
ATOM     22  C   UNL     1      -0.889  12.454  20.539  0.00  0.00    +0.000 A 
BRANCH  16  23
ATOM     23  O   UNL     1      -0.588   9.802  23.748  0.00  0.00    +0.000 OA
ATOM     24  H   UNL     1      -0.939   8.936  23.482  0.00  0.00    +0.000 HD
ENDBRANCH  16  23
ENDBRANCH   2  14
TORSDOF 4
ENDMDL
MODEL 4
REMARK VINA RESULT:      -5.9      5.051      9.606
REMARK  Name = 
REMARK  5 active torsions:
REMARK  status: ('A' for Active; 'I' for Inactive)
REMARK    1  A    between atoms: C_1  and  O_2
REMARK    2  A    between atoms: O_2  and  C_3
REMARK    3  A    between atoms: C_5  and  C_6
REMARK    4  A    between atoms: C_7  and  C_8
REMARK    5  A    between atoms: C_10  and  O_11
REMARK                            x       y       z     vdW  Elec       q    Type
REMARK                         _______ _______ _______ _____ _____    ______ ____
ROOT
ATOM      1  C   UNL     1       0.813  12.579  19.029  0.00  0.00    +0.000 C 
ATOM      2  C   UNL     1      -0.343  13.135  18.619  0.00  0.00    +0.000 C 
ENDROOT
BRANCH   1   5
ATOM      3  C   UNL     1       0.735   9.522  21.238  0.00  0.00    +0.000 A 
ATOM      4  C   UNL     1       0.519  10.821  20.750  0.00  0.00    +0.000 A 
ATOM      5  C   UNL     1       0.943  11.184  19.472  0.00  0.00    +0.000 A 
ATOM      6  C   UNL     1       1.548  10.239  18.640  0.00  0.00    +0.000 A 
ATOM      7  C   UNL     1       1.727   8.925  19.114  0.00  0.00    +0.000 A 
ATOM      8  S   UNL     1       2.438   7.606  18.258  0.00  0.00    +0.000 S 
ATOM      9  C   UNL     1       2.237   6.542  19.572  0.00  0.00    +0.000 A 
ATOM     10  C   UNL     1       1.645   7.163  20.648  0.00  0.00    +0.000 A 
ATOM     11  C   UNL     1       1.334   8.546  20.402  0.00  0.00    +0.000 A 
BRANCH   3  13
ATOM     12  C   UNL     1      -0.584  10.016  23.125  0.00  0.00    +0.000 C 
ATOM     13  O   UNL     1       0.355   9.140  22.504  0.00  0.00    +0.000 OA
ENDBRANCH   3  13
ENDBRANCH   1   5
BRANCH   2  14
ATOM     14  C   UNL     1      -1.612  12.400  18.586  0.00  0.00    +0.000 A 
ATOM     15  C   UNL     1      -1.888  11.551  17.517  0.00  0.00    +0.000 A 
ATOM     16  C   UNL     1      -3.169  11.012  17.369  0.00  0.00    +0.000 A 
ATOM     17  C   UNL     1      -4.194  11.306  18.298  0.00  0.00    +0.000 A 
ATOM     18  C   UNL     1      -5.583  10.942  18.307  0.00  0.00    +0.000 A 
ATOM     19  C   UNL     1      -6.271  11.477  19.373  0.00  0.00    +0.000 A 
ATOM     20  S   UNL     1      -5.249  12.371  20.404  0.00  0.00    +0.000 S 
ATOM     21  C   UNL     1      -3.878  12.119  19.389  0.00  0.00    +0.000 A 
ATOM     22  C   UNL     1      -2.588  12.658  19.559  0.00  0.00    +0.000 A 
BRANCH  16  23
ATOM     23  O   UNL     1      -3.455  10.230  16.276  0.00  0.00    +0.000 OA
ATOM     24  H   UNL     1      -4.326  10.489  15.932  0.00  0.00    +0.000 HD
ENDBRANCH  16  23
ENDBRANCH   2  14
TORSDOF 4
ENDMDL
MODEL 5
REMARK VINA RESULT:      -5.8      5.038      7.744
REMARK  Name = 
REMARK  5 active torsions:
REMARK  status: ('A' for Active; 'I' for Inactive)
REMARK    1  A    between atoms: C_1  and  O_2
REMARK    2  A    between atoms: O_2  and  C_3
REMARK    3  A    between atoms: C_5  and  C_6
REMARK    4  A    between atoms: C_7  and  C_8
REMARK    5  A    between atoms: C_10  and  O_11
REMARK                            x       y       z     vdW  Elec       q    Type
REMARK                         _______ _______ _______ _____ _____    ______ ____
ROOT
ATOM      1  C   UNL     1      -0.803  12.711  18.881  0.00  0.00    +0.000 C 
ATOM      2  C   UNL     1      -0.153  13.889  18.932  0.00  0.00    +0.000 C 
ENDROOT
BRANCH   1   5
ATOM      3  C   UNL     1       0.230   9.834  21.091  0.00  0.00    +0.000 A 
ATOM      4  C   UNL     1      -0.406  10.995  20.623  0.00  0.00    +0.000 A 
ATOM      5  C   UNL     1      -0.223  11.432  19.312  0.00  0.00    +0.000 A 
ATOM      6  C   UNL     1       0.562  10.687  18.428  0.00  0.00    +0.000 A 
ATOM      7  C   UNL     1       1.168   9.500  18.885  0.00  0.00    +0.000 A 
ATOM      8  S   UNL     1       2.164   8.429  17.970  0.00  0.00    +0.000 S 
ATOM      9  C   UNL     1       2.406   7.392  19.298  0.00  0.00    +0.000 A 
ATOM     10  C   UNL     1       1.751   7.838  20.423  0.00  0.00    +0.000 A 
ATOM     11  C   UNL     1       1.020   9.058  20.205  0.00  0.00    +0.000 A 
BRANCH   3  13
ATOM     12  C   UNL     1      -0.811  10.161  23.177  0.00  0.00    +0.000 C 
ATOM     13  O   UNL     1       0.094   9.392  22.387  0.00  0.00    +0.000 OA
ENDBRANCH   3  13
ENDBRANCH   1   5
BRANCH   2  14
ATOM     14  C   UNL     1       1.226  14.016  19.416  0.00  0.00    +0.000 A 
ATOM     15  C   UNL     1       1.464  14.194  20.777  0.00  0.00    +0.000 A 
ATOM     16  C   UNL     1       2.747  14.524  21.222  0.00  0.00    +0.000 A 
ATOM     17  C   UNL     1       3.818  14.671  20.310  0.00  0.00    +0.000 A 
ATOM     18  C   UNL     1       5.179  15.079  20.520  0.00  0.00    +0.000 A 
ATOM     19  C   UNL     1       5.904  15.149  19.353  0.00  0.00    +0.000 A 
ATOM     20  S   UNL     1       4.981  14.671  18.001  0.00  0.00    +0.000 S 
ATOM     21  C   UNL     1       3.565  14.438  18.956  0.00  0.00    +0.000 A 
ATOM     22  C   UNL     1       2.280  14.091  18.495  0.00  0.00    +0.000 A 
BRANCH  16  23
ATOM     23  O   UNL     1       2.963  14.764  22.557  0.00  0.00    +0.000 OA
ATOM     24  H   UNL     1       2.111  14.710  23.021  0.00  0.00    +0.000 HD
ENDBRANCH  16  23
ENDBRANCH   2  14
TORSDOF 4
ENDMDL
MODEL 6
REMARK VINA RESULT:      -5.8      6.525     10.244
REMARK  Name = 
REMARK  5 active torsions:
REMARK  status: ('A' for Active; 'I' for Inactive)
REMARK    1  A    between atoms: C_1  and  O_2
REMARK    2  A    between atoms: O_2  and  C_3
REMARK    3  A    between atoms: C_5  and  C_6
REMARK    4  A    between atoms: C_7  and  C_8
REMARK    5  A    between atoms: C_10  and  O_11
REMARK                            x       y       z     vdW  Elec       q    Type
REMARK                         _______ _______ _______ _____ _____    ______ ____
ROOT
ATOM      1  C   UNL     1      -2.426  14.254  20.931  0.00  0.00    +0.000 C 
ATOM      2  C   UNL     1      -1.171  13.816  21.145  0.00  0.00    +0.000 C 
ENDROOT
BRANCH   1   5
ATOM      3  C   UNL     1      -4.825  11.805  19.358  0.00  0.00    +0.000 A 
ATOM      4  C   UNL     1      -3.677  12.572  19.610  0.00  0.00    +0.000 A 
ATOM      5  C   UNL     1      -3.586  13.370  20.749  0.00  0.00    +0.000 A 
ATOM      6  C   UNL     1      -4.625  13.378  21.684  0.00  0.00    +0.000 A 
ATOM      7  C   UNL     1      -5.760  12.577  21.452  0.00  0.00    +0.000 A 
ATOM      8  S   UNL     1      -7.145  12.428  22.469  0.00  0.00    +0.000 S 
ATOM      9  C   UNL     1      -7.907  11.339  21.405  0.00  0.00    +0.000 A 
ATOM     10  C   UNL     1      -7.139  11.086  20.292  0.00  0.00    +0.000 A 
ATOM     11  C   UNL     1      -5.883  11.789  20.301  0.00  0.00    +0.000 A 
BRANCH   3  13
ATOM     12  C   UNL     1      -4.915  11.760  17.005  0.00  0.00    +0.000 C 
ATOM     13  O   UNL     1      -4.958  11.028  18.228  0.00  0.00    +0.000 OA
ENDBRANCH   3  13
ENDBRANCH   1   5
BRANCH   2  14
ATOM     14  C   UNL     1      -0.825  12.391  21.206  0.00  0.00    +0.000 A 
ATOM     15  C   UNL     1      -0.944  11.705  22.411  0.00  0.00    +0.000 A 
ATOM     16  C   UNL     1      -0.423  10.414  22.531  0.00  0.00    +0.000 A 
ATOM     17  C   UNL     1       0.219   9.784  21.440  0.00  0.00    +0.000 A 
ATOM     18  C   UNL     1       0.892   8.518  21.351  0.00  0.00    +0.000 A 
ATOM     19  C   UNL     1       1.438   8.287  20.110  0.00  0.00    +0.000 A 
ATOM     20  S   UNL     1       1.102   9.555  19.021  0.00  0.00    +0.000 S 
ATOM     21  C   UNL     1       0.281  10.474  20.227  0.00  0.00    +0.000 A 
ATOM     22  C   UNL     1      -0.253  11.770  20.087  0.00  0.00    +0.000 A 
BRANCH  16  23
ATOM     23  O   UNL     1      -0.484   9.765  23.741  0.00  0.00    +0.000 OA
ATOM     24  H   UNL     1      -1.162  10.196  24.287  0.00  0.00    +0.000 HD
ENDBRANCH  16  23
ENDBRANCH   2  14
TORSDOF 4
ENDMDL
MODEL 7
REMARK VINA RESULT:      -5.7      5.752      9.405
REMARK  Name = 
REMARK  5 active torsions:
REMARK  status: ('A' for Active; 'I' for Inactive)
REMARK    1  A    between atoms: C_1  and  O_2
REMARK    2  A    between atoms: O_2  and  C_3
REMARK    3  A    between atoms: C_5  and  C_6
REMARK    4  A    between atoms: C_7  and  C_8
REMARK    5  A    between atoms: C_10  and  O_11
REMARK                            x       y       z     vdW  Elec       q    Type
REMARK                         _______ _______ _______ _____ _____    ______ ____
ROOT
ATOM      1  C   UNL     1      -1.641  13.691  20.205  0.00  0.00    +0.000 C 
ATOM      2  C   UNL     1      -0.490  13.178  20.679  0.00  0.00    +0.000 C 
ENDROOT
BRANCH   1   5
ATOM      3  C   UNL     1      -3.839  11.442  18.122  0.00  0.00    +0.000 A 
ATOM      4  C   UNL     1      -2.719  12.135  18.606  0.00  0.00    +0.000 A 
ATOM      5  C   UNL     1      -2.791  12.880  19.782  0.00  0.00    +0.000 A 
ATOM      6  C   UNL     1      -3.976  12.907  20.523  0.00  0.00    +0.000 A 
ATOM      7  C   UNL     1      -5.089  12.179  20.059  0.00  0.00    +0.000 A 
ATOM      8  S   UNL     1      -6.637  12.065  20.814  0.00  0.00    +0.000 S 
ATOM      9  C   UNL     1      -7.251  11.063  19.581  0.00  0.00    +0.000 A 
ATOM     10  C   UNL     1      -6.312  10.813  18.607  0.00  0.00    +0.000 A 
ATOM     11  C   UNL     1      -5.046  11.446  18.868  0.00  0.00    +0.000 A 
BRANCH   3  13
ATOM     12  C   UNL     1      -2.539  10.710  16.301  0.00  0.00    +0.000 C 
ATOM     13  O   UNL     1      -3.809  10.721  16.950  0.00  0.00    +0.000 OA
ENDBRANCH   3  13
ENDBRANCH   1   5
BRANCH   2  14
ATOM     14  C   UNL     1      -0.257  11.735  20.810  0.00  0.00    +0.000 A 
ATOM     15  C   UNL     1      -0.602  11.087  21.993  0.00  0.00    +0.000 A 
ATOM     16  C   UNL     1      -0.197   9.768  22.208  0.00  0.00    +0.000 A 
ATOM     17  C   UNL     1       0.556   9.070  21.234  0.00  0.00    +0.000 A 
ATOM     18  C   UNL     1       1.145   7.761  21.265  0.00  0.00    +0.000 A 
ATOM     19  C   UNL     1       1.854   7.464  20.124  0.00  0.00    +0.000 A 
ATOM     20  S   UNL     1       1.773   8.725  18.980  0.00  0.00    +0.000 S 
ATOM     21  C   UNL     1       0.847   9.726  20.035  0.00  0.00    +0.000 A 
ATOM     22  C   UNL     1       0.431  11.051  19.799  0.00  0.00    +0.000 A 
BRANCH  16  23
ATOM     23  O   UNL     1      -0.483   9.154  23.403  0.00  0.00    +0.000 OA
ATOM     24  H   UNL     1      -0.838   8.269  23.217  0.00  0.00    +0.000 HD
ENDBRANCH  16  23
ENDBRANCH   2  14
TORSDOF 4
ENDMDL
MODEL 8
REMARK VINA RESULT:      -5.7      1.792      2.663
REMARK  Name = 
REMARK  5 active torsions:
REMARK  status: ('A' for Active; 'I' for Inactive)
REMARK    1  A    between atoms: C_1  and  O_2
REMARK    2  A    between atoms: O_2  and  C_3
REMARK    3  A    between atoms: C_5  and  C_6
REMARK    4  A    between atoms: C_7  and  C_8
REMARK    5  A    between atoms: C_10  and  O_11
REMARK                            x       y       z     vdW  Elec       q    Type
REMARK                         _______ _______ _______ _____ _____    ______ ____
ROOT
ATOM      1  C   UNL     1       4.956   4.027  15.986  0.00  0.00    +0.000 C 
ATOM      2  C   UNL     1       6.208   4.441  15.718  0.00  0.00    +0.000 C 
ENDROOT
BRANCH   1   5
ATOM      3  C   UNL     1       3.211   6.071  18.634  0.00  0.00    +0.000 A 
ATOM      4  C   UNL     1       3.815   5.692  17.425  0.00  0.00    +0.000 A 
ATOM      5  C   UNL     1       4.219   4.374  17.209  0.00  0.00    +0.000 A 
ATOM      6  C   UNL     1       3.980   3.400  18.183  0.00  0.00    +0.000 A 
ATOM      7  C   UNL     1       3.336   3.772  19.379  0.00  0.00    +0.000 A 
ATOM      8  S   UNL     1       2.937   2.739  20.702  0.00  0.00    +0.000 S 
ATOM      9  C   UNL     1       2.262   4.018  21.600  0.00  0.00    +0.000 A 
ATOM     10  C   UNL     1       2.333   5.214  20.923  0.00  0.00    +0.000 A 
ATOM     11  C   UNL     1       2.947   5.093  19.627  0.00  0.00    +0.000 A 
BRANCH   3  13
ATOM     12  C   UNL     1       2.626   8.161  17.721  0.00  0.00    +0.000 C 
ATOM     13  O   UNL     1       2.826   7.368  18.889  0.00  0.00    +0.000 OA
ENDBRANCH   3  13
ENDBRANCH   1   5
BRANCH   2  14
ATOM     14  C   UNL     1       6.984   5.280  16.639  0.00  0.00    +0.000 A 
ATOM     15  C   UNL     1       7.432   4.747  17.845  0.00  0.00    +0.000 A 
ATOM     16  C   UNL     1       7.985   5.587  18.814  0.00  0.00    +0.000 A 
ATOM     17  C   UNL     1       8.109   6.977  18.587  0.00  0.00    +0.000 A 
ATOM     18  C   UNL     1       8.561   8.032  19.451  0.00  0.00    +0.000 A 
ATOM     19  C   UNL     1       8.481   9.275  18.868  0.00  0.00    +0.000 A 
ATOM     20  S   UNL     1       7.918   9.187  17.260  0.00  0.00    +0.000 S 
ATOM     21  C   UNL     1       7.699   7.480  17.350  0.00  0.00    +0.000 A 
ATOM     22  C   UNL     1       7.153   6.642  16.358  0.00  0.00    +0.000 A 
BRANCH  16  23
ATOM     23  O   UNL     1       8.365   5.067  20.029  0.00  0.00    +0.000 OA
ATOM     24  H   UNL     1       8.309   5.771  20.695  0.00  0.00    +0.000 HD
ENDBRANCH  16  23
ENDBRANCH   2  14
TORSDOF 4
ENDMDL
MODEL 9
REMARK VINA RESULT:      -5.5      7.792     12.148
REMARK  Name = 
REMARK  5 active torsions:
REMARK  status: ('A' for Active; 'I' for Inactive)
REMARK    1  A    between atoms: C_1  and  O_2
REMARK    2  A    between atoms: O_2  and  C_3
REMARK    3  A    between atoms: C_5  and  C_6
REMARK    4  A    between atoms: C_7  and  C_8
REMARK    5  A    between atoms: C_10  and  O_11
REMARK                            x       y       z     vdW  Elec       q    Type
REMARK                         _______ _______ _______ _____ _____    ______ ____
ROOT
ATOM      1  C   UNL     1      -0.913  14.438  23.283  0.00  0.00    +0.000 C 
ATOM      2  C   UNL     1      -2.003  14.962  23.875  0.00  0.00    +0.000 C 
ENDROOT
BRANCH   1   5
ATOM      3  C   UNL     1      -0.804  10.930  21.902  0.00  0.00    +0.000 A 
ATOM      4  C   UNL     1      -0.882  12.009  22.796  0.00  0.00    +0.000 A 
ATOM      5  C   UNL     1      -0.951  13.321  22.330  0.00  0.00    +0.000 A 
ATOM      6  C   UNL     1      -0.993  13.574  20.956  0.00  0.00    +0.000 A 
ATOM      7  C   UNL     1      -0.956  12.489  20.059  0.00  0.00    +0.000 A 
ATOM      8  S   UNL     1      -1.005  12.571  18.336  0.00  0.00    +0.000 S 
ATOM      9  C   UNL     1      -0.893  10.880  18.174  0.00  0.00    +0.000 A 
ATOM     10  C   UNL     1      -0.817  10.251  19.396  0.00  0.00    +0.000 A 
ATOM     11  C   UNL     1      -0.859  11.167  20.506  0.00  0.00    +0.000 A 
BRANCH   3  13
ATOM     12  C   UNL     1       0.161   9.438  23.448  0.00  0.00    +0.000 C 
ATOM     13  O   UNL     1      -0.705   9.625  22.331  0.00  0.00    +0.000 OA
ENDBRANCH   3  13
ENDBRANCH   1   5
BRANCH   2  14
ATOM     14  C   UNL     1      -3.359  14.454  23.638  0.00  0.00    +0.000 A 
ATOM     15  C   UNL     1      -3.844  13.401  24.409  0.00  0.00    +0.000 A 
ATOM     16  C   UNL     1      -5.043  12.776  24.057  0.00  0.00    +0.000 A 
ATOM     17  C   UNL     1      -5.783  13.203  22.930  0.00  0.00    +0.000 A 
ATOM     18  C   UNL     1      -6.977  12.671  22.335  0.00  0.00    +0.000 A 
ATOM     19  C   UNL     1      -7.359  13.348  21.200  0.00  0.00    +0.000 A 
ATOM     20  S   UNL     1      -6.326  14.663  20.867  0.00  0.00    +0.000 S 
ATOM     21  C   UNL     1      -5.301  14.294  22.202  0.00  0.00    +0.000 A 
ATOM     22  C   UNL     1      -4.101  14.943  22.554  0.00  0.00    +0.000 A 
BRANCH  16  23
ATOM     23  O   UNL     1      -5.484  11.694  24.780  0.00  0.00    +0.000 OA
ATOM     24  H   UNL     1      -4.751  11.371  25.329  0.00  0.00    +0.000 HD
ENDBRANCH  16  23
ENDBRANCH   2  14
TORSDOF 4
ENDMDL
