MODEL 1
REMARK VINA RESULT:      -7.8      0.000      0.000
REMARK  Name = 
REMARK  10 active torsions:
REMARK  status: ('A' for Active; 'I' for Inactive)
REMARK    1  A    between atoms: C_1  and  C_2
REMARK    2  A    between atoms: C_2  and  O_3
REMARK    3  A    between atoms: O_3  and  C_4
REMARK    4  A    between atoms: C_4  and  C_6
REMARK    5  A    between atoms: C_9  and  O_10
REMARK    6  A    between atoms: O_10  and  S_11
REMARK    7  A    between atoms: S_11  and  N_14
REMARK    8  A    between atoms: N_14  and  C_15
REMARK    9  A    between atoms: C_23  and  O_24
REMARK   10  A    between atoms: O_24  and  C_25
REMARK                            x       y       z     vdW  Elec       q    Type
REMARK                         _______ _______ _______ _____ _____    ______ ____
ROOT
ATOM      1  S   UNL     1       2.270   3.638  19.892  0.00  0.00    +0.000 S 
ATOM      2  O   UNL     1       1.462   3.001  20.937  0.00  0.00    +0.000 OA
ATOM      3  O   UNL     1       1.516   3.950  18.678  0.00  0.00    +0.000 OA
ENDROOT
BRANCH   1   4
ATOM      4  O   UNL     1       2.702   5.090  20.547  0.00  0.00    +0.000 OA
BRANCH   4   8
ATOM      5  C   UNL     1       1.645   8.801  18.912  0.00  0.00    +0.000 A 
ATOM      6  C   UNL     1       2.413   7.919  18.152  0.00  0.00    +0.000 A 
ATOM      7  C   UNL     1       2.784   6.679  18.677  0.00  0.00    +0.000 A 
ATOM      8  C   UNL     1       2.389   6.296  19.959  0.00  0.00    +0.000 A 
ATOM      9  C   UNL     1       1.615   7.181  20.720  0.00  0.00    +0.000 A 
ATOM     10  C   UNL     1       1.244   8.433  20.204  0.00  0.00    +0.000 A 
BRANCH   5  11
ATOM     11  C   UNL     1       1.336  10.128  18.319  0.00  0.00    +0.000 C 
ATOM     12  O   UNL     1       2.137  11.035  18.134  0.00  0.00    +0.000 OA
BRANCH  11  13
ATOM     13  O   UNL     1      -0.006  10.243  18.149  0.00  0.00    +0.000 OA
BRANCH  13  15
ATOM     14  C   UNL     1      -1.026  11.248  20.080  0.00  0.00    +0.000 C 
ATOM     15  C   UNL     1      -0.572  11.458  18.647  0.00  0.00    +0.000 C 
ENDBRANCH  13  15
ENDBRANCH  11  13
ENDBRANCH   5  11
ENDBRANCH   4   8
ENDBRANCH   1   4
BRANCH   1  16
ATOM     16  N   UNL     1       3.658   2.892  19.652  0.00  0.00    +0.000 NA
BRANCH  16  17
ATOM     17  C   UNL     1       4.585   3.567  18.986  0.00  0.00    +0.000 C 
ATOM     18  O   UNL     1       5.451   4.286  19.477  0.00  0.00    +0.000 OA
ATOM     19  N   UNL     1       4.489   3.325  17.628  0.00  0.00    +0.000 N 
ATOM     20  C   UNL     1       5.280   3.924  16.655  0.00  0.00    +0.000 A 
ATOM     21  N   UNL     1       5.050   3.573  15.381  0.00  0.00    +0.000 NA
ATOM     22  C   UNL     1       5.832   4.186  14.468  0.00  0.00    +0.000 A 
ATOM     23 CL   UNL     1       5.532   3.699  12.848  0.00  0.00    +0.000 Cl
ATOM     24  C   UNL     1       6.800   5.116  14.738  0.00  0.00    +0.000 A 
ATOM     25  C   UNL     1       6.939   5.395  16.061  0.00  0.00    +0.000 A 
ATOM     26  N   UNL     1       6.204   4.815  17.007  0.00  0.00    +0.000 NA
ATOM     27  H   UNL     1       3.772   2.703  17.301  0.00  0.00    +0.000 HD
BRANCH  25  28
ATOM     28  O   UNL     1       7.889   6.324  16.439  0.00  0.00    +0.000 OA
ATOM     29  C   UNL     1       7.355   7.281  17.364  0.00  0.00    +0.000 C 
ENDBRANCH  25  28
ENDBRANCH  16  17
ENDBRANCH   1  16
TORSDOF 8
ENDMDL
MODEL 2
REMARK VINA RESULT:      -7.7      1.860      2.548
REMARK  Name = 
REMARK  10 active torsions:
REMARK  status: ('A' for Active; 'I' for Inactive)
REMARK    1  A    between atoms: C_1  and  C_2
REMARK    2  A    between atoms: C_2  and  O_3
REMARK    3  A    between atoms: O_3  and  C_4
REMARK    4  A    between atoms: C_4  and  C_6
REMARK    5  A    between atoms: C_9  and  O_10
REMARK    6  A    between atoms: O_10  and  S_11
REMARK    7  A    between atoms: S_11  and  N_14
REMARK    8  A    between atoms: N_14  and  C_15
REMARK    9  A    between atoms: C_23  and  O_24
REMARK   10  A    between atoms: O_24  and  C_25
REMARK                            x       y       z     vdW  Elec       q    Type
REMARK                         _______ _______ _______ _____ _____    ______ ____
ROOT
ATOM      1  S   UNL     1       1.970   3.613  20.190  0.00  0.00    +0.000 S 
ATOM      2  O   UNL     1       1.250   3.128  21.372  0.00  0.00    +0.000 OA
ATOM      3  O   UNL     1       1.091   3.977  19.079  0.00  0.00    +0.000 OA
ENDROOT
BRANCH   1   4
ATOM      4  O   UNL     1       2.673   5.017  20.695  0.00  0.00    +0.000 OA
BRANCH   4   8
ATOM      5  C   UNL     1       1.501   8.767  19.238  0.00  0.00    +0.000 A 
ATOM      6  C   UNL     1       1.066   8.364  20.500  0.00  0.00    +0.000 A 
ATOM      7  C   UNL     1       1.437   7.116  21.005  0.00  0.00    +0.000 A 
ATOM      8  C   UNL     1       2.253   6.258  20.267  0.00  0.00    +0.000 A 
ATOM      9  C   UNL     1       2.692   6.665  19.002  0.00  0.00    +0.000 A 
ATOM     10  C   UNL     1       2.318   7.914  18.481  0.00  0.00    +0.000 A 
BRANCH   5  11
ATOM     11  C   UNL     1       1.022  10.080  18.733  0.00  0.00    +0.000 C 
ATOM     12  O   UNL     1       1.311  11.176  19.196  0.00  0.00    +0.000 OA
BRANCH  11  13
ATOM     13  O   UNL     1       0.088   9.877  17.768  0.00  0.00    +0.000 OA
BRANCH  13  15
ATOM     14  C   UNL     1      -2.191   9.925  17.007  0.00  0.00    +0.000 C 
ATOM     15  C   UNL     1      -1.217  10.368  18.084  0.00  0.00    +0.000 C 
ENDBRANCH  13  15
ENDBRANCH  11  13
ENDBRANCH   5  11
ENDBRANCH   4   8
ENDBRANCH   1   4
BRANCH   1  16
ATOM     16  N   UNL     1       3.201   2.680  19.800  0.00  0.00    +0.000 NA
BRANCH  16  17
ATOM     17  C   UNL     1       3.916   3.054  18.747  0.00  0.00    +0.000 C 
ATOM     18  O   UNL     1       3.828   2.598  17.611  0.00  0.00    +0.000 OA
ATOM     19  N   UNL     1       4.776   4.086  19.078  0.00  0.00    +0.000 N 
ATOM     20  C   UNL     1       5.697   4.663  18.213  0.00  0.00    +0.000 A 
ATOM     21  N   UNL     1       6.455   5.656  18.702  0.00  0.00    +0.000 NA
ATOM     22  C   UNL     1       7.342   6.181  17.832  0.00  0.00    +0.000 A 
ATOM     23 CL   UNL     1       8.281   7.467  18.479  0.00  0.00    +0.000 Cl
ATOM     24  C   UNL     1       7.528   5.779  16.536  0.00  0.00    +0.000 A 
ATOM     25  C   UNL     1       6.709   4.764  16.154  0.00  0.00    +0.000 A 
ATOM     26  N   UNL     1       5.807   4.214  16.964  0.00  0.00    +0.000 NA
ATOM     27  H   UNL     1       4.775   4.427  20.023  0.00  0.00    +0.000 HD
BRANCH  25  28
ATOM     28  O   UNL     1       6.818   4.282  14.865  0.00  0.00    +0.000 OA
ATOM     29  C   UNL     1       5.535   4.143  14.240  0.00  0.00    +0.000 C 
ENDBRANCH  25  28
ENDBRANCH  16  17
ENDBRANCH   1  16
TORSDOF 8
ENDMDL
MODEL 3
REMARK VINA RESULT:      -7.7      1.365      1.873
REMARK  Name = 
REMARK  10 active torsions:
REMARK  status: ('A' for Active; 'I' for Inactive)
REMARK    1  A    between atoms: C_1  and  C_2
REMARK    2  A    between atoms: C_2  and  O_3
REMARK    3  A    between atoms: O_3  and  C_4
REMARK    4  A    between atoms: C_4  and  C_6
REMARK    5  A    between atoms: C_9  and  O_10
REMARK    6  A    between atoms: O_10  and  S_11
REMARK    7  A    between atoms: S_11  and  N_14
REMARK    8  A    between atoms: N_14  and  C_15
REMARK    9  A    between atoms: C_23  and  O_24
REMARK   10  A    between atoms: O_24  and  C_25
REMARK                            x       y       z     vdW  Elec       q    Type
REMARK                         _______ _______ _______ _____ _____    ______ ____
ROOT
ATOM      1  S   UNL     1       2.798   2.523  19.137  0.00  0.00    +0.000 S 
ATOM      2  O   UNL     1       1.782   2.372  20.184  0.00  0.00    +0.000 OA
ATOM      3  O   UNL     1       2.720   1.497  18.097  0.00  0.00    +0.000 OA
ENDROOT
BRANCH   1   4
ATOM      4  O   UNL     1       2.409   3.948  18.403  0.00  0.00    +0.000 OA
BRANCH   4   8
ATOM      5  C   UNL     1       1.701   7.562  20.404  0.00  0.00    +0.000 A 
ATOM      6  C   UNL     1       1.371   6.362  21.033  0.00  0.00    +0.000 A 
ATOM      7  C   UNL     1       1.591   5.144  20.385  0.00  0.00    +0.000 A 
ATOM      8  C   UNL     1       2.151   5.104  19.107  0.00  0.00    +0.000 A 
ATOM      9  C   UNL     1       2.484   6.309  18.477  0.00  0.00    +0.000 A 
ATOM     10  C   UNL     1       2.260   7.538  19.117  0.00  0.00    +0.000 A 
BRANCH   5  11
ATOM     11  C   UNL     1       1.386   8.823  21.122  0.00  0.00    +0.000 C 
ATOM     12  O   UNL     1       1.372   8.972  22.337  0.00  0.00    +0.000 OA
BRANCH  11  13
ATOM     13  O   UNL     1       0.966   9.756  20.230  0.00  0.00    +0.000 OA
BRANCH  13  15
ATOM     14  C   UNL     1      -0.486  11.672  20.214  0.00  0.00    +0.000 C 
ATOM     15  C   UNL     1       0.790  11.068  20.772  0.00  0.00    +0.000 C 
ENDBRANCH  13  15
ENDBRANCH  11  13
ENDBRANCH   5  11
ENDBRANCH   4   8
ENDBRANCH   1   4
BRANCH   1  16
ATOM     16  N   UNL     1       4.255   2.775  19.731  0.00  0.00    +0.000 NA
BRANCH  16  17
ATOM     17  C   UNL     1       5.045   3.581  19.035  0.00  0.00    +0.000 C 
ATOM     18  O   UNL     1       5.740   4.486  19.489  0.00  0.00    +0.000 OA
ATOM     19  N   UNL     1       5.031   3.245  17.693  0.00  0.00    +0.000 N 
ATOM     20  C   UNL     1       5.711   3.931  16.694  0.00  0.00    +0.000 A 
ATOM     21  N   UNL     1       5.585   3.466  15.442  0.00  0.00    +0.000 NA
ATOM     22  C   UNL     1       6.252   4.168  14.502  0.00  0.00    +0.000 A 
ATOM     23 CL   UNL     1       6.092   3.536  12.911  0.00  0.00    +0.000 Cl
ATOM     24  C   UNL     1       7.010   5.287  14.724  0.00  0.00    +0.000 A 
ATOM     25  C   UNL     1       7.059   5.665  16.028  0.00  0.00    +0.000 A 
ATOM     26  N   UNL     1       6.432   5.007  17.000  0.00  0.00    +0.000 NA
ATOM     27  H   UNL     1       4.459   2.474  17.398  0.00  0.00    +0.000 HD
BRANCH  25  28
ATOM     28  O   UNL     1       7.797   6.785  16.359  0.00  0.00    +0.000 OA
ATOM     29  C   UNL     1       7.578   7.181  17.719  0.00  0.00    +0.000 C 
ENDBRANCH  25  28
ENDBRANCH  16  17
ENDBRANCH   1  16
TORSDOF 8
ENDMDL
MODEL 4
REMARK VINA RESULT:      -7.7      3.587      7.113
REMARK  Name = 
REMARK  10 active torsions:
REMARK  status: ('A' for Active; 'I' for Inactive)
REMARK    1  A    between atoms: C_1  and  C_2
REMARK    2  A    between atoms: C_2  and  O_3
REMARK    3  A    between atoms: O_3  and  C_4
REMARK    4  A    between atoms: C_4  and  C_6
REMARK    5  A    between atoms: C_9  and  O_10
REMARK    6  A    between atoms: O_10  and  S_11
REMARK    7  A    between atoms: S_11  and  N_14
REMARK    8  A    between atoms: N_14  and  C_15
REMARK    9  A    between atoms: C_23  and  O_24
REMARK   10  A    between atoms: O_24  and  C_25
REMARK                            x       y       z     vdW  Elec       q    Type
REMARK                         _______ _______ _______ _____ _____    ______ ____
ROOT
ATOM      1  S   UNL     1       1.725   3.722  20.442  0.00  0.00    +0.000 S 
ATOM      2  O   UNL     1       0.576   4.108  19.617  0.00  0.00    +0.000 OA
ATOM      3  O   UNL     1       1.388   2.782  21.511  0.00  0.00    +0.000 OA
ENDROOT
BRANCH   1   4
ATOM      4  O   UNL     1       2.707   2.899  19.403  0.00  0.00    +0.000 OA
BRANCH   4   8
ATOM      5  C   UNL     1       5.737   4.789  17.211  0.00  0.00    +0.000 A 
ATOM      6  C   UNL     1       4.504   4.557  16.603  0.00  0.00    +0.000 A 
ATOM      7  C   UNL     1       3.480   3.923  17.310  0.00  0.00    +0.000 A 
ATOM      8  C   UNL     1       3.666   3.520  18.633  0.00  0.00    +0.000 A 
ATOM      9  C   UNL     1       4.903   3.757  19.243  0.00  0.00    +0.000 A 
ATOM     10  C   UNL     1       5.941   4.386  18.539  0.00  0.00    +0.000 A 
BRANCH   5  11
ATOM     11  C   UNL     1       6.804   5.414  16.386  0.00  0.00    +0.000 C 
ATOM     12  O   UNL     1       7.620   4.816  15.697  0.00  0.00    +0.000 OA
BRANCH  11  13
ATOM     13  O   UNL     1       6.835   6.749  16.626  0.00  0.00    +0.000 OA
BRANCH  13  15
ATOM     14  C   UNL     1       7.871   8.650  17.671  0.00  0.00    +0.000 C 
ATOM     15  C   UNL     1       7.685   7.144  17.706  0.00  0.00    +0.000 C 
ENDBRANCH  13  15
ENDBRANCH  11  13
ENDBRANCH   5  11
ENDBRANCH   4   8
ENDBRANCH   1   4
BRANCH   1  16
ATOM     16  N   UNL     1       2.600   4.975  20.895  0.00  0.00    +0.000 NA
BRANCH  16  17
ATOM     17  C   UNL     1       2.244   6.154  20.403  0.00  0.00    +0.000 C 
ATOM     18  O   UNL     1       2.505   6.581  19.282  0.00  0.00    +0.000 OA
ATOM     19  N   UNL     1       1.478   6.857  21.315  0.00  0.00    +0.000 N 
ATOM     20  C   UNL     1       0.996   8.146  21.124  0.00  0.00    +0.000 A 
ATOM     21  N   UNL     1       0.268   8.678  22.118  0.00  0.00    +0.000 NA
ATOM     22  C   UNL     1      -0.170   9.934  21.895  0.00  0.00    +0.000 A 
ATOM     23 CL   UNL     1      -1.121  10.581  23.173  0.00  0.00    +0.000 Cl
ATOM     24  C   UNL     1       0.076  10.683  20.775  0.00  0.00    +0.000 A 
ATOM     25  C   UNL     1       0.826  10.042  19.841  0.00  0.00    +0.000 A 
ATOM     26  N   UNL     1       1.278   8.800  20.000  0.00  0.00    +0.000 NA
ATOM     27  H   UNL     1       1.281   6.432  22.204  0.00  0.00    +0.000 HD
BRANCH  25  28
ATOM     28  O   UNL     1       1.134  10.712  18.673  0.00  0.00    +0.000 OA
ATOM     29  C   UNL     1       1.926   9.905  17.792  0.00  0.00    +0.000 C 
ENDBRANCH  25  28
ENDBRANCH  16  17
ENDBRANCH   1  16
TORSDOF 8
ENDMDL
MODEL 5
REMARK VINA RESULT:      -7.5      3.677      8.042
REMARK  Name = 
REMARK  10 active torsions:
REMARK  status: ('A' for Active; 'I' for Inactive)
REMARK    1  A    between atoms: C_1  and  C_2
REMARK    2  A    between atoms: C_2  and  O_3
REMARK    3  A    between atoms: O_3  and  C_4
REMARK    4  A    between atoms: C_4  and  C_6
REMARK    5  A    between atoms: C_9  and  O_10
REMARK    6  A    between atoms: O_10  and  S_11
REMARK    7  A    between atoms: S_11  and  N_14
REMARK    8  A    between atoms: N_14  and  C_15
REMARK    9  A    between atoms: C_23  and  O_24
REMARK   10  A    between atoms: O_24  and  C_25
REMARK                            x       y       z     vdW  Elec       q    Type
REMARK                         _______ _______ _______ _____ _____    ______ ____
ROOT
ATOM      1  S   UNL     1       6.956   6.311  16.672  0.00  0.00    +0.000 S 
ATOM      2  O   UNL     1       7.002   5.123  17.531  0.00  0.00    +0.000 OA
ATOM      3  O   UNL     1       7.740   7.433  17.186  0.00  0.00    +0.000 OA
ENDROOT
BRANCH   1   4
ATOM      4  O   UNL     1       7.702   5.830  15.281  0.00  0.00    +0.000 OA
BRANCH   4   8
ATOM      5  C   UNL     1       6.006   3.352  12.359  0.00  0.00    +0.000 A 
ATOM      6  C   UNL     1       5.396   3.441  13.610  0.00  0.00    +0.000 A 
ATOM      7  C   UNL     1       5.946   4.255  14.603  0.00  0.00    +0.000 A 
ATOM      8  C   UNL     1       7.102   4.997  14.362  0.00  0.00    +0.000 A 
ATOM      9  C   UNL     1       7.712   4.910  13.105  0.00  0.00    +0.000 A 
ATOM     10  C   UNL     1       7.172   4.089  12.103  0.00  0.00    +0.000 A 
BRANCH   5  11
ATOM     11  C   UNL     1       5.406   2.422  11.367  0.00  0.00    +0.000 C 
ATOM     12  O   UNL     1       5.588   1.213  11.316  0.00  0.00    +0.000 OA
BRANCH  11  13
ATOM     13  O   UNL     1       4.739   3.138  10.426  0.00  0.00    +0.000 OA
BRANCH  13  15
ATOM     14  C   UNL     1       2.766   4.327   9.738  0.00  0.00    +0.000 C 
ATOM     15  C   UNL     1       3.329   3.243  10.639  0.00  0.00    +0.000 C 
ENDBRANCH  13  15
ENDBRANCH  11  13
ENDBRANCH   5  11
ENDBRANCH   4   8
ENDBRANCH   1   4
BRANCH   1  16
ATOM     16  N   UNL     1       5.474   6.675  16.213  0.00  0.00    +0.000 NA
BRANCH  16  17
ATOM     17  C   UNL     1       4.563   6.766  17.173  0.00  0.00    +0.000 C 
ATOM     18  O   UNL     1       4.081   7.803  17.619  0.00  0.00    +0.000 OA
ATOM     19  N   UNL     1       4.172   5.510  17.600  0.00  0.00    +0.000 N 
ATOM     20  C   UNL     1       3.274   5.264  18.631  0.00  0.00    +0.000 A 
ATOM     21  N   UNL     1       3.007   3.980  18.915  0.00  0.00    +0.000 NA
ATOM     22  C   UNL     1       2.139   3.787  19.929  0.00  0.00    +0.000 A 
ATOM     23 CL   UNL     1       1.798   2.133  20.254  0.00  0.00    +0.000 Cl
ATOM     24  C   UNL     1       1.541   4.770  20.671  0.00  0.00    +0.000 A 
ATOM     25  C   UNL     1       1.890   6.029  20.296  0.00  0.00    +0.000 A 
ATOM     26  N   UNL     1       2.733   6.282  19.297  0.00  0.00    +0.000 NA
ATOM     27  H   UNL     1       4.590   4.704  17.169  0.00  0.00    +0.000 HD
BRANCH  25  28
ATOM     28  O   UNL     1       1.343   7.094  20.984  0.00  0.00    +0.000 OA
ATOM     29  C   UNL     1       1.483   8.322  20.258  0.00  0.00    +0.000 C 
ENDBRANCH  25  28
ENDBRANCH  16  17
ENDBRANCH   1  16
TORSDOF 8
ENDMDL
MODEL 6
REMARK VINA RESULT:      -7.5      1.830      2.345
REMARK  Name = 
REMARK  10 active torsions:
REMARK  status: ('A' for Active; 'I' for Inactive)
REMARK    1  A    between atoms: C_1  and  C_2
REMARK    2  A    between atoms: C_2  and  O_3
REMARK    3  A    between atoms: O_3  and  C_4
REMARK    4  A    between atoms: C_4  and  C_6
REMARK    5  A    between atoms: C_9  and  O_10
REMARK    6  A    between atoms: O_10  and  S_11
REMARK    7  A    between atoms: S_11  and  N_14
REMARK    8  A    between atoms: N_14  and  C_15
REMARK    9  A    between atoms: C_23  and  O_24
REMARK   10  A    between atoms: O_24  and  C_25
REMARK                            x       y       z     vdW  Elec       q    Type
REMARK                         _______ _______ _______ _____ _____    ______ ____
ROOT
ATOM      1  S   UNL     1       1.973   3.397  20.035  0.00  0.00    +0.000 S 
ATOM      2  O   UNL     1       1.265   2.796  21.170  0.00  0.00    +0.000 OA
ATOM      3  O   UNL     1       1.092   3.771  18.929  0.00  0.00    +0.000 OA
ENDROOT
BRANCH   1   4
ATOM      4  O   UNL     1       2.573   4.811  20.639  0.00  0.00    +0.000 OA
BRANCH   4   8
ATOM      5  C   UNL     1       1.678   8.591  19.067  0.00  0.00    +0.000 A 
ATOM      6  C   UNL     1       2.311   7.651  18.255  0.00  0.00    +0.000 A 
ATOM      7  C   UNL     1       2.627   6.387  18.757  0.00  0.00    +0.000 A 
ATOM      8  C   UNL     1       2.307   6.037  20.070  0.00  0.00    +0.000 A 
ATOM      9  C   UNL     1       1.668   6.980  20.883  0.00  0.00    +0.000 A 
ATOM     10  C   UNL     1       1.354   8.257  20.391  0.00  0.00    +0.000 A 
BRANCH   5  11
ATOM     11  C   UNL     1       1.425   9.937  18.492  0.00  0.00    +0.000 C 
ATOM     12  O   UNL     1       2.021  10.437  17.546  0.00  0.00    +0.000 OA
BRANCH  11  13
ATOM     13  O   UNL     1       0.530  10.599  19.270  0.00  0.00    +0.000 OA
BRANCH  13  15
ATOM     14  C   UNL     1      -1.641  10.205  18.317  0.00  0.00    +0.000 C 
ATOM     15  C   UNL     1      -0.541  11.222  18.556  0.00  0.00    +0.000 C 
ENDBRANCH  13  15
ENDBRANCH  11  13
ENDBRANCH   5  11
ENDBRANCH   4   8
ENDBRANCH   1   4
BRANCH   1  16
ATOM     16  N   UNL     1       3.271   2.571  19.618  0.00  0.00    +0.000 NA
BRANCH  16  17
ATOM     17  C   UNL     1       3.976   3.052  18.603  0.00  0.00    +0.000 C 
ATOM     18  O   UNL     1       3.873   2.720  17.426  0.00  0.00    +0.000 OA
ATOM     19  N   UNL     1       4.845   4.039  19.032  0.00  0.00    +0.000 N 
ATOM     20  C   UNL     1       5.760   4.701  18.223  0.00  0.00    +0.000 A 
ATOM     21  N   UNL     1       6.529   5.633  18.807  0.00  0.00    +0.000 NA
ATOM     22  C   UNL     1       7.410   6.243  17.987  0.00  0.00    +0.000 A 
ATOM     23 CL   UNL     1       8.363   7.449  18.757  0.00  0.00    +0.000 Cl
ATOM     24  C   UNL     1       7.579   5.981  16.654  0.00  0.00    +0.000 A 
ATOM     25  C   UNL     1       6.750   5.016  16.176  0.00  0.00    +0.000 A 
ATOM     26  N   UNL     1       5.854   4.387  16.933  0.00  0.00    +0.000 NA
ATOM     27  H   UNL     1       4.856   4.278  20.008  0.00  0.00    +0.000 HD
BRANCH  25  28
ATOM     28  O   UNL     1       6.843   4.674  14.841  0.00  0.00    +0.000 OA
ATOM     29  C   UNL     1       5.853   3.705  14.472  0.00  0.00    +0.000 C 
ENDBRANCH  25  28
ENDBRANCH  16  17
ENDBRANCH   1  16
TORSDOF 8
ENDMDL
MODEL 7
REMARK VINA RESULT:      -7.5      1.590      2.124
REMARK  Name = 
REMARK  10 active torsions:
REMARK  status: ('A' for Active; 'I' for Inactive)
REMARK    1  A    between atoms: C_1  and  C_2
REMARK    2  A    between atoms: C_2  and  O_3
REMARK    3  A    between atoms: O_3  and  C_4
REMARK    4  A    between atoms: C_4  and  C_6
REMARK    5  A    between atoms: C_9  and  O_10
REMARK    6  A    between atoms: O_10  and  S_11
REMARK    7  A    between atoms: S_11  and  N_14
REMARK    8  A    between atoms: N_14  and  C_15
REMARK    9  A    between atoms: C_23  and  O_24
REMARK   10  A    between atoms: O_24  and  C_25
REMARK                            x       y       z     vdW  Elec       q    Type
REMARK                         _______ _______ _______ _____ _____    ______ ____
ROOT
ATOM      1  S   UNL     1       3.080   2.409  19.160  0.00  0.00    +0.000 S 
ATOM      2  O   UNL     1       2.011   2.094  20.112  0.00  0.00    +0.000 OA
ATOM      3  O   UNL     1       3.308   1.358  18.168  0.00  0.00    +0.000 OA
ENDROOT
BRANCH   1   4
ATOM      4  O   UNL     1       2.504   3.709  18.324  0.00  0.00    +0.000 OA
BRANCH   4   8
ATOM      5  C   UNL     1       1.580   7.423  20.030  0.00  0.00    +0.000 A 
ATOM      6  C   UNL     1       1.272   6.259  20.733  0.00  0.00    +0.000 A 
ATOM      7  C   UNL     1       1.564   5.008  20.183  0.00  0.00    +0.000 A 
ATOM      8  C   UNL     1       2.174   4.900  18.932  0.00  0.00    +0.000 A 
ATOM      9  C   UNL     1       2.485   6.070  18.229  0.00  0.00    +0.000 A 
ATOM     10  C   UNL     1       2.189   7.332  18.770  0.00  0.00    +0.000 A 
BRANCH   5  11
ATOM     11  C   UNL     1       1.189   8.719  20.644  0.00  0.00    +0.000 C 
ATOM     12  O   UNL     1       1.588   9.824  20.300  0.00  0.00    +0.000 OA
BRANCH  11  13
ATOM     13  O   UNL     1       0.435   8.484  21.748  0.00  0.00    +0.000 OA
BRANCH  13  15
ATOM     14  C   UNL     1      -0.637  10.063  23.209  0.00  0.00    +0.000 C 
ATOM     15  C   UNL     1       0.667   9.383  22.836  0.00  0.00    +0.000 C 
ENDBRANCH  13  15
ENDBRANCH  11  13
ENDBRANCH   5  11
ENDBRANCH   4   8
ENDBRANCH   1   4
BRANCH   1  16
ATOM     16  N   UNL     1       4.394   2.957  19.876  0.00  0.00    +0.000 NA
BRANCH  16  17
ATOM     17  C   UNL     1       5.185   3.733  19.147  0.00  0.00    +0.000 C 
ATOM     18  O   UNL     1       5.898   4.640  19.566  0.00  0.00    +0.000 OA
ATOM     19  N   UNL     1       5.146   3.362  17.815  0.00  0.00    +0.000 N 
ATOM     20  C   UNL     1       5.819   4.011  16.788  0.00  0.00    +0.000 A 
ATOM     21  N   UNL     1       5.669   3.515  15.551  0.00  0.00    +0.000 NA
ATOM     22  C   UNL     1       6.331   4.181  14.582  0.00  0.00    +0.000 A 
ATOM     23 CL   UNL     1       6.139   3.509  13.012  0.00  0.00    +0.000 Cl
ATOM     24  C   UNL     1       7.107   5.295  14.763  0.00  0.00    +0.000 A 
ATOM     25  C   UNL     1       7.181   5.708  16.056  0.00  0.00    +0.000 A 
ATOM     26  N   UNL     1       6.559   5.085  17.054  0.00  0.00    +0.000 NA
ATOM     27  H   UNL     1       4.560   2.590  17.549  0.00  0.00    +0.000 HD
BRANCH  25  28
ATOM     28  O   UNL     1       7.938   6.826  16.345  0.00  0.00    +0.000 OA
ATOM     29  C   UNL     1       7.574   7.402  17.607  0.00  0.00    +0.000 C 
ENDBRANCH  25  28
ENDBRANCH  16  17
ENDBRANCH   1  16
TORSDOF 8
ENDMDL
MODEL 8
REMARK VINA RESULT:      -7.5      1.298      1.637
REMARK  Name = 
REMARK  10 active torsions:
REMARK  status: ('A' for Active; 'I' for Inactive)
REMARK    1  A    between atoms: C_1  and  C_2
REMARK    2  A    between atoms: C_2  and  O_3
REMARK    3  A    between atoms: O_3  and  C_4
REMARK    4  A    between atoms: C_4  and  C_6
REMARK    5  A    between atoms: C_9  and  O_10
REMARK    6  A    between atoms: O_10  and  S_11
REMARK    7  A    between atoms: S_11  and  N_14
REMARK    8  A    between atoms: N_14  and  C_15
REMARK    9  A    between atoms: C_23  and  O_24
REMARK   10  A    between atoms: O_24  and  C_25
REMARK                            x       y       z     vdW  Elec       q    Type
REMARK                         _______ _______ _______ _____ _____    ______ ____
ROOT
ATOM      1  S   UNL     1       1.623   3.372  20.752  0.00  0.00    +0.000 S 
ATOM      2  O   UNL     1       1.341   2.925  22.120  0.00  0.00    +0.000 OA
ATOM      3  O   UNL     1       0.436   3.831  20.031  0.00  0.00    +0.000 OA
ENDROOT
BRANCH   1   4
ATOM      4  O   UNL     1       2.578   4.702  20.953  0.00  0.00    +0.000 OA
BRANCH   4   8
ATOM      5  C   UNL     1       1.795   8.368  19.080  0.00  0.00    +0.000 A 
ATOM      6  C   UNL     1       1.291   8.139  20.359  0.00  0.00    +0.000 A 
ATOM      7  C   UNL     1       1.532   6.923  21.003  0.00  0.00    +0.000 A 
ATOM      8  C   UNL     1       2.286   5.923  20.386  0.00  0.00    +0.000 A 
ATOM      9  C   UNL     1       2.795   6.156  19.103  0.00  0.00    +0.000 A 
ATOM     10  C   UNL     1       2.551   7.371  18.445  0.00  0.00    +0.000 A 
BRANCH   5  11
ATOM     11  C   UNL     1       1.452   9.658  18.427  0.00  0.00    +0.000 C 
ATOM     12  O   UNL     1       2.030  10.153  17.468  0.00  0.00    +0.000 OA
BRANCH  11  13
ATOM     13  O   UNL     1       0.488  10.285  19.149  0.00  0.00    +0.000 OA
BRANCH  13  15
ATOM     14  C   UNL     1      -0.298  12.495  18.623  0.00  0.00    +0.000 C 
ATOM     15  C   UNL     1       0.726  11.675  19.387  0.00  0.00    +0.000 C 
ENDBRANCH  13  15
ENDBRANCH  11  13
ENDBRANCH   5  11
ENDBRANCH   4   8
ENDBRANCH   1   4
BRANCH   1  16
ATOM     16  N   UNL     1       2.546   2.348  19.953  0.00  0.00    +0.000 NA
BRANCH  16  17
ATOM     17  C   UNL     1       3.749   2.783  19.606  0.00  0.00    +0.000 C 
ATOM     18  O   UNL     1       4.728   2.872  20.342  0.00  0.00    +0.000 OA
ATOM     19  N   UNL     1       3.791   3.096  18.259  0.00  0.00    +0.000 N 
ATOM     20  C   UNL     1       4.891   3.630  17.600  0.00  0.00    +0.000 A 
ATOM     21  N   UNL     1       4.755   3.874  16.287  0.00  0.00    +0.000 NA
ATOM     22  C   UNL     1       5.843   4.401  15.688  0.00  0.00    +0.000 A 
ATOM     23 CL   UNL     1       5.649   4.681  14.004  0.00  0.00    +0.000 Cl
ATOM     24  C   UNL     1       7.028   4.706  16.304  0.00  0.00    +0.000 A 
ATOM     25  C   UNL     1       7.046   4.420  17.632  0.00  0.00    +0.000 A 
ATOM     26  N   UNL     1       6.008   3.890  18.274  0.00  0.00    +0.000 NA
ATOM     27  H   UNL     1       2.957   2.971  17.712  0.00  0.00    +0.000 HD
BRANCH  25  28
ATOM     28  O   UNL     1       8.196   4.693  18.346  0.00  0.00    +0.000 OA
ATOM     29  C   UNL     1       7.986   5.731  19.313  0.00  0.00    +0.000 C 
ENDBRANCH  25  28
ENDBRANCH  16  17
ENDBRANCH   1  16
TORSDOF 8
ENDMDL
MODEL 9
REMARK VINA RESULT:      -7.3      3.676      7.505
REMARK  Name = 
REMARK  10 active torsions:
REMARK  status: ('A' for Active; 'I' for Inactive)
REMARK    1  A    between atoms: C_1  and  C_2
REMARK    2  A    between atoms: C_2  and  O_3
REMARK    3  A    between atoms: O_3  and  C_4
REMARK    4  A    between atoms: C_4  and  C_6
REMARK    5  A    between atoms: C_9  and  O_10
REMARK    6  A    between atoms: O_10  and  S_11
REMARK    7  A    between atoms: S_11  and  N_14
REMARK    8  A    between atoms: N_14  and  C_15
REMARK    9  A    between atoms: C_23  and  O_24
REMARK   10  A    between atoms: O_24  and  C_25
REMARK                            x       y       z     vdW  Elec       q    Type
REMARK                         _______ _______ _______ _____ _____    ______ ____
ROOT
ATOM      1  S   UNL     1       1.906   3.961  20.852  0.00  0.00    +0.000 S 
ATOM      2  O   UNL     1       0.595   4.258  20.267  0.00  0.00    +0.000 OA
ATOM      3  O   UNL     1       1.830   3.203  22.101  0.00  0.00    +0.000 OA
ENDROOT
BRANCH   1   4
ATOM      4  O   UNL     1       2.619   2.958  19.752  0.00  0.00    +0.000 OA
BRANCH   4   8
ATOM      5  C   UNL     1       5.351   4.265  16.856  0.00  0.00    +0.000 A 
ATOM      6  C   UNL     1       5.780   4.116  18.175  0.00  0.00    +0.000 A 
ATOM      7  C   UNL     1       4.887   3.688  19.160  0.00  0.00    +0.000 A 
ATOM      8  C   UNL     1       3.560   3.394  18.845  0.00  0.00    +0.000 A 
ATOM      9  C   UNL     1       3.131   3.541  17.521  0.00  0.00    +0.000 A 
ATOM     10  C   UNL     1       4.019   3.978  16.525  0.00  0.00    +0.000 A 
BRANCH   5  11
ATOM     11  C   UNL     1       6.334   4.781  15.869  0.00  0.00    +0.000 C 
ATOM     12  O   UNL     1       7.453   5.206  16.125  0.00  0.00    +0.000 OA
BRANCH  11  13
ATOM     13  O   UNL     1       5.748   4.854  14.646  0.00  0.00    +0.000 OA
BRANCH  13  15
ATOM     14  C   UNL     1       7.158   4.546  12.724  0.00  0.00    +0.000 C 
ATOM     15  C   UNL     1       6.206   3.882  13.702  0.00  0.00    +0.000 C 
ENDBRANCH  13  15
ENDBRANCH  11  13
ENDBRANCH   5  11
ENDBRANCH   4   8
ENDBRANCH   1   4
BRANCH   1  16
ATOM     16  N   UNL     1       2.861   5.236  20.892  0.00  0.00    +0.000 NA
BRANCH  16  17
ATOM     17  C   UNL     1       2.372   6.357  20.380  0.00  0.00    +0.000 C 
ATOM     18  O   UNL     1       2.516   6.750  19.226  0.00  0.00    +0.000 OA
ATOM     19  N   UNL     1       1.616   7.037  21.318  0.00  0.00    +0.000 N 
ATOM     20  C   UNL     1       1.014   8.272  21.110  0.00  0.00    +0.000 A 
ATOM     21  N   UNL     1       0.315   8.789  22.132  0.00  0.00    +0.000 NA
ATOM     22  C   UNL     1      -0.243   9.993  21.892  0.00  0.00    +0.000 A 
ATOM     23 CL   UNL     1      -1.152  10.620  23.209  0.00  0.00    +0.000 Cl
ATOM     24  C   UNL     1      -0.142  10.706  20.727  0.00  0.00    +0.000 A 
ATOM     25  C   UNL     1       0.593  10.085  19.767  0.00  0.00    +0.000 A 
ATOM     26  N   UNL     1       1.159   8.894  19.942  0.00  0.00    +0.000 NA
ATOM     27  H   UNL     1       1.518   6.640  22.235  0.00  0.00    +0.000 HD
BRANCH  25  28
ATOM     28  O   UNL     1       0.758  10.723  18.553  0.00  0.00    +0.000 OA
ATOM     29  C   UNL     1       1.898  10.221  17.842  0.00  0.00    +0.000 C 
ENDBRANCH  25  28
ENDBRANCH  16  17
ENDBRANCH   1  16
TORSDOF 8
ENDMDL
