MODEL 1
REMARK VINA RESULT:      -6.9      0.000      0.000
REMARK  Name = 
REMARK  11 active torsions:
REMARK  status: ('A' for Active; 'I' for Inactive)
REMARK    1  A    between atoms: C_1  and  O_2
REMARK    2  A    between atoms: O_2  and  C_3
REMARK    3  A    between atoms: C_6  and  N_7
REMARK    4  A    between atoms: N_7  and  C_8
REMARK    5  A    between atoms: C_9  and  C_11
REMARK    6  A    between atoms: C_16  and  O_17
REMARK    7  A    between atoms: O_17  and  C_18
REMARK    8  A    between atoms: C_19  and  C_20
REMARK    9  A    between atoms: C_23  and  O_24
REMARK   10  A    between atoms: C_25  and  C_26
REMARK   11  A    between atoms: C_25  and  C_27
REMARK                            x       y       z     vdW  Elec       q    Type
REMARK                         _______ _______ _______ _____ _____    ______ ____
ROOT
ATOM      1  C   UNL     1       0.788  10.517  18.901  0.00  0.00    +0.000 A 
ATOM      2  C   UNL     1      -0.490  10.570  19.509  0.00  0.00    +0.000 A 
ATOM      3  C   UNL     1      -0.898  11.703  20.227  0.00  0.00    +0.000 A 
ATOM      4  C   UNL     1       0.101  12.582  20.677  0.00  0.00    +0.000 A 
ATOM      5  C   UNL     1       1.305  12.605  19.969  0.00  0.00    +0.000 A 
ATOM      6  C   UNL     1       1.578  11.672  18.977  0.00  0.00    +0.000 A 
ATOM      7  C   UNL     1      -0.340  13.738  21.580  0.00  0.00    +0.000 C 
ATOM      8  C   UNL     1      -1.026  13.131  22.860  0.00  0.00    +0.000 C 
ATOM      9  C   UNL     1       0.805  14.572  22.188  0.00  0.00    +0.000 C 
ATOM     10  C   UNL     1       1.312  15.730  21.359  0.00  0.00    +0.000 C 
ATOM     11  C   UNL     1       0.176  16.627  20.886  0.00  0.00    +0.000 C 
ATOM     12  C   UNL     1      -0.930  15.918  20.059  0.00  0.00    +0.000 C 
ATOM     13  C   UNL     1      -0.353  15.789  18.591  0.00  0.00    +0.000 C 
ATOM     14  C   UNL     1      -2.148  16.843  19.935  0.00  0.00    +0.000 C 
ATOM     15  C   UNL     1      -1.283  14.450  20.549  0.00  0.00    +0.000 C 
ATOM     16  C   UNL     1      -2.643  13.703  20.537  0.00  0.00    +0.000 C 
ATOM     17  C   UNL     1      -2.384  12.119  20.350  0.00  0.00    +0.000 C 
ENDROOT
BRANCH   1  20
ATOM     18  N   UNL     1       1.887   8.196  19.123  0.00  0.00    +0.000 N 
ATOM     19  C   UNL     1       1.717   8.207  20.569  0.00  0.00    +0.000 C 
ATOM     20  C   UNL     1       1.453   9.291  18.340  0.00  0.00    +0.000 C 
ATOM     21  O   UNL     1       1.588   9.315  17.102  0.00  0.00    +0.000 OA
BRANCH  18  25
ATOM     22  C   UNL     1       3.865   4.781  17.364  0.00  0.00    +0.000 A 
ATOM     23  C   UNL     1       4.379   6.056  17.184  0.00  0.00    +0.000 A 
ATOM     24  C   UNL     1       3.750   7.169  17.769  0.00  0.00    +0.000 A 
ATOM     25  C   UNL     1       2.563   7.057  18.517  0.00  0.00    +0.000 A 
ATOM     26  C   UNL     1       2.062   5.753  18.657  0.00  0.00    +0.000 A 
ATOM     27  C   UNL     1       2.690   4.636  18.100  0.00  0.00    +0.000 A 
BRANCH  22  29
ATOM     28  C   UNL     1       5.811   4.141  16.202  0.00  0.00    +0.000 C 
ATOM     29  O   UNL     1       4.551   3.771  16.756  0.00  0.00    +0.000 OA
ENDBRANCH  22  29
ENDBRANCH  18  25
ENDBRANCH   1  20
BRANCH   6  30
ATOM     30  O   UNL     1       2.655  12.010  18.195  0.00  0.00    +0.000 OA
ATOM     31  C   UNL     1       2.983  13.402  18.148  0.00  0.00    +0.000 C 
ENDBRANCH   6  30
BRANCH  11  32
ATOM     32  O   UNL     1      -0.357  17.305  22.029  0.00  0.00    +0.000 OA
ATOM     33  H   UNL     1      -0.467  18.243  21.797  0.00  0.00    +0.000 HD
ENDBRANCH  11  32
TORSDOF 5
ENDMDL
MODEL 2
REMARK VINA RESULT:      -6.9      2.544      3.685
REMARK  Name = 
REMARK  11 active torsions:
REMARK  status: ('A' for Active; 'I' for Inactive)
REMARK    1  A    between atoms: C_1  and  O_2
REMARK    2  A    between atoms: O_2  and  C_3
REMARK    3  A    between atoms: C_6  and  N_7
REMARK    4  A    between atoms: N_7  and  C_8
REMARK    5  A    between atoms: C_9  and  C_11
REMARK    6  A    between atoms: C_16  and  O_17
REMARK    7  A    between atoms: O_17  and  C_18
REMARK    8  A    between atoms: C_19  and  C_20
REMARK    9  A    between atoms: C_23  and  O_24
REMARK   10  A    between atoms: C_25  and  C_26
REMARK   11  A    between atoms: C_25  and  C_27
REMARK                            x       y       z     vdW  Elec       q    Type
REMARK                         _______ _______ _______ _____ _____    ______ ____
ROOT
ATOM      1  C   UNL     1      -0.677  12.009  21.724  0.00  0.00    +0.000 A 
ATOM      2  C   UNL     1      -1.735  11.794  22.639  0.00  0.00    +0.000 A 
ATOM      3  C   UNL     1      -2.370  12.874  23.270  0.00  0.00    +0.000 A 
ATOM      4  C   UNL     1      -1.687  14.101  23.303  0.00  0.00    +0.000 A 
ATOM      5  C   UNL     1      -0.743  14.339  22.301  0.00  0.00    +0.000 A 
ATOM      6  C   UNL     1      -0.359  13.338  21.417  0.00  0.00    +0.000 A 
ATOM      7  C   UNL     1      -2.321  15.233  24.116  0.00  0.00    +0.000 C 
ATOM      8  C   UNL     1      -2.467  14.750  25.607  0.00  0.00    +0.000 C 
ATOM      9  C   UNL     1      -1.457  16.500  24.266  0.00  0.00    +0.000 C 
ATOM     10  C   UNL     1      -1.581  17.538  23.174  0.00  0.00    +0.000 C 
ATOM     11  C   UNL     1      -3.036  17.899  22.901  0.00  0.00    +0.000 C 
ATOM     12  C   UNL     1      -3.955  16.709  22.513  0.00  0.00    +0.000 C 
ATOM     13  C   UNL     1      -3.680  16.437  20.978  0.00  0.00    +0.000 C 
ATOM     14  C   UNL     1      -5.422  17.151  22.590  0.00  0.00    +0.000 C 
ATOM     15  C   UNL     1      -3.647  15.357  23.286  0.00  0.00    +0.000 C 
ATOM     16  C   UNL     1      -4.617  14.239  23.748  0.00  0.00    +0.000 C 
ATOM     17  C   UNL     1      -3.848  12.818  23.728  0.00  0.00    +0.000 C 
ENDROOT
BRANCH   1  20
ATOM     18  N   UNL     1       0.054  10.265  19.972  0.00  0.00    +0.000 N 
ATOM     19  C   UNL     1      -1.122  10.530  19.155  0.00  0.00    +0.000 C 
ATOM     20  C   UNL     1       0.257  10.960  21.187  0.00  0.00    +0.000 C 
ATOM     21  O   UNL     1       1.249  10.753  21.911  0.00  0.00    +0.000 OA
BRANCH  18  25
ATOM     22  C   UNL     1       2.785   7.206  18.612  0.00  0.00    +0.000 A 
ATOM     23  C   UNL     1       2.263   7.156  19.895  0.00  0.00    +0.000 A 
ATOM     24  C   UNL     1       1.359   8.138  20.337  0.00  0.00    +0.000 A 
ATOM     25  C   UNL     1       0.978   9.229  19.533  0.00  0.00    +0.000 A 
ATOM     26  C   UNL     1       1.547   9.256  18.249  0.00  0.00    +0.000 A 
ATOM     27  C   UNL     1       2.428   8.273  17.790  0.00  0.00    +0.000 A 
BRANCH  22  29
ATOM     28  C   UNL     1       3.899   5.253  19.315  0.00  0.00    +0.000 C 
ATOM     29  O   UNL     1       3.651   6.204  18.282  0.00  0.00    +0.000 OA
ENDBRANCH  22  29
ENDBRANCH  18  25
ENDBRANCH   1  20
BRANCH   6  30
ATOM     30  O   UNL     1       0.340  13.810  20.334  0.00  0.00    +0.000 OA
ATOM     31  C   UNL     1      -0.443  14.175  19.192  0.00  0.00    +0.000 C 
ENDBRANCH   6  30
BRANCH  11  32
ATOM     32  O   UNL     1      -3.533  18.617  24.035  0.00  0.00    +0.000 OA
ATOM     33  H   UNL     1      -4.491  18.455  24.097  0.00  0.00    +0.000 HD
ENDBRANCH  11  32
TORSDOF 5
ENDMDL
MODEL 3
REMARK VINA RESULT:      -6.8      1.971      3.020
REMARK  Name = 
REMARK  11 active torsions:
REMARK  status: ('A' for Active; 'I' for Inactive)
REMARK    1  A    between atoms: C_1  and  O_2
REMARK    2  A    between atoms: O_2  and  C_3
REMARK    3  A    between atoms: C_6  and  N_7
REMARK    4  A    between atoms: N_7  and  C_8
REMARK    5  A    between atoms: C_9  and  C_11
REMARK    6  A    between atoms: C_16  and  O_17
REMARK    7  A    between atoms: O_17  and  C_18
REMARK    8  A    between atoms: C_19  and  C_20
REMARK    9  A    between atoms: C_23  and  O_24
REMARK   10  A    between atoms: C_25  and  C_26
REMARK   11  A    between atoms: C_25  and  C_27
REMARK                            x       y       z     vdW  Elec       q    Type
REMARK                         _______ _______ _______ _____ _____    ______ ____
ROOT
ATOM      1  C   UNL     1       0.802   9.541  20.026  0.00  0.00    +0.000 A 
ATOM      2  C   UNL     1       0.222  10.290  18.974  0.00  0.00    +0.000 A 
ATOM      3  C   UNL     1      -0.556  11.425  19.244  0.00  0.00    +0.000 A 
ATOM      4  C   UNL     1      -1.084  11.559  20.539  0.00  0.00    +0.000 A 
ATOM      5  C   UNL     1      -0.406  10.918  21.579  0.00  0.00    +0.000 A 
ATOM      6  C   UNL     1       0.636  10.035  21.326  0.00  0.00    +0.000 A 
ATOM      7  C   UNL     1      -2.046  12.724  20.784  0.00  0.00    +0.000 C 
ATOM      8  C   UNL     1      -3.270  12.568  19.807  0.00  0.00    +0.000 C 
ATOM      9  C   UNL     1      -2.731  12.732  22.165  0.00  0.00    +0.000 C 
ATOM     10  C   UNL     1      -1.989  13.424  23.285  0.00  0.00    +0.000 C 
ATOM     11  C   UNL     1      -1.547  14.827  22.887  0.00  0.00    +0.000 C 
ATOM     12  C   UNL     1      -0.652  14.908  21.622  0.00  0.00    +0.000 C 
ATOM     13  C   UNL     1       0.807  14.529  22.103  0.00  0.00    +0.000 C 
ATOM     14  C   UNL     1      -0.558  16.366  21.155  0.00  0.00    +0.000 C 
ATOM     15  C   UNL     1      -1.041  13.886  20.471  0.00  0.00    +0.000 C 
ATOM     16  C   UNL     1      -0.952  14.049  18.931  0.00  0.00    +0.000 C 
ATOM     17  C   UNL     1      -0.671  12.609  18.253  0.00  0.00    +0.000 C 
ENDROOT
BRANCH   1  20
ATOM     18  N   UNL     1       2.240   7.771  18.825  0.00  0.00    +0.000 N 
ATOM     19  C   UNL     1       2.521   8.684  17.725  0.00  0.00    +0.000 C 
ATOM     20  C   UNL     1       1.423   8.178  19.905  0.00  0.00    +0.000 C 
ATOM     21  O   UNL     1       1.160   7.420  20.858  0.00  0.00    +0.000 OA
BRANCH  18  25
ATOM     22  C   UNL     1       3.881   3.779  18.617  0.00  0.00    +0.000 A 
ATOM     23  C   UNL     1       2.652   4.060  18.043  0.00  0.00    +0.000 A 
ATOM     24  C   UNL     1       2.121   5.361  18.090  0.00  0.00    +0.000 A 
ATOM     25  C   UNL     1       2.775   6.418  18.751  0.00  0.00    +0.000 A 
ATOM     26  C   UNL     1       4.006   6.088  19.340  0.00  0.00    +0.000 A 
ATOM     27  C   UNL     1       4.555   4.805  19.279  0.00  0.00    +0.000 A 
BRANCH  22  29
ATOM     28  C   UNL     1       3.269   1.511  18.456  0.00  0.00    +0.000 C 
ATOM     29  O   UNL     1       4.306   2.487  18.513  0.00  0.00    +0.000 OA
ENDBRANCH  22  29
ENDBRANCH  18  25
ENDBRANCH   1  20
BRANCH   6  30
ATOM     30  O   UNL     1       1.370   9.728  22.445  0.00  0.00    +0.000 OA
ATOM     31  C   UNL     1       0.620   9.359  23.607  0.00  0.00    +0.000 C 
ENDBRANCH   6  30
BRANCH  11  32
ATOM     32  O   UNL     1      -2.717  15.643  22.773  0.00  0.00    +0.000 OA
ATOM     33  H   UNL     1      -2.431  16.554  22.586  0.00  0.00    +0.000 HD
ENDBRANCH  11  32
TORSDOF 5
ENDMDL
MODEL 4
REMARK VINA RESULT:      -6.8      1.095      1.220
REMARK  Name = 
REMARK  11 active torsions:
REMARK  status: ('A' for Active; 'I' for Inactive)
REMARK    1  A    between atoms: C_1  and  O_2
REMARK    2  A    between atoms: O_2  and  C_3
REMARK    3  A    between atoms: C_6  and  N_7
REMARK    4  A    between atoms: N_7  and  C_8
REMARK    5  A    between atoms: C_9  and  C_11
REMARK    6  A    between atoms: C_16  and  O_17
REMARK    7  A    between atoms: O_17  and  C_18
REMARK    8  A    between atoms: C_19  and  C_20
REMARK    9  A    between atoms: C_23  and  O_24
REMARK   10  A    between atoms: C_25  and  C_26
REMARK   11  A    between atoms: C_25  and  C_27
REMARK                            x       y       z     vdW  Elec       q    Type
REMARK                         _______ _______ _______ _____ _____    ______ ____
ROOT
ATOM      1  C   UNL     1       0.417  10.789  19.616  0.00  0.00    +0.000 A 
ATOM      2  C   UNL     1      -0.843  11.005  20.226  0.00  0.00    +0.000 A 
ATOM      3  C   UNL     1      -1.169  12.251  20.780  0.00  0.00    +0.000 A 
ATOM      4  C   UNL     1      -0.111  13.121  21.089  0.00  0.00    +0.000 A 
ATOM      5  C   UNL     1       1.078  12.971  20.370  0.00  0.00    +0.000 A 
ATOM      6  C   UNL     1       1.275  11.891  19.518  0.00  0.00    +0.000 A 
ATOM      7  C   UNL     1      -0.463  14.417  21.824  0.00  0.00    +0.000 C 
ATOM      8  C   UNL     1      -1.158  14.041  23.186  0.00  0.00    +0.000 C 
ATOM      9  C   UNL     1       0.741  15.257  22.293  0.00  0.00    +0.000 C 
ATOM     10  C   UNL     1       1.299  16.254  21.303  0.00  0.00    +0.000 C 
ATOM     11  C   UNL     1       0.207  17.143  20.721  0.00  0.00    +0.000 C 
ATOM     12  C   UNL     1      -0.955  16.394  20.016  0.00  0.00    +0.000 C 
ATOM     13  C   UNL     1      -0.417  16.024  18.575  0.00  0.00    +0.000 C 
ATOM     14  C   UNL     1      -2.118  17.365  19.776  0.00  0.00    +0.000 C 
ATOM     15  C   UNL     1      -1.384  15.034  20.714  0.00  0.00    +0.000 C 
ATOM     16  C   UNL     1      -2.785  14.378  20.825  0.00  0.00    +0.000 C 
ATOM     17  C   UNL     1      -2.625  12.770  20.861  0.00  0.00    +0.000 C 
ENDROOT
BRANCH   1  20
ATOM     18  N   UNL     1       1.477   8.501  20.151  0.00  0.00    +0.000 N 
ATOM     19  C   UNL     1       1.448   8.774  21.582  0.00  0.00    +0.000 C 
ATOM     20  C   UNL     1       0.996   9.457  19.227  0.00  0.00    +0.000 C 
ATOM     21  O   UNL     1       1.012   9.256  17.998  0.00  0.00    +0.000 OA
BRANCH  18  25
ATOM     22  C   UNL     1       3.215   4.758  18.872  0.00  0.00    +0.000 A 
ATOM     23  C   UNL     1       3.450   5.919  18.152  0.00  0.00    +0.000 A 
ATOM     24  C   UNL     1       2.902   7.144  18.574  0.00  0.00    +0.000 A 
ATOM     25  C   UNL     1       2.066   7.247  19.701  0.00  0.00    +0.000 A 
ATOM     26  C   UNL     1       1.834   6.045  20.390  0.00  0.00    +0.000 A 
ATOM     27  C   UNL     1       2.392   4.826  19.994  0.00  0.00    +0.000 A 
BRANCH  22  29
ATOM     28  C   UNL     1       3.931   2.558  19.314  0.00  0.00    +0.000 C 
ATOM     29  O   UNL     1       3.794   3.625  18.379  0.00  0.00    +0.000 OA
ENDBRANCH  22  29
ENDBRANCH  18  25
ENDBRANCH   1  20
BRANCH   6  30
ATOM     30  O   UNL     1       2.353  12.049  18.683  0.00  0.00    +0.000 OA
ATOM     31  C   UNL     1       2.601  13.382  18.223  0.00  0.00    +0.000 C 
ENDBRANCH   6  30
BRANCH  11  32
ATOM     32  O   UNL     1      -0.261  18.007  21.762  0.00  0.00    +0.000 OA
ATOM     33  H   UNL     1      -1.197  18.204  21.590  0.00  0.00    +0.000 HD
ENDBRANCH  11  32
TORSDOF 5
ENDMDL
MODEL 5
REMARK VINA RESULT:      -6.7      2.198      3.134
REMARK  Name = 
REMARK  11 active torsions:
REMARK  status: ('A' for Active; 'I' for Inactive)
REMARK    1  A    between atoms: C_1  and  O_2
REMARK    2  A    between atoms: O_2  and  C_3
REMARK    3  A    between atoms: C_6  and  N_7
REMARK    4  A    between atoms: N_7  and  C_8
REMARK    5  A    between atoms: C_9  and  C_11
REMARK    6  A    between atoms: C_16  and  O_17
REMARK    7  A    between atoms: O_17  and  C_18
REMARK    8  A    between atoms: C_19  and  C_20
REMARK    9  A    between atoms: C_23  and  O_24
REMARK   10  A    between atoms: C_25  and  C_26
REMARK   11  A    between atoms: C_25  and  C_27
REMARK                            x       y       z     vdW  Elec       q    Type
REMARK                         _______ _______ _______ _____ _____    ______ ____
ROOT
ATOM      1  C   UNL     1      -0.216  11.642  21.731  0.00  0.00    +0.000 A 
ATOM      2  C   UNL     1      -1.342  11.590  22.588  0.00  0.00    +0.000 A 
ATOM      3  C   UNL     1      -1.887  12.764  23.130  0.00  0.00    +0.000 A 
ATOM      4  C   UNL     1      -1.074  13.909  23.150  0.00  0.00    +0.000 A 
ATOM      5  C   UNL     1      -0.054  13.992  22.199  0.00  0.00    +0.000 A 
ATOM      6  C   UNL     1       0.265  12.911  21.386  0.00  0.00    +0.000 A 
ATOM      7  C   UNL     1      -1.624  15.143  23.870  0.00  0.00    +0.000 C 
ATOM      8  C   UNL     1      -1.906  14.756  25.370  0.00  0.00    +0.000 C 
ATOM      9  C   UNL     1      -0.633  16.315  24.017  0.00  0.00    +0.000 C 
ATOM     10  C   UNL     1      -0.579  17.303  22.874  0.00  0.00    +0.000 C 
ATOM     11  C   UNL     1      -1.966  17.806  22.496  0.00  0.00    +0.000 C 
ATOM     12  C   UNL     1      -2.989  16.704  22.105  0.00  0.00    +0.000 C 
ATOM     13  C   UNL     1      -2.660  16.326  20.604  0.00  0.00    +0.000 C 
ATOM     14  C   UNL     1      -4.400  17.306  22.071  0.00  0.00    +0.000 C 
ATOM     15  C   UNL     1      -2.878  15.368  22.955  0.00  0.00    +0.000 C 
ATOM     16  C   UNL     1      -3.991  14.388  23.406  0.00  0.00    +0.000 C 
ATOM     17  C   UNL     1      -3.386  12.892  23.497  0.00  0.00    +0.000 C 
ENDROOT
BRANCH   1  20
ATOM     18  N   UNL     1       0.488   9.813  20.057  0.00  0.00    +0.000 N 
ATOM     19  C   UNL     1      -0.520  10.243  19.098  0.00  0.00    +0.000 C 
ATOM     20  C   UNL     1       0.624  10.471  21.301  0.00  0.00    +0.000 C 
ATOM     21  O   UNL     1       1.472  10.125  22.144  0.00  0.00    +0.000 OA
BRANCH  18  25
ATOM     22  C   UNL     1       2.915   6.396  19.006  0.00  0.00    +0.000 A 
ATOM     23  C   UNL     1       2.272   6.446  20.233  0.00  0.00    +0.000 A 
ATOM     24  C   UNL     1       1.465   7.546  20.573  0.00  0.00    +0.000 A 
ATOM     25  C   UNL     1       1.307   8.656  19.722  0.00  0.00    +0.000 A 
ATOM     26  C   UNL     1       1.994   8.579  18.500  0.00  0.00    +0.000 A 
ATOM     27  C   UNL     1       2.779   7.480  18.140  0.00  0.00    +0.000 A 
BRANCH  22  29
ATOM     28  C   UNL     1       4.998   5.334  19.293  0.00  0.00    +0.000 C 
ATOM     29  O   UNL     1       3.671   5.285  18.774  0.00  0.00    +0.000 OA
ENDBRANCH  22  29
ENDBRANCH  18  25
ENDBRANCH   1  20
BRANCH   6  30
ATOM     30  O   UNL     1       1.072  13.248  20.328  0.00  0.00    +0.000 OA
ATOM     31  C   UNL     1       2.362  13.769  20.665  0.00  0.00    +0.000 C 
ENDBRANCH   6  30
BRANCH  11  32
ATOM     32  O   UNL     1      -2.444  18.631  23.563  0.00  0.00    +0.000 OA
ATOM     33  H   UNL     1      -3.145  19.204  23.209  0.00  0.00    +0.000 HD
ENDBRANCH  11  32
TORSDOF 5
ENDMDL
MODEL 6
REMARK VINA RESULT:      -6.7      1.010      1.137
REMARK  Name = 
REMARK  11 active torsions:
REMARK  status: ('A' for Active; 'I' for Inactive)
REMARK    1  A    between atoms: C_1  and  O_2
REMARK    2  A    between atoms: O_2  and  C_3
REMARK    3  A    between atoms: C_6  and  N_7
REMARK    4  A    between atoms: N_7  and  C_8
REMARK    5  A    between atoms: C_9  and  C_11
REMARK    6  A    between atoms: C_16  and  O_17
REMARK    7  A    between atoms: O_17  and  C_18
REMARK    8  A    between atoms: C_19  and  C_20
REMARK    9  A    between atoms: C_23  and  O_24
REMARK   10  A    between atoms: C_25  and  C_26
REMARK   11  A    between atoms: C_25  and  C_27
REMARK                            x       y       z     vdW  Elec       q    Type
REMARK                         _______ _______ _______ _____ _____    ______ ____
ROOT
ATOM      1  C   UNL     1       0.302  10.707  19.184  0.00  0.00    +0.000 A 
ATOM      2  C   UNL     1      -1.105  10.688  19.344  0.00  0.00    +0.000 A 
ATOM      3  C   UNL     1      -1.754  11.665  20.112  0.00  0.00    +0.000 A 
ATOM      4  C   UNL     1      -0.979  12.389  21.034  0.00  0.00    +0.000 A 
ATOM      5  C   UNL     1       0.388  12.506  20.773  0.00  0.00    +0.000 A 
ATOM      6  C   UNL     1       0.993  11.786  19.749  0.00  0.00    +0.000 A 
ATOM      7  C   UNL     1      -1.720  13.351  21.966  0.00  0.00    +0.000 C 
ATOM      8  C   UNL     1      -2.767  12.523  22.801  0.00  0.00    +0.000 C 
ATOM      9  C   UNL     1      -0.857  13.992  23.071  0.00  0.00    +0.000 C 
ATOM     10  C   UNL     1      -0.140  15.274  22.711  0.00  0.00    +0.000 C 
ATOM     11  C   UNL     1      -1.086  16.296  22.096  0.00  0.00    +0.000 C 
ATOM     12  C   UNL     1      -1.845  15.821  20.827  0.00  0.00    +0.000 C 
ATOM     13  C   UNL     1      -0.819  15.973  19.631  0.00  0.00    +0.000 C 
ATOM     14  C   UNL     1      -2.981  16.803  20.513  0.00  0.00    +0.000 C 
ATOM     15  C   UNL     1      -2.298  14.300  20.859  0.00  0.00    +0.000 C 
ATOM     16  C   UNL     1      -3.559  13.630  20.255  0.00  0.00    +0.000 C 
ATOM     17  C   UNL     1      -3.211  12.109  19.834  0.00  0.00    +0.000 C 
ENDROOT
BRANCH   1  20
ATOM     18  N   UNL     1       1.617   8.499  19.382  0.00  0.00    +0.000 N 
ATOM     19  C   UNL     1       1.309   8.393  20.802  0.00  0.00    +0.000 C 
ATOM     20  C   UNL     1       1.145   9.596  18.624  0.00  0.00    +0.000 C 
ATOM     21  O   UNL     1       1.395   9.718  17.410  0.00  0.00    +0.000 OA
BRANCH  18  25
ATOM     22  C   UNL     1       4.127   5.435  17.654  0.00  0.00    +0.000 A 
ATOM     23  C   UNL     1       4.251   6.754  17.245  0.00  0.00    +0.000 A 
ATOM     24  C   UNL     1       3.450   7.758  17.817  0.00  0.00    +0.000 A 
ATOM     25  C   UNL     1       2.467   7.479  18.784  0.00  0.00    +0.000 A 
ATOM     26  C   UNL     1       2.355   6.129  19.155  0.00  0.00    +0.000 A 
ATOM     27  C   UNL     1       3.162   5.125  18.611  0.00  0.00    +0.000 A 
BRANCH  22  29
ATOM     28  C   UNL     1       6.206   5.067  16.611  0.00  0.00    +0.000 C 
ATOM     29  O   UNL     1       4.952   4.541  17.038  0.00  0.00    +0.000 OA
ENDBRANCH  22  29
ENDBRANCH  18  25
ENDBRANCH   1  20
BRANCH   6  30
ATOM     30  O   UNL     1       2.255  12.232  19.445  0.00  0.00    +0.000 OA
ATOM     31  C   UNL     1       2.364  13.065  18.286  0.00  0.00    +0.000 C 
ENDBRANCH   6  30
BRANCH  11  32
ATOM     32  O   UNL     1      -1.978  16.746  23.120  0.00  0.00    +0.000 OA
ATOM     33  H   UNL     1      -2.756  16.162  23.120  0.00  0.00    +0.000 HD
ENDBRANCH  11  32
TORSDOF 5
ENDMDL
MODEL 7
REMARK VINA RESULT:      -6.7      2.758      4.434
REMARK  Name = 
REMARK  11 active torsions:
REMARK  status: ('A' for Active; 'I' for Inactive)
REMARK    1  A    between atoms: C_1  and  O_2
REMARK    2  A    between atoms: O_2  and  C_3
REMARK    3  A    between atoms: C_6  and  N_7
REMARK    4  A    between atoms: N_7  and  C_8
REMARK    5  A    between atoms: C_9  and  C_11
REMARK    6  A    between atoms: C_16  and  O_17
REMARK    7  A    between atoms: O_17  and  C_18
REMARK    8  A    between atoms: C_19  and  C_20
REMARK    9  A    between atoms: C_23  and  O_24
REMARK   10  A    between atoms: C_25  and  C_26
REMARK   11  A    between atoms: C_25  and  C_27
REMARK                            x       y       z     vdW  Elec       q    Type
REMARK                         _______ _______ _______ _____ _____    ______ ____
ROOT
ATOM      1  C   UNL     1      -0.221  12.805  20.981  0.00  0.00    +0.000 A 
ATOM      2  C   UNL     1      -0.524  13.972  20.238  0.00  0.00    +0.000 A 
ATOM      3  C   UNL     1      -1.530  14.852  20.660  0.00  0.00    +0.000 A 
ATOM      4  C   UNL     1      -2.486  14.361  21.565  0.00  0.00    +0.000 A 
ATOM      5  C   UNL     1      -2.108  13.293  22.384  0.00  0.00    +0.000 A 
ATOM      6  C   UNL     1      -0.907  12.623  22.188  0.00  0.00    +0.000 A 
ATOM      7  C   UNL     1      -3.660  15.281  21.910  0.00  0.00    +0.000 C 
ATOM      8  C   UNL     1      -4.426  15.625  20.579  0.00  0.00    +0.000 C 
ATOM      9  C   UNL     1      -4.769  14.640  22.767  0.00  0.00    +0.000 C 
ATOM     10  C   UNL     1      -4.588  14.707  24.267  0.00  0.00    +0.000 C 
ATOM     11  C   UNL     1      -4.286  16.123  24.737  0.00  0.00    +0.000 C 
ATOM     12  C   UNL     1      -3.038  16.785  24.093  0.00  0.00    +0.000 C 
ATOM     13  C   UNL     1      -1.791  16.204  24.876  0.00  0.00    +0.000 C 
ATOM     14  C   UNL     1      -3.042  18.289  24.398  0.00  0.00    +0.000 C 
ATOM     15  C   UNL     1      -2.824  16.439  22.559  0.00  0.00    +0.000 C 
ATOM     16  C   UNL     1      -2.240  17.314  21.419  0.00  0.00    +0.000 C 
ATOM     17  C   UNL     1      -1.499  16.366  20.340  0.00  0.00    +0.000 C 
ENDROOT
BRANCH   1  20
ATOM     18  N   UNL     1       0.158  10.598  19.705  0.00  0.00    +0.000 N 
ATOM     19  C   UNL     1      -1.232  10.561  19.270  0.00  0.00    +0.000 C 
ATOM     20  C   UNL     1       0.629  11.655  20.517  0.00  0.00    +0.000 C 
ATOM     21  O   UNL     1       1.809  11.713  20.910  0.00  0.00    +0.000 OA
BRANCH  18  25
ATOM     22  C   UNL     1       2.727   7.329  18.528  0.00  0.00    +0.000 A 
ATOM     23  C   UNL     1       2.180   7.364  19.801  0.00  0.00    +0.000 A 
ATOM     24  C   UNL     1       1.328   8.415  20.184  0.00  0.00    +0.000 A 
ATOM     25  C   UNL     1       1.027   9.491  19.328  0.00  0.00    +0.000 A 
ATOM     26  C   UNL     1       1.619   9.431  18.056  0.00  0.00    +0.000 A 
ATOM     27  C   UNL     1       2.449   8.379  17.656  0.00  0.00    +0.000 A 
BRANCH  22  29
ATOM     28  C   UNL     1       4.018   5.564  19.402  0.00  0.00    +0.000 C 
ATOM     29  O   UNL     1       3.538   6.265  18.258  0.00  0.00    +0.000 OA
ENDBRANCH  22  29
ENDBRANCH  18  25
ENDBRANCH   1  20
BRANCH   6  30
ATOM     30  O   UNL     1      -0.562  11.811  23.240  0.00  0.00    +0.000 OA
ATOM     31  C   UNL     1      -1.096  10.483  23.210  0.00  0.00    +0.000 C 
ENDBRANCH   6  30
BRANCH  11  32
ATOM     32  O   UNL     1      -5.467  16.911  24.557  0.00  0.00    +0.000 OA
ATOM     33  H   UNL     1      -6.094  16.394  24.023  0.00  0.00    +0.000 HD
ENDBRANCH  11  32
TORSDOF 5
ENDMDL
MODEL 8
REMARK VINA RESULT:      -6.6      2.237      9.939
REMARK  Name = 
REMARK  11 active torsions:
REMARK  status: ('A' for Active; 'I' for Inactive)
REMARK    1  A    between atoms: C_1  and  O_2
REMARK    2  A    between atoms: O_2  and  C_3
REMARK    3  A    between atoms: C_6  and  N_7
REMARK    4  A    between atoms: N_7  and  C_8
REMARK    5  A    between atoms: C_9  and  C_11
REMARK    6  A    between atoms: C_16  and  O_17
REMARK    7  A    between atoms: O_17  and  C_18
REMARK    8  A    between atoms: C_19  and  C_20
REMARK    9  A    between atoms: C_23  and  O_24
REMARK   10  A    between atoms: C_25  and  C_26
REMARK   11  A    between atoms: C_25  and  C_27
REMARK                            x       y       z     vdW  Elec       q    Type
REMARK                         _______ _______ _______ _____ _____    ______ ____
ROOT
ATOM      1  C   UNL     1       1.992   7.895  19.120  0.00  0.00    +0.000 A 
ATOM      2  C   UNL     1       1.472   7.120  20.185  0.00  0.00    +0.000 A 
ATOM      3  C   UNL     1       1.625   5.726  20.201  0.00  0.00    +0.000 A 
ATOM      4  C   UNL     1       1.918   5.090  18.983  0.00  0.00    +0.000 A 
ATOM      5  C   UNL     1       2.558   5.848  17.999  0.00  0.00    +0.000 A 
ATOM      6  C   UNL     1       2.732   7.219  18.142  0.00  0.00    +0.000 A 
ATOM      7  C   UNL     1       1.942   3.560  18.982  0.00  0.00    +0.000 C 
ATOM      8  C   UNL     1       0.527   3.042  19.439  0.00  0.00    +0.000 C 
ATOM      9  C   UNL     1       2.096   2.905  17.595  0.00  0.00    +0.000 C 
ATOM     10  C   UNL     1       3.509   2.688  17.102  0.00  0.00    +0.000 C 
ATOM     11  C   UNL     1       4.366   1.975  18.140  0.00  0.00    +0.000 C 
ATOM     12  C   UNL     1       4.463   2.680  19.520  0.00  0.00    +0.000 C 
ATOM     13  C   UNL     1       5.539   3.827  19.343  0.00  0.00    +0.000 C 
ATOM     14  C   UNL     1       5.067   1.714  20.547  0.00  0.00    +0.000 C 
ATOM     15  C   UNL     1       3.120   3.376  20.002  0.00  0.00    +0.000 C 
ATOM     16  C   UNL     1       2.552   3.545  21.435  0.00  0.00    +0.000 C 
ATOM     17  C   UNL     1       1.694   4.912  21.516  0.00  0.00    +0.000 C 
ENDROOT
BRANCH   1  20
ATOM     18  N   UNL     1       1.180  10.244  19.803  0.00  0.00    +0.000 N 
ATOM     19  C   UNL     1       0.924   9.805  21.168  0.00  0.00    +0.000 C 
ATOM     20  C   UNL     1       1.677   9.338  18.838  0.00  0.00    +0.000 C 
ATOM     21  O   UNL     1       1.901   9.680  17.662  0.00  0.00    +0.000 OA
BRANCH  18  25
ATOM     22  C   UNL     1       0.261  14.343  18.792  0.00  0.00    +0.000 A 
ATOM     23  C   UNL     1      -0.665  13.340  18.554  0.00  0.00    +0.000 A 
ATOM     24  C   UNL     1      -0.380  12.007  18.897  0.00  0.00    +0.000 A 
ATOM     25  C   UNL     1       0.855  11.619  19.450  0.00  0.00    +0.000 A 
ATOM     26  C   UNL     1       1.776  12.660  19.654  0.00  0.00    +0.000 A 
ATOM     27  C   UNL     1       1.495  13.993  19.338  0.00  0.00    +0.000 A 
BRANCH  22  29
ATOM     28  C   UNL     1       0.881  16.607  18.594  0.00  0.00    +0.000 C 
ATOM     29  O   UNL     1      -0.115  15.602  18.423  0.00  0.00    +0.000 OA
ENDBRANCH  22  29
ENDBRANCH  18  25
ENDBRANCH   1  20
BRANCH   6  30
ATOM     30  O   UNL     1       3.622   7.750  17.241  0.00  0.00    +0.000 OA
ATOM     31  C   UNL     1       4.770   6.947  16.945  0.00  0.00    +0.000 C 
ENDBRANCH   6  30
BRANCH  11  32
ATOM     32  O   UNL     1       3.895   0.629  18.255  0.00  0.00    +0.000 OA
ATOM     33  H   UNL     1       3.631   0.326  17.369  0.00  0.00    +0.000 HD
ENDBRANCH  11  32
TORSDOF 5
ENDMDL
MODEL 9
REMARK VINA RESULT:      -6.6      1.783      2.288
REMARK  Name = 
REMARK  11 active torsions:
REMARK  status: ('A' for Active; 'I' for Inactive)
REMARK    1  A    between atoms: C_1  and  O_2
REMARK    2  A    between atoms: O_2  and  C_3
REMARK    3  A    between atoms: C_6  and  N_7
REMARK    4  A    between atoms: N_7  and  C_8
REMARK    5  A    between atoms: C_9  and  C_11
REMARK    6  A    between atoms: C_16  and  O_17
REMARK    7  A    between atoms: O_17  and  C_18
REMARK    8  A    between atoms: C_19  and  C_20
REMARK    9  A    between atoms: C_23  and  O_24
REMARK   10  A    between atoms: C_25  and  C_26
REMARK   11  A    between atoms: C_25  and  C_27
REMARK                            x       y       z     vdW  Elec       q    Type
REMARK                         _______ _______ _______ _____ _____    ______ ____
ROOT
ATOM      1  C   UNL     1      -0.146  11.319  20.043  0.00  0.00    +0.000 A 
ATOM      2  C   UNL     1      -1.551  11.424  19.907  0.00  0.00    +0.000 A 
ATOM      3  C   UNL     1      -2.287  12.312  20.706  0.00  0.00    +0.000 A 
ATOM      4  C   UNL     1      -1.687  12.769  21.891  0.00  0.00    +0.000 A 
ATOM      5  C   UNL     1      -0.291  12.782  21.942  0.00  0.00    +0.000 A 
ATOM      6  C   UNL     1       0.475  12.197  20.941  0.00  0.00    +0.000 A 
ATOM      7  C   UNL     1      -2.548  13.622  22.826  0.00  0.00    +0.000 C 
ATOM      8  C   UNL     1      -3.807  12.775  23.248  0.00  0.00    +0.000 C 
ATOM      9  C   UNL     1      -1.909  13.956  24.188  0.00  0.00    +0.000 C 
ATOM     10  C   UNL     1      -1.045  15.196  24.245  0.00  0.00    +0.000 C 
ATOM     11  C   UNL     1      -1.761  16.409  23.666  0.00  0.00    +0.000 C 
ATOM     12  C   UNL     1      -2.252  16.255  22.201  0.00  0.00    +0.000 C 
ATOM     13  C   UNL     1      -0.980  16.508  21.293  0.00  0.00    +0.000 C 
ATOM     14  C   UNL     1      -3.222  17.396  21.865  0.00  0.00    +0.000 C 
ATOM     15  C   UNL     1      -2.802  14.812  21.836  0.00  0.00    +0.000 C 
ATOM     16  C   UNL     1      -3.942  14.403  20.867  0.00  0.00    +0.000 C 
ATOM     17  C   UNL     1      -3.613  12.954  20.231  0.00  0.00    +0.000 C 
ENDROOT
BRANCH   1  20
ATOM     18  N   UNL     1       1.020   9.021  20.106  0.00  0.00    +0.000 N 
ATOM     19  C   UNL     1       0.489   8.740  21.432  0.00  0.00    +0.000 C 
ATOM     20  C   UNL     1       0.723  10.242  19.457  0.00  0.00    +0.000 C 
ATOM     21  O   UNL     1       1.166  10.515  18.325  0.00  0.00    +0.000 OA
BRANCH  18  25
ATOM     22  C   UNL     1       3.655   6.080  18.351  0.00  0.00    +0.000 A 
ATOM     23  C   UNL     1       3.402   7.273  17.692  0.00  0.00    +0.000 A 
ATOM     24  C   UNL     1       2.560   8.242  18.266  0.00  0.00    +0.000 A 
ATOM     25  C   UNL     1       1.906   8.039  19.496  0.00  0.00    +0.000 A 
ATOM     26  C   UNL     1       2.170   6.809  20.121  0.00  0.00    +0.000 A 
ATOM     27  C   UNL     1       3.023   5.848  19.571  0.00  0.00    +0.000 A 
BRANCH  22  29
ATOM     28  C   UNL     1       5.196   4.311  18.557  0.00  0.00    +0.000 C 
ATOM     29  O   UNL     1       4.487   5.211  17.708  0.00  0.00    +0.000 OA
ENDBRANCH  22  29
ENDBRANCH  18  25
ENDBRANCH   1  20
BRANCH   6  30
ATOM     30  O   UNL     1       1.800  12.551  20.995  0.00  0.00    +0.000 OA
ATOM     31  C   UNL     1       2.210  13.588  20.097  0.00  0.00    +0.000 C 
ENDBRANCH   6  30
BRANCH  11  32
ATOM     32  O   UNL     1      -2.825  16.761  24.556  0.00  0.00    +0.000 OA
ATOM     33  H   UNL     1      -2.871  17.732  24.601  0.00  0.00    +0.000 HD
ENDBRANCH  11  32
TORSDOF 5
ENDMDL
