MODEL 1
REMARK VINA RESULT:      -7.5      0.000      0.000
REMARK  Name = 
REMARK  7 active torsions:
REMARK  status: ('A' for Active; 'I' for Inactive)
REMARK    1  A    between atoms: C_1  and  O_2
REMARK    2  A    between atoms: O_2  and  C_3
REMARK    3  A    between atoms: C_5  and  C_6
REMARK    4  A    between atoms: N_7  and  N_8
REMARK    5  A    between atoms: C_28  and  O_29
REMARK    6  A    between atoms: O_29  and  C_30
REMARK    7  A    between atoms: C_31  and  O_32
REMARK                            x       y       z     vdW  Elec       q    Type
REMARK                         _______ _______ _______ _____ _____    ______ ____
ROOT
ATOM      1  N   UNL     1       1.966   8.620  17.267  0.00  0.00    +0.000 N 
ATOM      2  C   UNL     1       0.986   9.304  18.023  0.00  0.00    +0.000 A 
ATOM      3  N   UNL     1       1.156   9.472  19.329  0.00  0.00    +0.000 NA
ATOM      4  C   UNL     1       0.192  10.100  19.983  0.00  0.00    +0.000 A 
ATOM      5  N   UNL     1       0.289  10.233  21.347  0.00  0.00    +0.000 N 
ATOM      6  C   UNL     1       1.489   9.792  22.047  0.00  0.00    +0.000 C 
ATOM      7  C   UNL     1       1.065   8.956  23.259  0.00  0.00    +0.000 C 
ATOM      8  C   UNL     1       0.054   9.699  24.133  0.00  0.00    +0.000 C 
ATOM      9  C   UNL     1      -1.130  10.213  23.312  0.00  0.00    +0.000 C 
ATOM     10  C   UNL     1      -0.665  11.025  22.102  0.00  0.00    +0.000 C 
ATOM     11  N   UNL     1      -0.893  10.564  19.373  0.00  0.00    +0.000 NA
ATOM     12  C   UNL     1      -1.001  10.373  18.066  0.00  0.00    +0.000 A 
ATOM     13  N   UNL     1      -2.160  10.776  17.449  0.00  0.00    +0.000 N 
ATOM     14  C   UNL     1      -3.196  11.505  18.177  0.00  0.00    +0.000 C 
ATOM     15  C   UNL     1      -4.573  11.020  17.689  0.00  0.00    +0.000 C 
ATOM     16  O   UNL     1      -4.702  11.140  16.260  0.00  0.00    +0.000 OA
ATOM     17  C   UNL     1      -3.680  10.374  15.595  0.00  0.00    +0.000 C 
ATOM     18  C   UNL     1      -2.271  10.843  15.996  0.00  0.00    +0.000 C 
ATOM     19  N   UNL     1      -0.072   9.749  17.349  0.00  0.00    +0.000 NA
ATOM     20  H   UNL     1       1.538   8.373  16.380  0.00  0.00    +0.000 HD
ENDROOT
BRANCH   1  22
ATOM     21  C   UNL     1       2.374   6.467  17.743  0.00  0.00    +0.000 C 
ATOM     22  N   UNL     1       2.743   7.696  17.911  0.00  0.00    +0.000 NA
BRANCH  21  25
ATOM     23  C   UNL     1       3.096   3.264  19.640  0.00  0.00    +0.000 A 
ATOM     24  C   UNL     1       2.408   4.348  19.075  0.00  0.00    +0.000 A 
ATOM     25  C   UNL     1       3.094   5.341  18.382  0.00  0.00    +0.000 A 
ATOM     26  C   UNL     1       4.481   5.269  18.273  0.00  0.00    +0.000 A 
ATOM     27  C   UNL     1       5.201   4.198  18.833  0.00  0.00    +0.000 A 
ATOM     28  C   UNL     1       4.498   3.181  19.507  0.00  0.00    +0.000 A 
BRANCH  23  30
ATOM     29  C   UNL     1       1.454   2.871  21.360  0.00  0.00    +0.000 C 
ATOM     30  O   UNL     1       2.243   2.400  20.279  0.00  0.00    +0.000 OA
ENDBRANCH  23  30
BRANCH  27  31
ATOM     31  O   UNL     1       6.540   4.333  18.588  0.00  0.00    +0.000 OA
ATOM     32  C   UNL     1       7.036   4.810  17.351  0.00  0.00    +0.000 C 
ENDBRANCH  27  31
BRANCH  28  33
ATOM     33  O   UNL     1       5.134   2.083  20.015  0.00  0.00    +0.000 OA
ATOM     34  H   UNL     1       5.931   1.926  19.493  0.00  0.00    +0.000 HD
ENDBRANCH  28  33
ENDBRANCH  21  25
ENDBRANCH   1  22
TORSDOF 5
ENDMDL
MODEL 2
REMARK VINA RESULT:      -7.4      0.105      2.344
REMARK  Name = 
REMARK  7 active torsions:
REMARK  status: ('A' for Active; 'I' for Inactive)
REMARK    1  A    between atoms: C_1  and  O_2
REMARK    2  A    between atoms: O_2  and  C_3
REMARK    3  A    between atoms: C_5  and  C_6
REMARK    4  A    between atoms: N_7  and  N_8
REMARK    5  A    between atoms: C_28  and  O_29
REMARK    6  A    between atoms: O_29  and  C_30
REMARK    7  A    between atoms: C_31  and  O_32
REMARK                            x       y       z     vdW  Elec       q    Type
REMARK                         _______ _______ _______ _____ _____    ______ ____
ROOT
ATOM      1  N   UNL     1       1.939   8.664  17.250  0.00  0.00    +0.000 N 
ATOM      2  C   UNL     1       0.965   9.343  18.019  0.00  0.00    +0.000 A 
ATOM      3  N   UNL     1       1.143   9.495  19.325  0.00  0.00    +0.000 NA
ATOM      4  C   UNL     1       0.185  10.119  19.992  0.00  0.00    +0.000 A 
ATOM      5  N   UNL     1       0.289  10.236  21.357  0.00  0.00    +0.000 N 
ATOM      6  C   UNL     1       1.492   9.783  22.046  0.00  0.00    +0.000 C 
ATOM      7  C   UNL     1       1.072   8.935  23.251  0.00  0.00    +0.000 C 
ATOM      8  C   UNL     1       0.069   9.671  24.138  0.00  0.00    +0.000 C 
ATOM      9  C   UNL     1      -1.118  10.197  23.330  0.00  0.00    +0.000 C 
ATOM     10  C   UNL     1      -0.658  11.021  22.127  0.00  0.00    +0.000 C 
ATOM     11  N   UNL     1      -0.902  10.592  19.394  0.00  0.00    +0.000 NA
ATOM     12  C   UNL     1      -1.018  10.417  18.085  0.00  0.00    +0.000 A 
ATOM     13  N   UNL     1      -2.179  10.830  17.480  0.00  0.00    +0.000 N 
ATOM     14  C   UNL     1      -3.209  11.553  18.222  0.00  0.00    +0.000 C 
ATOM     15  C   UNL     1      -4.590  11.077  17.736  0.00  0.00    +0.000 C 
ATOM     16  O   UNL     1      -4.727  11.214  16.309  0.00  0.00    +0.000 OA
ATOM     17  C   UNL     1      -3.711  10.453  15.629  0.00  0.00    +0.000 C 
ATOM     18  C   UNL     1      -2.299  10.913  16.028  0.00  0.00    +0.000 C 
ATOM     19  N   UNL     1      -0.095   9.798  17.356  0.00  0.00    +0.000 NA
ATOM     20  H   UNL     1       1.506   8.429  16.362  0.00  0.00    +0.000 HD
ENDROOT
BRANCH   1  22
ATOM     21  C   UNL     1       2.416   6.502  17.606  0.00  0.00    +0.000 C 
ATOM     22  N   UNL     1       2.718   7.731  17.879  0.00  0.00    +0.000 NA
BRANCH  21  25
ATOM     23  C   UNL     1       5.217   4.221  18.757  0.00  0.00    +0.000 A 
ATOM     24  C   UNL     1       4.533   5.279  18.142  0.00  0.00    +0.000 A 
ATOM     25  C   UNL     1       3.146   5.365  18.213  0.00  0.00    +0.000 A 
ATOM     26  C   UNL     1       2.430   4.373  18.881  0.00  0.00    +0.000 A 
ATOM     27  C   UNL     1       3.086   3.296  19.504  0.00  0.00    +0.000 A 
ATOM     28  C   UNL     1       4.492   3.231  19.453  0.00  0.00    +0.000 A 
BRANCH  23  30
ATOM     29  C   UNL     1       7.076   4.695  17.299  0.00  0.00    +0.000 C 
ATOM     30  O   UNL     1       6.573   4.317  18.570  0.00  0.00    +0.000 OA
ENDBRANCH  23  30
BRANCH  27  31
ATOM     31  O   UNL     1       2.185   2.461  20.105  0.00  0.00    +0.000 OA
ATOM     32  C   UNL     1       1.334   2.897  21.149  0.00  0.00    +0.000 C 
ENDBRANCH  27  31
BRANCH  28  33
ATOM     33  O   UNL     1       5.189   2.246  20.094  0.00  0.00    +0.000 OA
ATOM     34  H   UNL     1       4.601   1.826  20.735  0.00  0.00    +0.000 HD
ENDBRANCH  28  33
ENDBRANCH  21  25
ENDBRANCH   1  22
TORSDOF 5
ENDMDL
MODEL 3
REMARK VINA RESULT:      -7.4      2.647      5.312
REMARK  Name = 
REMARK  7 active torsions:
REMARK  status: ('A' for Active; 'I' for Inactive)
REMARK    1  A    between atoms: C_1  and  O_2
REMARK    2  A    between atoms: O_2  and  C_3
REMARK    3  A    between atoms: C_5  and  C_6
REMARK    4  A    between atoms: N_7  and  N_8
REMARK    5  A    between atoms: C_28  and  O_29
REMARK    6  A    between atoms: O_29  and  C_30
REMARK    7  A    between atoms: C_31  and  O_32
REMARK                            x       y       z     vdW  Elec       q    Type
REMARK                         _______ _______ _______ _____ _____    ______ ____
ROOT
ATOM      1  N   UNL     1       1.068   9.418  20.251  0.00  0.00    +0.000 N 
ATOM      2  C   UNL     1      -0.046  10.245  19.976  0.00  0.00    +0.000 A 
ATOM      3  N   UNL     1      -0.870   9.934  18.983  0.00  0.00    +0.000 NA
ATOM      4  C   UNL     1      -1.880  10.761  18.762  0.00  0.00    +0.000 A 
ATOM      5  N   UNL     1      -2.717  10.521  17.700  0.00  0.00    +0.000 N 
ATOM      6  C   UNL     1      -2.565   9.313  16.898  0.00  0.00    +0.000 C 
ATOM      7  C   UNL     1      -2.591   9.705  15.418  0.00  0.00    +0.000 C 
ATOM      8  C   UNL     1      -3.822  10.545  15.076  0.00  0.00    +0.000 C 
ATOM      9  C   UNL     1      -3.966  11.741  16.018  0.00  0.00    +0.000 C 
ATOM     10  C   UNL     1      -3.916  11.311  17.485  0.00  0.00    +0.000 C 
ATOM     11  N   UNL     1      -2.084  11.844  19.503  0.00  0.00    +0.000 NA
ATOM     12  C   UNL     1      -1.232  12.096  20.486  0.00  0.00    +0.000 A 
ATOM     13  N   UNL     1      -1.392  13.259  21.197  0.00  0.00    +0.000 N 
ATOM     14  C   UNL     1      -2.536  14.140  20.968  0.00  0.00    +0.000 C 
ATOM     15  C   UNL     1      -2.061  15.600  21.078  0.00  0.00    +0.000 C 
ATOM     16  O   UNL     1      -1.402  15.851  22.334  0.00  0.00    +0.000 OA
ATOM     17  C   UNL     1      -0.264  14.982  22.489  0.00  0.00    +0.000 C 
ATOM     18  C   UNL     1      -0.674  13.501  22.444  0.00  0.00    +0.000 C 
ATOM     19  N   UNL     1      -0.196  11.309  20.761  0.00  0.00    +0.000 NA
ATOM     20  H   UNL     1       1.695   9.952  20.846  0.00  0.00    +0.000 HD
ENDROOT
BRANCH   1  22
ATOM     21  C   UNL     1       2.197   7.598  19.586  0.00  0.00    +0.000 C 
ATOM     22  N   UNL     1       1.591   8.683  19.222  0.00  0.00    +0.000 NA
BRANCH  21  25
ATOM     23  C   UNL     1       4.612   6.186  17.026  0.00  0.00    +0.000 A 
ATOM     24  C   UNL     1       3.991   7.067  17.924  0.00  0.00    +0.000 A 
ATOM     25  C   UNL     1       2.836   6.693  18.602  0.00  0.00    +0.000 A 
ATOM     26  C   UNL     1       2.276   5.438  18.365  0.00  0.00    +0.000 A 
ATOM     27  C   UNL     1       2.870   4.534  17.467  0.00  0.00    +0.000 A 
ATOM     28  C   UNL     1       4.056   4.908  16.806  0.00  0.00    +0.000 A 
BRANCH  23  30
ATOM     29  C   UNL     1       7.013   6.369  16.943  0.00  0.00    +0.000 C 
ATOM     30  O   UNL     1       5.732   6.742  16.462  0.00  0.00    +0.000 OA
ENDBRANCH  23  30
BRANCH  27  31
ATOM     31  O   UNL     1       2.156   3.369  17.408  0.00  0.00    +0.000 OA
ATOM     32  C   UNL     1       2.604   2.178  18.030  0.00  0.00    +0.000 C 
ENDBRANCH  27  31
BRANCH  28  33
ATOM     33  O   UNL     1       4.715   4.049  15.973  0.00  0.00    +0.000 OA
ATOM     34  H   UNL     1       5.072   4.557  15.233  0.00  0.00    +0.000 HD
ENDBRANCH  28  33
ENDBRANCH  21  25
ENDBRANCH   1  22
TORSDOF 5
ENDMDL
MODEL 4
REMARK VINA RESULT:      -7.3      2.760      5.320
REMARK  Name = 
REMARK  7 active torsions:
REMARK  status: ('A' for Active; 'I' for Inactive)
REMARK    1  A    between atoms: C_1  and  O_2
REMARK    2  A    between atoms: O_2  and  C_3
REMARK    3  A    between atoms: C_5  and  C_6
REMARK    4  A    between atoms: N_7  and  N_8
REMARK    5  A    between atoms: C_28  and  O_29
REMARK    6  A    between atoms: O_29  and  C_30
REMARK    7  A    between atoms: C_31  and  O_32
REMARK                            x       y       z     vdW  Elec       q    Type
REMARK                         _______ _______ _______ _____ _____    ______ ____
ROOT
ATOM      1  N   UNL     1       0.912   9.846  20.911  0.00  0.00    +0.000 N 
ATOM      2  C   UNL     1      -0.145  10.689  20.496  0.00  0.00    +0.000 A 
ATOM      3  N   UNL     1      -0.984  10.281  19.553  0.00  0.00    +0.000 NA
ATOM      4  C   UNL     1      -1.938  11.126  19.193  0.00  0.00    +0.000 A 
ATOM      5  N   UNL     1      -2.785  10.778  18.170  0.00  0.00    +0.000 N 
ATOM      6  C   UNL     1      -2.710   9.452  17.568  0.00  0.00    +0.000 C 
ATOM      7  C   UNL     1      -2.706   9.609  16.045  0.00  0.00    +0.000 C 
ATOM      8  C   UNL     1      -3.878  10.462  15.560  0.00  0.00    +0.000 C 
ATOM      9  C   UNL     1      -3.947  11.797  16.302  0.00  0.00    +0.000 C 
ATOM     10  C   UNL     1      -3.930  11.599  17.819  0.00  0.00    +0.000 C 
ATOM     11  N   UNL     1      -2.072  12.323  19.753  0.00  0.00    +0.000 NA
ATOM     12  C   UNL     1      -1.208  12.669  20.696  0.00  0.00    +0.000 A 
ATOM     13  N   UNL     1      -1.294  13.937  21.215  0.00  0.00    +0.000 N 
ATOM     14  C   UNL     1      -2.377  14.843  20.837  0.00  0.00    +0.000 C 
ATOM     15  C   UNL     1      -1.808  16.269  20.725  0.00  0.00    +0.000 C 
ATOM     16  O   UNL     1      -1.138  16.670  21.934  0.00  0.00    +0.000 OA
ATOM     17  C   UNL     1      -0.060  15.765  22.238  0.00  0.00    +0.000 C 
ATOM     18  C   UNL     1      -0.565  14.324  22.418  0.00  0.00    +0.000 C 
ATOM     19  N   UNL     1      -0.226  11.871  21.103  0.00  0.00    +0.000 NA
ATOM     20  H   UNL     1       1.571  10.425  21.424  0.00  0.00    +0.000 HD
ENDROOT
BRANCH   1  22
ATOM     21  C   UNL     1       1.709   7.784  20.533  0.00  0.00    +0.000 C 
ATOM     22  N   UNL     1       1.390   8.927  20.016  0.00  0.00    +0.000 NA
BRANCH  21  25
ATOM     23  C   UNL     1       3.583   5.888  17.836  0.00  0.00    +0.000 A 
ATOM     24  C   UNL     1       3.033   6.939  18.584  0.00  0.00    +0.000 A 
ATOM     25  C   UNL     1       2.258   6.681  19.709  0.00  0.00    +0.000 A 
ATOM     26  C   UNL     1       2.004   5.361  20.081  0.00  0.00    +0.000 A 
ATOM     27  C   UNL     1       2.536   4.284  19.349  0.00  0.00    +0.000 A 
ATOM     28  C   UNL     1       3.344   4.554  18.228  0.00  0.00    +0.000 A 
BRANCH  23  30
ATOM     29  C   UNL     1       5.685   6.650  16.940  0.00  0.00    +0.000 C 
ATOM     30  O   UNL     1       4.309   6.350  16.768  0.00  0.00    +0.000 OA
ENDBRANCH  23  30
BRANCH  27  31
ATOM     31  O   UNL     1       2.168   3.090  19.906  0.00  0.00    +0.000 OA
ATOM     32  C   UNL     1       1.685   2.995  21.233  0.00  0.00    +0.000 C 
ENDBRANCH  27  31
BRANCH  28  33
ATOM     33  O   UNL     1       3.943   3.552  17.517  0.00  0.00    +0.000 OA
ATOM     34  H   UNL     1       3.838   2.727  18.008  0.00  0.00    +0.000 HD
ENDBRANCH  28  33
ENDBRANCH  21  25
ENDBRANCH   1  22
TORSDOF 5
ENDMDL
MODEL 5
REMARK VINA RESULT:      -7.3      2.753      4.860
REMARK  Name = 
REMARK  7 active torsions:
REMARK  status: ('A' for Active; 'I' for Inactive)
REMARK    1  A    between atoms: C_1  and  O_2
REMARK    2  A    between atoms: O_2  and  C_3
REMARK    3  A    between atoms: C_5  and  C_6
REMARK    4  A    between atoms: N_7  and  N_8
REMARK    5  A    between atoms: C_28  and  O_29
REMARK    6  A    between atoms: O_29  and  C_30
REMARK    7  A    between atoms: C_31  and  O_32
REMARK                            x       y       z     vdW  Elec       q    Type
REMARK                         _______ _______ _______ _____ _____    ______ ____
ROOT
ATOM      1  N   UNL     1       0.902   9.693  20.770  0.00  0.00    +0.000 N 
ATOM      2  C   UNL     1      -0.160  10.547  20.391  0.00  0.00    +0.000 A 
ATOM      3  N   UNL     1      -1.002  10.170  19.437  0.00  0.00    +0.000 NA
ATOM      4  C   UNL     1      -1.960  11.024  19.112  0.00  0.00    +0.000 A 
ATOM      5  N   UNL     1      -2.812  10.710  18.081  0.00  0.00    +0.000 N 
ATOM      6  C   UNL     1      -2.734   9.407  17.431  0.00  0.00    +0.000 C 
ATOM      7  C   UNL     1      -2.737   9.619  15.914  0.00  0.00    +0.000 C 
ATOM      8  C   UNL     1      -3.915  10.485  15.467  0.00  0.00    +0.000 C 
ATOM      9  C   UNL     1      -3.985  11.792  16.257  0.00  0.00    +0.000 C 
ATOM     10  C   UNL     1      -3.961  11.539  17.765  0.00  0.00    +0.000 C 
ATOM     11  N   UNL     1      -2.097  12.199  19.716  0.00  0.00    +0.000 NA
ATOM     12  C   UNL     1      -1.230  12.514  20.667  0.00  0.00    +0.000 A 
ATOM     13  N   UNL     1      -1.318  13.762  21.233  0.00  0.00    +0.000 N 
ATOM     14  C   UNL     1      -2.406  14.677  20.893  0.00  0.00    +0.000 C 
ATOM     15  C   UNL     1      -1.843  16.108  20.830  0.00  0.00    +0.000 C 
ATOM     16  O   UNL     1      -1.169  16.467  22.051  0.00  0.00    +0.000 OA
ATOM     17  C   UNL     1      -0.086  15.556  22.316  0.00  0.00    +0.000 C 
ATOM     18  C   UNL     1      -0.585  14.108  22.446  0.00  0.00    +0.000 C 
ATOM     19  N   UNL     1      -0.243  11.705  21.041  0.00  0.00    +0.000 NA
ATOM     20  H   UNL     1       1.561  10.255  21.301  0.00  0.00    +0.000 HD
ENDROOT
BRANCH   1  22
ATOM     21  C   UNL     1       1.839   7.703  20.331  0.00  0.00    +0.000 C 
ATOM     22  N   UNL     1       1.379   8.810  19.840  0.00  0.00    +0.000 NA
BRANCH  21  25
ATOM     23  C   UNL     1       2.589   4.314  18.805  0.00  0.00    +0.000 A 
ATOM     24  C   UNL     1       2.078   5.305  19.655  0.00  0.00    +0.000 A 
ATOM     25  C   UNL     1       2.408   6.643  19.467  0.00  0.00    +0.000 A 
ATOM     26  C   UNL     1       3.278   6.997  18.437  0.00  0.00    +0.000 A 
ATOM     27  C   UNL     1       3.813   6.027  17.570  0.00  0.00    +0.000 A 
ATOM     28  C   UNL     1       3.451   4.678  17.748  0.00  0.00    +0.000 A 
BRANCH  23  30
ATOM     29  C   UNL     1       0.754   2.817  19.244  0.00  0.00    +0.000 C 
ATOM     30  O   UNL     1       2.148   3.065  19.158  0.00  0.00    +0.000 OA
ENDBRANCH  23  30
BRANCH  27  31
ATOM     31  O   UNL     1       4.625   6.608  16.634  0.00  0.00    +0.000 OA
ATOM     32  C   UNL     1       6.011   6.792  16.850  0.00  0.00    +0.000 C 
ENDBRANCH  27  31
BRANCH  28  33
ATOM     33  O   UNL     1       3.885   3.700  16.899  0.00  0.00    +0.000 OA
ATOM     34  H   UNL     1       3.115   3.311  16.465  0.00  0.00    +0.000 HD
ENDBRANCH  28  33
ENDBRANCH  21  25
ENDBRANCH   1  22
TORSDOF 5
ENDMDL
MODEL 6
REMARK VINA RESULT:      -7.1      2.968      4.862
REMARK  Name = 
REMARK  7 active torsions:
REMARK  status: ('A' for Active; 'I' for Inactive)
REMARK    1  A    between atoms: C_1  and  O_2
REMARK    2  A    between atoms: O_2  and  C_3
REMARK    3  A    between atoms: C_5  and  C_6
REMARK    4  A    between atoms: N_7  and  N_8
REMARK    5  A    between atoms: C_28  and  O_29
REMARK    6  A    between atoms: O_29  and  C_30
REMARK    7  A    between atoms: C_31  and  O_32
REMARK                            x       y       z     vdW  Elec       q    Type
REMARK                         _______ _______ _______ _____ _____    ______ ____
ROOT
ATOM      1  N   UNL     1       1.101   9.325  21.357  0.00  0.00    +0.000 N 
ATOM      2  C   UNL     1       0.505  10.356  20.594  0.00  0.00    +0.000 A 
ATOM      3  N   UNL     1      -0.501  10.075  19.775  0.00  0.00    +0.000 NA
ATOM      4  C   UNL     1      -1.000  11.079  19.072  0.00  0.00    +0.000 A 
ATOM      5  N   UNL     1      -1.993  10.824  18.158  0.00  0.00    +0.000 N 
ATOM      6  C   UNL     1      -2.568   9.489  18.046  0.00  0.00    +0.000 C 
ATOM      7  C   UNL     1      -2.616   9.102  16.565  0.00  0.00    +0.000 C 
ATOM      8  C   UNL     1      -3.316  10.169  15.724  0.00  0.00    +0.000 C 
ATOM      9  C   UNL     1      -2.719  11.556  15.964  0.00  0.00    +0.000 C 
ATOM     10  C   UNL     1      -2.672  11.897  17.454  0.00  0.00    +0.000 C 
ATOM     11  N   UNL     1      -0.539  12.320  19.183  0.00  0.00    +0.000 NA
ATOM     12  C   UNL     1       0.461  12.539  20.024  0.00  0.00    +0.000 A 
ATOM     13  N   UNL     1       0.994  13.803  20.077  0.00  0.00    +0.000 N 
ATOM     14  C   UNL     1       0.406  14.910  19.325  0.00  0.00    +0.000 C 
ATOM     15  C   UNL     1       1.542  15.798  18.788  0.00  0.00    +0.000 C 
ATOM     16  O   UNL     1       2.415  16.240  19.844  0.00  0.00    +0.000 OA
ATOM     17  C   UNL     1       2.994  15.111  20.525  0.00  0.00    +0.000 C 
ATOM     18  C   UNL     1       1.913  14.204  21.137  0.00  0.00    +0.000 C 
ATOM     19  N   UNL     1       1.010  11.577  20.759  0.00  0.00    +0.000 NA
ATOM     20  H   UNL     1       1.989   9.684  21.699  0.00  0.00    +0.000 HD
ENDROOT
BRANCH   1  22
ATOM     21  C   UNL     1       2.144   7.624  20.333  0.00  0.00    +0.000 C 
ATOM     22  N   UNL     1       1.043   8.049  20.867  0.00  0.00    +0.000 NA
BRANCH  21  25
ATOM     23  C   UNL     1       1.672   3.914  19.709  0.00  0.00    +0.000 A 
ATOM     24  C   UNL     1       1.597   5.182  20.303  0.00  0.00    +0.000 A 
ATOM     25  C   UNL     1       2.252   6.271  19.739  0.00  0.00    +0.000 A 
ATOM     26  C   UNL     1       3.012   6.093  18.583  0.00  0.00    +0.000 A 
ATOM     27  C   UNL     1       3.111   4.833  17.965  0.00  0.00    +0.000 A 
ATOM     28  C   UNL     1       2.421   3.741  18.526  0.00  0.00    +0.000 A 
BRANCH  23  30
ATOM     29  C   UNL     1       1.442   2.550  21.681  0.00  0.00    +0.000 C 
ATOM     30  O   UNL     1       0.962   2.979  20.417  0.00  0.00    +0.000 OA
ENDBRANCH  23  30
BRANCH  27  31
ATOM     31  O   UNL     1       3.893   4.903  16.845  0.00  0.00    +0.000 OA
ATOM     32  C   UNL     1       5.210   4.384  16.812  0.00  0.00    +0.000 C 
ENDBRANCH  27  31
BRANCH  28  33
ATOM     33  O   UNL     1       2.426   2.509  17.936  0.00  0.00    +0.000 OA
ATOM     34  H   UNL     1       1.774   1.955  18.384  0.00  0.00    +0.000 HD
ENDBRANCH  28  33
ENDBRANCH  21  25
ENDBRANCH   1  22
TORSDOF 5
ENDMDL
MODEL 7
REMARK VINA RESULT:      -7.1      2.948      5.316
REMARK  Name = 
REMARK  7 active torsions:
REMARK  status: ('A' for Active; 'I' for Inactive)
REMARK    1  A    between atoms: C_1  and  O_2
REMARK    2  A    between atoms: O_2  and  C_3
REMARK    3  A    between atoms: C_5  and  C_6
REMARK    4  A    between atoms: N_7  and  N_8
REMARK    5  A    between atoms: C_28  and  O_29
REMARK    6  A    between atoms: O_29  and  C_30
REMARK    7  A    between atoms: C_31  and  O_32
REMARK                            x       y       z     vdW  Elec       q    Type
REMARK                         _______ _______ _______ _____ _____    ______ ____
ROOT
ATOM      1  N   UNL     1       1.174   9.233  21.259  0.00  0.00    +0.000 N 
ATOM      2  C   UNL     1       0.568  10.281  20.529  0.00  0.00    +0.000 A 
ATOM      3  N   UNL     1      -0.456  10.021  19.726  0.00  0.00    +0.000 NA
ATOM      4  C   UNL     1      -0.965  11.041  19.053  0.00  0.00    +0.000 A 
ATOM      5  N   UNL     1      -1.978  10.809  18.155  0.00  0.00    +0.000 N 
ATOM      6  C   UNL     1      -2.562   9.479  18.030  0.00  0.00    +0.000 C 
ATOM      7  C   UNL     1      -2.643   9.122  16.542  0.00  0.00    +0.000 C 
ATOM      8  C   UNL     1      -3.355  10.208  15.737  0.00  0.00    +0.000 C 
ATOM      9  C   UNL     1      -2.746  11.588  15.992  0.00  0.00    +0.000 C 
ATOM     10  C   UNL     1      -2.665  11.899  17.487  0.00  0.00    +0.000 C 
ATOM     11  N   UNL     1      -0.495  12.277  19.178  0.00  0.00    +0.000 NA
ATOM     12  C   UNL     1       0.524  12.475  20.003  0.00  0.00    +0.000 A 
ATOM     13  N   UNL     1       1.064  13.735  20.069  0.00  0.00    +0.000 N 
ATOM     14  C   UNL     1       0.466  14.859  19.351  0.00  0.00    +0.000 C 
ATOM     15  C   UNL     1       1.596  15.752  18.808  0.00  0.00    +0.000 C 
ATOM     16  O   UNL     1       2.493  16.169  19.855  0.00  0.00    +0.000 OA
ATOM     17  C   UNL     1       3.080  15.024  20.501  0.00  0.00    +0.000 C 
ATOM     18  C   UNL     1       2.007  14.111  21.117  0.00  0.00    +0.000 C 
ATOM     19  N   UNL     1       1.082  11.496  20.707  0.00  0.00    +0.000 NA
ATOM     20  H   UNL     1       2.070   9.580  21.589  0.00  0.00    +0.000 HD
ENDROOT
BRANCH   1  22
ATOM     21  C   UNL     1       2.202   7.528  20.227  0.00  0.00    +0.000 C 
ATOM     22  N   UNL     1       1.099   7.967  20.746  0.00  0.00    +0.000 NA
BRANCH  21  25
ATOM     23  C   UNL     1       3.141   4.687  17.897  0.00  0.00    +0.000 A 
ATOM     24  C   UNL     1       3.026   5.972  18.448  0.00  0.00    +0.000 A 
ATOM     25  C   UNL     1       2.293   6.183  19.611  0.00  0.00    +0.000 A 
ATOM     26  C   UNL     1       1.646   5.109  20.220  0.00  0.00    +0.000 A 
ATOM     27  C   UNL     1       1.737   3.809  19.690  0.00  0.00    +0.000 A 
ATOM     28  C   UNL     1       2.504   3.598  18.528  0.00  0.00    +0.000 A 
BRANCH  23  30
ATOM     29  C   UNL     1       5.289   4.968  16.841  0.00  0.00    +0.000 C 
ATOM     30  O   UNL     1       3.900   4.691  16.754  0.00  0.00    +0.000 OA
ENDBRANCH  23  30
BRANCH  27  31
ATOM     31  O   UNL     1       1.036   2.922  20.459  0.00  0.00    +0.000 OA
ATOM     32  C   UNL     1       1.496   2.497  21.728  0.00  0.00    +0.000 C 
ENDBRANCH  27  31
BRANCH  28  33
ATOM     33  O   UNL     1       2.684   2.349  18.004  0.00  0.00    +0.000 OA
ATOM     34  H   UNL     1       1.844   2.052  17.631  0.00  0.00    +0.000 HD
ENDBRANCH  28  33
ENDBRANCH  21  25
ENDBRANCH   1  22
TORSDOF 5
ENDMDL
MODEL 8
REMARK VINA RESULT:      -6.9      5.394      8.910
REMARK  Name = 
REMARK  7 active torsions:
REMARK  status: ('A' for Active; 'I' for Inactive)
REMARK    1  A    between atoms: C_1  and  O_2
REMARK    2  A    between atoms: O_2  and  C_3
REMARK    3  A    between atoms: C_5  and  C_6
REMARK    4  A    between atoms: N_7  and  N_8
REMARK    5  A    between atoms: C_28  and  O_29
REMARK    6  A    between atoms: O_29  and  C_30
REMARK    7  A    between atoms: C_31  and  O_32
REMARK                            x       y       z     vdW  Elec       q    Type
REMARK                         _______ _______ _______ _____ _____    ______ ____
ROOT
ATOM      1  N   UNL     1       2.498  11.824  17.274  0.00  0.00    +0.000 N 
ATOM      2  C   UNL     1       2.083  10.725  18.062  0.00  0.00    +0.000 A 
ATOM      3  N   UNL     1       1.160  10.896  18.999  0.00  0.00    +0.000 NA
ATOM      4  C   UNL     1       0.832   9.833  19.718  0.00  0.00    +0.000 A 
ATOM      5  N   UNL     1      -0.065   9.975  20.748  0.00  0.00    +0.000 N 
ATOM      6  C   UNL     1      -0.733  11.252  20.973  0.00  0.00    +0.000 C 
ATOM      7  C   UNL     1      -0.640  11.593  22.463  0.00  0.00    +0.000 C 
ATOM      8  C   UNL     1      -1.145  10.447  23.339  0.00  0.00    +0.000 C 
ATOM      9  C   UNL     1      -0.466   9.124  22.982  0.00  0.00    +0.000 C 
ATOM     10  C   UNL     1      -0.564   8.828  21.484  0.00  0.00    +0.000 C 
ATOM     11  N   UNL     1       1.380   8.641  19.510  0.00  0.00    +0.000 NA
ATOM     12  C   UNL     1       2.290   8.532  18.553  0.00  0.00    +0.000 A 
ATOM     13  N   UNL     1       2.918   7.322  18.394  0.00  0.00    +0.000 N 
ATOM     14  C   UNL     1       2.516   6.149  19.167  0.00  0.00    +0.000 C 
ATOM     15  C   UNL     1       3.778   5.349  19.538  0.00  0.00    +0.000 C 
ATOM     16  O   UNL     1       4.556   5.014  18.374  0.00  0.00    +0.000 OA
ATOM     17  C   UNL     1       4.955   6.207  17.673  0.00  0.00    +0.000 C 
ATOM     18  C   UNL     1       3.737   7.031  17.222  0.00  0.00    +0.000 C 
ATOM     19  N   UNL     1       2.667   9.558  17.796  0.00  0.00    +0.000 NA
ATOM     20  H   UNL     1       3.366  11.554  16.820  0.00  0.00    +0.000 HD
ENDROOT
BRANCH   1  22
ATOM     21  C   UNL     1       3.506  13.582  18.235  0.00  0.00    +0.000 C 
ATOM     22  N   UNL     1       2.390  13.077  17.813  0.00  0.00    +0.000 NA
BRANCH  21  25
ATOM     23  C   UNL     1       2.640  16.630  20.318  0.00  0.00    +0.000 A 
ATOM     24  C   UNL     1       2.551  15.376  19.696  0.00  0.00    +0.000 A 
ATOM     25  C   UNL     1       3.568  14.923  18.862  0.00  0.00    +0.000 A 
ATOM     26  C   UNL     1       4.675  15.736  18.624  0.00  0.00    +0.000 A 
ATOM     27  C   UNL     1       4.792  17.001  19.228  0.00  0.00    +0.000 A 
ATOM     28  C   UNL     1       3.773  17.441  20.094  0.00  0.00    +0.000 A 
BRANCH  23  30
ATOM     29  C   UNL     1       0.324  17.273  20.473  0.00  0.00    +0.000 C 
ATOM     30  O   UNL     1       1.540  16.890  21.094  0.00  0.00    +0.000 OA
ENDBRANCH  23  30
BRANCH  27  31
ATOM     31  O   UNL     1       5.961  17.608  18.860  0.00  0.00    +0.000 OA
ATOM     32  C   UNL     1       7.225  17.120  19.271  0.00  0.00    +0.000 C 
ENDBRANCH  27  31
BRANCH  28  33
ATOM     33  O   UNL     1       3.861  18.630  20.761  0.00  0.00    +0.000 OA
ATOM     34  H   UNL     1       3.944  19.339  20.109  0.00  0.00    +0.000 HD
ENDBRANCH  28  33
ENDBRANCH  21  25
ENDBRANCH   1  22
TORSDOF 5
ENDMDL
MODEL 9
REMARK VINA RESULT:      -6.8      5.184      9.106
REMARK  Name = 
REMARK  7 active torsions:
REMARK  status: ('A' for Active; 'I' for Inactive)
REMARK    1  A    between atoms: C_1  and  O_2
REMARK    2  A    between atoms: O_2  and  C_3
REMARK    3  A    between atoms: C_5  and  C_6
REMARK    4  A    between atoms: N_7  and  N_8
REMARK    5  A    between atoms: C_28  and  O_29
REMARK    6  A    between atoms: O_29  and  C_30
REMARK    7  A    between atoms: C_31  and  O_32
REMARK                            x       y       z     vdW  Elec       q    Type
REMARK                         _______ _______ _______ _____ _____    ______ ____
ROOT
ATOM      1  N   UNL     1       2.403  11.720  17.223  0.00  0.00    +0.000 N 
ATOM      2  C   UNL     1       2.012  10.640  18.048  0.00  0.00    +0.000 A 
ATOM      3  N   UNL     1       1.096  10.826  18.990  0.00  0.00    +0.000 NA
ATOM      4  C   UNL     1       0.791   9.782  19.744  0.00  0.00    +0.000 A 
ATOM      5  N   UNL     1      -0.098   9.943  20.779  0.00  0.00    +0.000 N 
ATOM      6  C   UNL     1      -0.782  11.216  20.971  0.00  0.00    +0.000 C 
ATOM      7  C   UNL     1      -0.679  11.605  22.449  0.00  0.00    +0.000 C 
ATOM      8  C   UNL     1      -1.159  10.479  23.365  0.00  0.00    +0.000 C 
ATOM      9  C   UNL     1      -0.465   9.156  23.041  0.00  0.00    +0.000 C 
ATOM     10  C   UNL     1      -0.573   8.813  21.555  0.00  0.00    +0.000 C 
ATOM     11  N   UNL     1       1.353   8.591  19.567  0.00  0.00    +0.000 NA
ATOM     12  C   UNL     1       2.256   8.466  18.604  0.00  0.00    +0.000 A 
ATOM     13  N   UNL     1       2.899   7.261  18.476  0.00  0.00    +0.000 N 
ATOM     14  C   UNL     1       2.522   6.106  19.288  0.00  0.00    +0.000 C 
ATOM     15  C   UNL     1       3.799   5.336  19.670  0.00  0.00    +0.000 C 
ATOM     16  O   UNL     1       4.570   4.976  18.509  0.00  0.00    +0.000 OA
ATOM     17  C   UNL     1       4.944   6.153  17.768  0.00  0.00    +0.000 C 
ATOM     18  C   UNL     1       3.711   6.945  17.305  0.00  0.00    +0.000 C 
ATOM     19  N   UNL     1       2.610   9.474  17.812  0.00  0.00    +0.000 NA
ATOM     20  H   UNL     1       3.271  11.448  16.768  0.00  0.00    +0.000 HD
ENDROOT
BRANCH   1  22
ATOM     21  C   UNL     1       3.337  13.429  18.335  0.00  0.00    +0.000 C 
ATOM     22  N   UNL     1       2.283  12.987  17.725  0.00  0.00    +0.000 NA
BRANCH  21  25
ATOM     23  C   UNL     1       4.455  16.921  19.303  0.00  0.00    +0.000 A 
ATOM     24  C   UNL     1       4.450  15.633  18.748  0.00  0.00    +0.000 A 
ATOM     25  C   UNL     1       3.374  14.775  18.953  0.00  0.00    +0.000 A 
ATOM     26  C   UNL     1       2.302  15.194  19.740  0.00  0.00    +0.000 A 
ATOM     27  C   UNL     1       2.279  16.477  20.315  0.00  0.00    +0.000 A 
ATOM     28  C   UNL     1       3.358  17.350  20.079  0.00  0.00    +0.000 A 
BRANCH  23  30
ATOM     29  C   UNL     1       6.815  17.269  19.641  0.00  0.00    +0.000 C 
ATOM     30  O   UNL     1       5.602  17.604  18.987  0.00  0.00    +0.000 OA
ENDBRANCH  23  30
BRANCH  27  31
ATOM     31  O   UNL     1       1.128  16.668  21.029  0.00  0.00    +0.000 OA
ATOM     32  C   UNL     1       0.869  15.980  22.239  0.00  0.00    +0.000 C 
ENDBRANCH  27  31
BRANCH  28  33
ATOM     33  O   UNL     1       3.363  18.631  20.556  0.00  0.00    +0.000 OA
ATOM     34  H   UNL     1       4.281  18.912  20.661  0.00  0.00    +0.000 HD
ENDBRANCH  28  33
ENDBRANCH  21  25
ENDBRANCH   1  22
TORSDOF 5
ENDMDL
