MODEL 1
REMARK VINA RESULT:      -8.3      0.000      0.000
REMARK  Name = 
REMARK  7 active torsions:
REMARK  status: ('A' for Active; 'I' for Inactive)
REMARK    1  A    between atoms: C_1  and  C_2
REMARK    2  A    between atoms: C_5  and  C_7
REMARK    3  A    between atoms: C_12  and  N_13
REMARK    4  A    between atoms: C_19  and  N_20
REMARK    5  A    between atoms: N_21  and  C_22
REMARK    6  A    between atoms: C_27  and  C_28
REMARK    7  A    between atoms: C_28  and  O_30
REMARK                            x       y       z     vdW  Elec       q    Type
REMARK                         _______ _______ _______ _____ _____    ______ ____
ROOT
ATOM      1  C   UNL     1       0.253   9.395  22.659  0.00  0.00    +0.000 C 
ATOM      2  C   UNL     1       0.676   9.555  21.240  0.00  0.00    +0.000 C 
ATOM      3  N   UNL     1       1.269   8.616  20.582  0.00  0.00    +0.000 NA
ATOM      4  N   UNL     1       1.603   9.132  19.338  0.00  0.00    +0.000 N 
ATOM      5  C   UNL     1       2.221   8.327  18.367  0.00  0.00    +0.000 C 
ATOM      6  O   UNL     1       2.473   8.685  17.218  0.00  0.00    +0.000 OA
ATOM      7  C   UNL     1       1.190  10.477  19.177  0.00  0.00    +0.000 C 
ATOM      8  O   UNL     1       1.352  11.244  18.241  0.00  0.00    +0.000 OA
ATOM      9  C   UNL     1       0.447  10.804  20.454  0.00  0.00    +0.000 C 
ENDROOT
BRANCH   5  10
ATOM     10  C   UNL     1       2.555   6.911  18.729  0.00  0.00    +0.000 A 
ATOM     11  C   UNL     1       1.695   6.105  19.489  0.00  0.00    +0.000 A 
ATOM     12  C   UNL     1       2.015   4.775  19.750  0.00  0.00    +0.000 A 
ATOM     13 CL   UNL     1       0.898   3.791  20.612  0.00  0.00    +0.000 Cl
ATOM     14  C   UNL     1       3.220   4.238  19.316  0.00  0.00    +0.000 A 
ATOM     15  C   UNL     1       4.110   5.055  18.605  0.00  0.00    +0.000 A 
ATOM     16  C   UNL     1       3.785   6.388  18.304  0.00  0.00    +0.000 A 
BRANCH  15  17
ATOM     17  N   UNL     1       5.397   4.499  18.172  0.00  0.00    +0.000 N 
ATOM     18  O   UNL     1       5.495   4.136  16.992  0.00  0.00    +0.000 OA
ATOM     19  O   UNL     1       6.307   4.431  19.010  0.00  0.00    +0.000 OA
ENDBRANCH  15  17
ENDBRANCH   5  10
BRANCH   9  20
ATOM     20  N   UNL     1      -0.977  10.869  20.124  0.00  0.00    +0.000 NA
ATOM     21  N   UNL     1      -1.285  11.818  19.377  0.00  0.00    +0.000 NA
BRANCH  21  22
ATOM     22  C   UNL     1      -2.672  11.834  19.074  0.00  0.00    +0.000 A 
ATOM     23  C   UNL     1      -3.630  12.347  19.973  0.00  0.00    +0.000 A 
ATOM     24  C   UNL     1      -4.996  12.319  19.681  0.00  0.00    +0.000 A 
ATOM     25  C   UNL     1      -5.438  11.774  18.483  0.00  0.00    +0.000 A 
ATOM     26  C   UNL     1      -4.513  11.267  17.571  0.00  0.00    +0.000 A 
ATOM     27  C   UNL     1      -3.136  11.286  17.862  0.00  0.00    +0.000 A 
BRANCH  27  28
ATOM     28  C   UNL     1      -2.236  10.735  16.816  0.00  0.00    +0.000 C 
ATOM     29  O   UNL     1      -2.430  10.915  15.625  0.00  0.00    +0.000 OA
BRANCH  28  30
ATOM     30  O   UNL     1      -1.227   9.964  17.277  0.00  0.00    +0.000 OA
ATOM     31  H   UNL     1      -0.342  10.240  16.975  0.00  0.00    +0.000 HD
ENDBRANCH  28  30
ENDBRANCH  27  28
ENDBRANCH  21  22
ENDBRANCH   9  20
TORSDOF 6
ENDMDL
MODEL 2
REMARK VINA RESULT:      -8.0      0.986      1.118
REMARK  Name = 
REMARK  7 active torsions:
REMARK  status: ('A' for Active; 'I' for Inactive)
REMARK    1  A    between atoms: C_1  and  C_2
REMARK    2  A    between atoms: C_5  and  C_7
REMARK    3  A    between atoms: C_12  and  N_13
REMARK    4  A    between atoms: C_19  and  N_20
REMARK    5  A    between atoms: N_21  and  C_22
REMARK    6  A    between atoms: C_27  and  C_28
REMARK    7  A    between atoms: C_28  and  O_30
REMARK                            x       y       z     vdW  Elec       q    Type
REMARK                         _______ _______ _______ _____ _____    ______ ____
ROOT
ATOM      1  C   UNL     1      -0.420   9.225  22.475  0.00  0.00    +0.000 C 
ATOM      2  C   UNL     1       0.130   9.636  21.154  0.00  0.00    +0.000 C 
ATOM      3  N   UNL     1       0.898   8.871  20.453  0.00  0.00    +0.000 NA
ATOM      4  N   UNL     1       1.300   9.597  19.341  0.00  0.00    +0.000 N 
ATOM      5  C   UNL     1       2.110   9.013  18.353  0.00  0.00    +0.000 C 
ATOM      6  O   UNL     1       2.438   9.560  17.303  0.00  0.00    +0.000 OA
ATOM      7  C   UNL     1       0.748  10.900  19.312  0.00  0.00    +0.000 C 
ATOM      8  O   UNL     1       0.916  11.809  18.515  0.00  0.00    +0.000 OA
ATOM      9  C   UNL     1      -0.162  10.956  20.521  0.00  0.00    +0.000 C 
ENDROOT
BRANCH   5  10
ATOM     10  C   UNL     1       2.571   7.601  18.560  0.00  0.00    +0.000 A 
ATOM     11  C   UNL     1       2.212   6.849  19.688  0.00  0.00    +0.000 A 
ATOM     12  C   UNL     1       2.610   5.519  19.811  0.00  0.00    +0.000 A 
ATOM     13 CL   UNL     1       2.079   4.600  21.164  0.00  0.00    +0.000 Cl
ATOM     14  C   UNL     1       3.421   4.931  18.850  0.00  0.00    +0.000 A 
ATOM     15  C   UNL     1       3.832   5.696  17.749  0.00  0.00    +0.000 A 
ATOM     16  C   UNL     1       3.409   7.026  17.594  0.00  0.00    +0.000 A 
BRANCH  15  17
ATOM     17  N   UNL     1       4.715   5.087  16.747  0.00  0.00    +0.000 N 
ATOM     18  O   UNL     1       4.832   3.855  16.760  0.00  0.00    +0.000 OA
ATOM     19  O   UNL     1       5.287   5.842  15.948  0.00  0.00    +0.000 OA
ENDBRANCH  15  17
ENDBRANCH   5  10
BRANCH   9  20
ATOM     20  N   UNL     1      -1.539  10.921  20.029  0.00  0.00    +0.000 NA
ATOM     21  N   UNL     1      -2.014  12.043  19.760  0.00  0.00    +0.000 NA
BRANCH  21  22
ATOM     22  C   UNL     1      -3.347  11.959  19.276  0.00  0.00    +0.000 A 
ATOM     23  C   UNL     1      -4.458  12.289  20.079  0.00  0.00    +0.000 A 
ATOM     24  C   UNL     1      -5.766  12.162  19.606  0.00  0.00    +0.000 A 
ATOM     25  C   UNL     1      -5.995  11.699  18.316  0.00  0.00    +0.000 A 
ATOM     26  C   UNL     1      -4.915  11.373  17.497  0.00  0.00    +0.000 A 
ATOM     27  C   UNL     1      -3.596  11.492  17.970  0.00  0.00    +0.000 A 
BRANCH  27  28
ATOM     28  C   UNL     1      -2.518  11.133  17.011  0.00  0.00    +0.000 C 
ATOM     29  O   UNL     1      -2.483  10.055  16.442  0.00  0.00    +0.000 OA
BRANCH  28  30
ATOM     30  O   UNL     1      -1.547  12.060  16.869  0.00  0.00    +0.000 OA
ATOM     31  H   UNL     1      -0.931  11.884  16.133  0.00  0.00    +0.000 HD
ENDBRANCH  28  30
ENDBRANCH  27  28
ENDBRANCH  21  22
ENDBRANCH   9  20
TORSDOF 6
ENDMDL
MODEL 3
REMARK VINA RESULT:      -7.8      1.691      2.186
REMARK  Name = 
REMARK  7 active torsions:
REMARK  status: ('A' for Active; 'I' for Inactive)
REMARK    1  A    between atoms: C_1  and  C_2
REMARK    2  A    between atoms: C_5  and  C_7
REMARK    3  A    between atoms: C_12  and  N_13
REMARK    4  A    between atoms: C_19  and  N_20
REMARK    5  A    between atoms: N_21  and  C_22
REMARK    6  A    between atoms: C_27  and  C_28
REMARK    7  A    between atoms: C_28  and  O_30
REMARK                            x       y       z     vdW  Elec       q    Type
REMARK                         _______ _______ _______ _____ _____    ______ ____
ROOT
ATOM      1  C   UNL     1       0.328   8.713  22.073  0.00  0.00    +0.000 C 
ATOM      2  C   UNL     1       0.851   9.016  20.713  0.00  0.00    +0.000 C 
ATOM      3  N   UNL     1       1.542   8.166  20.029  0.00  0.00    +0.000 NA
ATOM      4  N   UNL     1       1.946   8.804  18.865  0.00  0.00    +0.000 N 
ATOM      5  C   UNL     1       2.680   8.117  17.884  0.00  0.00    +0.000 C 
ATOM      6  O   UNL     1       3.001   8.585  16.794  0.00  0.00    +0.000 OA
ATOM      7  C   UNL     1       1.477  10.137  18.783  0.00  0.00    +0.000 C 
ATOM      8  O   UNL     1       1.671  10.990  17.931  0.00  0.00    +0.000 OA
ATOM      9  C   UNL     1       0.619  10.317  20.017  0.00  0.00    +0.000 C 
ENDROOT
BRANCH   5  10
ATOM     10  C   UNL     1       3.058   6.691  18.152  0.00  0.00    +0.000 A 
ATOM     11  C   UNL     1       2.109   5.660  18.222  0.00  0.00    +0.000 A 
ATOM     12  C   UNL     1       2.509   4.340  18.412  0.00  0.00    +0.000 A 
ATOM     13 CL   UNL     1       1.327   3.090  18.406  0.00  0.00    +0.000 Cl
ATOM     14  C   UNL     1       3.849   4.025  18.597  0.00  0.00    +0.000 A 
ATOM     15  C   UNL     1       4.796   5.058  18.587  0.00  0.00    +0.000 A 
ATOM     16  C   UNL     1       4.411   6.390  18.361  0.00  0.00    +0.000 A 
BRANCH  15  17
ATOM     17  N   UNL     1       6.209   4.732  18.813  0.00  0.00    +0.000 N 
ATOM     18  O   UNL     1       6.702   5.048  19.904  0.00  0.00    +0.000 OA
ATOM     19  O   UNL     1       6.822   4.159  17.901  0.00  0.00    +0.000 OA
ENDBRANCH  15  17
ENDBRANCH   5  10
BRANCH   9  20
ATOM     20  N   UNL     1      -0.776  10.346  19.577  0.00  0.00    +0.000 NA
ATOM     21  N   UNL     1      -1.181  11.475  19.238  0.00  0.00    +0.000 NA
BRANCH  21  22
ATOM     22  C   UNL     1      -2.534  11.452  18.807  0.00  0.00    +0.000 A 
ATOM     23  C   UNL     1      -2.936  10.785  17.631  0.00  0.00    +0.000 A 
ATOM     24  C   UNL     1      -4.262  10.806  17.195  0.00  0.00    +0.000 A 
ATOM     25  C   UNL     1      -5.222  11.495  17.925  0.00  0.00    +0.000 A 
ATOM     26  C   UNL     1      -4.855  12.155  19.097  0.00  0.00    +0.000 A 
ATOM     27  C   UNL     1      -3.519  12.145  19.538  0.00  0.00    +0.000 A 
BRANCH  27  28
ATOM     28  C   UNL     1      -3.240  12.867  20.806  0.00  0.00    +0.000 C 
ATOM     29  O   UNL     1      -3.668  13.988  21.028  0.00  0.00    +0.000 OA
BRANCH  28  30
ATOM     30  O   UNL     1      -2.423  12.221  21.665  0.00  0.00    +0.000 OA
ATOM     31  H   UNL     1      -1.535  12.032  21.307  0.00  0.00    +0.000 HD
ENDBRANCH  28  30
ENDBRANCH  27  28
ENDBRANCH  21  22
ENDBRANCH   9  20
TORSDOF 6
ENDMDL
MODEL 4
REMARK VINA RESULT:      -7.8      1.950      2.186
REMARK  Name = 
REMARK  7 active torsions:
REMARK  status: ('A' for Active; 'I' for Inactive)
REMARK    1  A    between atoms: C_1  and  C_2
REMARK    2  A    between atoms: C_5  and  C_7
REMARK    3  A    between atoms: C_12  and  N_13
REMARK    4  A    between atoms: C_19  and  N_20
REMARK    5  A    between atoms: N_21  and  C_22
REMARK    6  A    between atoms: C_27  and  C_28
REMARK    7  A    between atoms: C_28  and  O_30
REMARK                            x       y       z     vdW  Elec       q    Type
REMARK                         _______ _______ _______ _____ _____    ______ ____
ROOT
ATOM      1  C   UNL     1       0.317   9.161  22.424  0.00  0.00    +0.000 C 
ATOM      2  C   UNL     1       0.747   9.433  21.025  0.00  0.00    +0.000 C 
ATOM      3  N   UNL     1       1.396   8.570  20.317  0.00  0.00    +0.000 NA
ATOM      4  N   UNL     1       1.718   9.180  19.114  0.00  0.00    +0.000 N 
ATOM      5  C   UNL     1       2.389   8.472  18.103  0.00  0.00    +0.000 C 
ATOM      6  O   UNL     1       2.635   8.915  16.984  0.00  0.00    +0.000 OA
ATOM      7  C   UNL     1       1.238  10.510  19.032  0.00  0.00    +0.000 C 
ATOM      8  O   UNL     1       1.370  11.342  18.149  0.00  0.00    +0.000 OA
ATOM      9  C   UNL     1       0.463  10.716  20.316  0.00  0.00    +0.000 C 
ENDROOT
BRANCH   5  10
ATOM     10  C   UNL     1       2.791   7.055  18.380  0.00  0.00    +0.000 A 
ATOM     11  C   UNL     1       4.133   6.652  18.449  0.00  0.00    +0.000 A 
ATOM     12  C   UNL     1       4.465   5.338  18.771  0.00  0.00    +0.000 A 
ATOM     13 CL   UNL     1       6.120   4.900  18.933  0.00  0.00    +0.000 Cl
ATOM     14  C   UNL     1       3.473   4.386  18.968  0.00  0.00    +0.000 A 
ATOM     15  C   UNL     1       2.130   4.768  18.843  0.00  0.00    +0.000 A 
ATOM     16  C   UNL     1       1.781   6.098  18.555  0.00  0.00    +0.000 A 
BRANCH  15  17
ATOM     17  N   UNL     1       1.081   3.758  19.020  0.00  0.00    +0.000 N 
ATOM     18  O   UNL     1       0.466   3.754  20.095  0.00  0.00    +0.000 OA
ATOM     19  O   UNL     1       0.872   2.973  18.084  0.00  0.00    +0.000 OA
ENDBRANCH  15  17
ENDBRANCH   5  10
BRANCH   9  20
ATOM     20  N   UNL     1      -0.958  10.729  19.969  0.00  0.00    +0.000 NA
ATOM     21  N   UNL     1      -1.303  11.700  19.266  0.00  0.00    +0.000 NA
BRANCH  21  22
ATOM     22  C   UNL     1      -2.686  11.664  18.944  0.00  0.00    +0.000 A 
ATOM     23  C   UNL     1      -3.673  12.164  19.819  0.00  0.00    +0.000 A 
ATOM     24  C   UNL     1      -5.033  12.085  19.510  0.00  0.00    +0.000 A 
ATOM     25  C   UNL     1      -5.439  11.501  18.317  0.00  0.00    +0.000 A 
ATOM     26  C   UNL     1      -4.486  11.006  17.429  0.00  0.00    +0.000 A 
ATOM     27  C   UNL     1      -3.115  11.076  17.738  0.00  0.00    +0.000 A 
BRANCH  27  28
ATOM     28  C   UNL     1      -2.182  10.532  16.716  0.00  0.00    +0.000 C 
ATOM     29  O   UNL     1      -2.361  10.689  15.519  0.00  0.00    +0.000 OA
BRANCH  28  30
ATOM     30  O   UNL     1      -1.162   9.796  17.207  0.00  0.00    +0.000 OA
ATOM     31  H   UNL     1      -1.301   9.477  18.118  0.00  0.00    +0.000 HD
ENDBRANCH  28  30
ENDBRANCH  27  28
ENDBRANCH  21  22
ENDBRANCH   9  20
TORSDOF 6
ENDMDL
MODEL 5
REMARK VINA RESULT:      -7.7      1.611      2.181
REMARK  Name = 
REMARK  7 active torsions:
REMARK  status: ('A' for Active; 'I' for Inactive)
REMARK    1  A    between atoms: C_1  and  C_2
REMARK    2  A    between atoms: C_5  and  C_7
REMARK    3  A    between atoms: C_12  and  N_13
REMARK    4  A    between atoms: C_19  and  N_20
REMARK    5  A    between atoms: N_21  and  C_22
REMARK    6  A    between atoms: C_27  and  C_28
REMARK    7  A    between atoms: C_28  and  O_30
REMARK                            x       y       z     vdW  Elec       q    Type
REMARK                         _______ _______ _______ _____ _____    ______ ____
ROOT
ATOM      1  C   UNL     1      -0.304   9.112  22.318  0.00  0.00    +0.000 C 
ATOM      2  C   UNL     1       0.334   9.341  20.992  0.00  0.00    +0.000 C 
ATOM      3  N   UNL     1       1.054   8.445  20.404  0.00  0.00    +0.000 NA
ATOM      4  N   UNL     1       1.567   9.020  19.250  0.00  0.00    +0.000 N 
ATOM      5  C   UNL     1       2.357   8.272  18.362  0.00  0.00    +0.000 C 
ATOM      6  O   UNL     1       2.777   8.683  17.283  0.00  0.00    +0.000 OA
ATOM      7  C   UNL     1       1.142  10.359  19.073  0.00  0.00    +0.000 C 
ATOM      8  O   UNL     1       1.426  11.168  18.204  0.00  0.00    +0.000 OA
ATOM      9  C   UNL     1       0.194  10.615  20.225  0.00  0.00    +0.000 C 
ENDROOT
BRANCH   5  10
ATOM     10  C   UNL     1       2.674   6.852  18.721  0.00  0.00    +0.000 A 
ATOM     11  C   UNL     1       1.831   6.072  19.526  0.00  0.00    +0.000 A 
ATOM     12  C   UNL     1       2.131   4.737  19.785  0.00  0.00    +0.000 A 
ATOM     13 CL   UNL     1       1.031   3.786  20.704  0.00  0.00    +0.000 Cl
ATOM     14  C   UNL     1       3.302   4.168  19.302  0.00  0.00    +0.000 A 
ATOM     15  C   UNL     1       4.179   4.958  18.545  0.00  0.00    +0.000 A 
ATOM     16  C   UNL     1       3.871   6.296  18.247  0.00  0.00    +0.000 A 
BRANCH  15  17
ATOM     17  N   UNL     1       5.432   4.369  18.060  0.00  0.00    +0.000 N 
ATOM     18  O   UNL     1       6.381   4.310  18.852  0.00  0.00    +0.000 OA
ATOM     19  O   UNL     1       5.463   3.964  16.889  0.00  0.00    +0.000 OA
ENDBRANCH  15  17
ENDBRANCH   5  10
BRANCH   9  20
ATOM     20  N   UNL     1      -1.160  10.656  19.673  0.00  0.00    +0.000 NA
ATOM     21  N   UNL     1      -1.602  11.808  19.491  0.00  0.00    +0.000 NA
BRANCH  21  22
ATOM     22  C   UNL     1      -2.912  11.799  18.944  0.00  0.00    +0.000 A 
ATOM     23  C   UNL     1      -3.181  11.306  17.650  0.00  0.00    +0.000 A 
ATOM     24  C   UNL     1      -4.467  11.342  17.106  0.00  0.00    +0.000 A 
ATOM     25  C   UNL     1      -5.517  11.874  17.843  0.00  0.00    +0.000 A 
ATOM     26  C   UNL     1      -5.283  12.360  19.128  0.00  0.00    +0.000 A 
ATOM     27  C   UNL     1      -3.989  12.334  19.679  0.00  0.00    +0.000 A 
BRANCH  27  28
ATOM     28  C   UNL     1      -3.852  12.864  21.061  0.00  0.00    +0.000 C 
ATOM     29  O   UNL     1      -4.432  12.367  22.012  0.00  0.00    +0.000 OA
BRANCH  28  30
ATOM     30  O   UNL     1      -3.092  13.975  21.175  0.00  0.00    +0.000 OA
ATOM     31  H   UNL     1      -3.603  14.804  21.237  0.00  0.00    +0.000 HD
ENDBRANCH  28  30
ENDBRANCH  27  28
ENDBRANCH  21  22
ENDBRANCH   9  20
TORSDOF 6
ENDMDL
MODEL 6
REMARK VINA RESULT:      -7.7      3.736      5.018
REMARK  Name = 
REMARK  7 active torsions:
REMARK  status: ('A' for Active; 'I' for Inactive)
REMARK    1  A    between atoms: C_1  and  C_2
REMARK    2  A    between atoms: C_5  and  C_7
REMARK    3  A    between atoms: C_12  and  N_13
REMARK    4  A    between atoms: C_19  and  N_20
REMARK    5  A    between atoms: N_21  and  C_22
REMARK    6  A    between atoms: C_27  and  C_28
REMARK    7  A    between atoms: C_28  and  O_30
REMARK                            x       y       z     vdW  Elec       q    Type
REMARK                         _______ _______ _______ _____ _____    ______ ____
ROOT
ATOM      1  C   UNL     1      -1.763  10.565  17.841  0.00  0.00    +0.000 C 
ATOM      2  C   UNL     1      -1.019  10.543  19.130  0.00  0.00    +0.000 C 
ATOM      3  N   UNL     1      -0.204   9.592  19.446  0.00  0.00    +0.000 NA
ATOM      4  N   UNL     1       0.233   9.836  20.740  0.00  0.00    +0.000 N 
ATOM      5  C   UNL     1       1.177   8.995  21.352  0.00  0.00    +0.000 C 
ATOM      6  O   UNL     1       1.674   9.190  22.459  0.00  0.00    +0.000 OA
ATOM      7  C   UNL     1      -0.319  11.019  21.288  0.00  0.00    +0.000 C 
ATOM      8  O   UNL     1      -0.187  11.510  22.398  0.00  0.00    +0.000 OA
ATOM      9  C   UNL     1      -1.141  11.613  20.164  0.00  0.00    +0.000 C 
ENDROOT
BRANCH   5  10
ATOM     10  C   UNL     1       1.660   7.799  20.588  0.00  0.00    +0.000 A 
ATOM     11  C   UNL     1       2.362   7.911  19.379  0.00  0.00    +0.000 A 
ATOM     12  C   UNL     1       2.848   6.777  18.732  0.00  0.00    +0.000 A 
ATOM     13 CL   UNL     1       3.780   6.956  17.298  0.00  0.00    +0.000 Cl
ATOM     14  C   UNL     1       2.593   5.509  19.239  0.00  0.00    +0.000 A 
ATOM     15  C   UNL     1       1.841   5.387  20.416  0.00  0.00    +0.000 A 
ATOM     16  C   UNL     1       1.376   6.524  21.098  0.00  0.00    +0.000 A 
BRANCH  15  17
ATOM     17  N   UNL     1       1.544   4.048  20.938  0.00  0.00    +0.000 N 
ATOM     18  O   UNL     1       2.148   3.683  21.955  0.00  0.00    +0.000 OA
ATOM     19  O   UNL     1       0.705   3.367  20.331  0.00  0.00    +0.000 OA
ENDBRANCH  15  17
ENDBRANCH   5  10
BRANCH   9  20
ATOM     20  N   UNL     1      -0.423  12.790  19.675  0.00  0.00    +0.000 NA
ATOM     21  N   UNL     1      -0.528  13.793  20.408  0.00  0.00    +0.000 NA
BRANCH  21  22
ATOM     22  C   UNL     1       0.194  14.906  19.900  0.00  0.00    +0.000 A 
ATOM     23  C   UNL     1      -0.325  15.738  18.887  0.00  0.00    +0.000 A 
ATOM     24  C   UNL     1       0.412  16.804  18.366  0.00  0.00    +0.000 A 
ATOM     25  C   UNL     1       1.690  17.063  18.846  0.00  0.00    +0.000 A 
ATOM     26  C   UNL     1       2.225  16.263  19.854  0.00  0.00    +0.000 A 
ATOM     27  C   UNL     1       1.490  15.183  20.377  0.00  0.00    +0.000 A 
BRANCH  27  28
ATOM     28  C   UNL     1       2.148  14.403  21.459  0.00  0.00    +0.000 C 
ATOM     29  O   UNL     1       2.599  14.930  22.463  0.00  0.00    +0.000 OA
BRANCH  28  30
ATOM     30  O   UNL     1       2.270  13.081  21.217  0.00  0.00    +0.000 OA
ATOM     31  H   UNL     1       1.452  12.570  21.361  0.00  0.00    +0.000 HD
ENDBRANCH  28  30
ENDBRANCH  27  28
ENDBRANCH  21  22
ENDBRANCH   9  20
TORSDOF 6
ENDMDL
MODEL 7
REMARK VINA RESULT:      -7.6      2.060      2.297
REMARK  Name = 
REMARK  7 active torsions:
REMARK  status: ('A' for Active; 'I' for Inactive)
REMARK    1  A    between atoms: C_1  and  C_2
REMARK    2  A    between atoms: C_5  and  C_7
REMARK    3  A    between atoms: C_12  and  N_13
REMARK    4  A    between atoms: C_19  and  N_20
REMARK    5  A    between atoms: N_21  and  C_22
REMARK    6  A    between atoms: C_27  and  C_28
REMARK    7  A    between atoms: C_28  and  O_30
REMARK                            x       y       z     vdW  Elec       q    Type
REMARK                         _______ _______ _______ _____ _____    ______ ____
ROOT
ATOM      1  C   UNL     1       0.396   9.384  22.709  0.00  0.00    +0.000 C 
ATOM      2  C   UNL     1       0.745   9.736  21.305  0.00  0.00    +0.000 C 
ATOM      3  N   UNL     1       1.340   8.911  20.509  0.00  0.00    +0.000 NA
ATOM      4  N   UNL     1       1.596   9.591  19.327  0.00  0.00    +0.000 N 
ATOM      5  C   UNL     1       2.197   8.939  18.237  0.00  0.00    +0.000 C 
ATOM      6  O   UNL     1       2.380   9.447  17.133  0.00  0.00    +0.000 OA
ATOM      7  C   UNL     1       1.127  10.926  19.353  0.00  0.00    +0.000 C 
ATOM      8  O   UNL     1       1.216  11.809  18.515  0.00  0.00    +0.000 OA
ATOM      9  C   UNL     1       0.433  11.061  20.692  0.00  0.00    +0.000 C 
ENDROOT
BRANCH   5  10
ATOM     10  C   UNL     1       2.598   7.505  18.404  0.00  0.00    +0.000 A 
ATOM     11  C   UNL     1       3.561   6.892  17.588  0.00  0.00    +0.000 A 
ATOM     12  C   UNL     1       3.950   5.574  17.817  0.00  0.00    +0.000 A 
ATOM     13 CL   UNL     1       5.195   4.881  16.853  0.00  0.00    +0.000 Cl
ATOM     14  C   UNL     1       3.350   4.822  18.818  0.00  0.00    +0.000 A 
ATOM     15  C   UNL     1       2.346   5.410  19.599  0.00  0.00    +0.000 A 
ATOM     16  C   UNL     1       1.968   6.749  19.403  0.00  0.00    +0.000 A 
BRANCH  15  17
ATOM     17  N   UNL     1       1.687   4.608  20.637  0.00  0.00    +0.000 N 
ATOM     18  O   UNL     1       0.538   4.208  20.409  0.00  0.00    +0.000 OA
ATOM     19  O   UNL     1       2.322   4.377  21.676  0.00  0.00    +0.000 OA
ENDBRANCH  15  17
ENDBRANCH   5  10
BRANCH   9  20
ATOM     20  N   UNL     1      -1.006  11.107  20.433  0.00  0.00    +0.000 NA
ATOM     21  N   UNL     1      -1.459  12.256  20.268  0.00  0.00    +0.000 NA
BRANCH  21  22
ATOM     22  C   UNL     1      -2.855  12.250  20.008  0.00  0.00    +0.000 A 
ATOM     23  C   UNL     1      -3.803  12.587  20.996  0.00  0.00    +0.000 A 
ATOM     24  C   UNL     1      -5.176  12.537  20.740  0.00  0.00    +0.000 A 
ATOM     25  C   UNL     1      -5.634  12.146  19.489  0.00  0.00    +0.000 A 
ATOM     26  C   UNL     1      -4.719  11.816  18.490  0.00  0.00    +0.000 A 
ATOM     27  C   UNL     1      -3.336  11.858  18.743  0.00  0.00    +0.000 A 
BRANCH  27  28
ATOM     28  C   UNL     1      -2.448  11.501  17.605  0.00  0.00    +0.000 C 
ATOM     29  O   UNL     1      -2.553  10.447  17.000  0.00  0.00    +0.000 OA
BRANCH  28  30
ATOM     30  O   UNL     1      -1.475  12.398  17.336  0.00  0.00    +0.000 OA
ATOM     31  H   UNL     1      -1.779  13.324  17.319  0.00  0.00    +0.000 HD
ENDBRANCH  28  30
ENDBRANCH  27  28
ENDBRANCH  21  22
ENDBRANCH   9  20
TORSDOF 6
ENDMDL
MODEL 8
REMARK VINA RESULT:      -7.6      2.477      2.901
REMARK  Name = 
REMARK  7 active torsions:
REMARK  status: ('A' for Active; 'I' for Inactive)
REMARK    1  A    between atoms: C_1  and  C_2
REMARK    2  A    between atoms: C_5  and  C_7
REMARK    3  A    between atoms: C_12  and  N_13
REMARK    4  A    between atoms: C_19  and  N_20
REMARK    5  A    between atoms: N_21  and  C_22
REMARK    6  A    between atoms: C_27  and  C_28
REMARK    7  A    between atoms: C_28  and  O_30
REMARK                            x       y       z     vdW  Elec       q    Type
REMARK                         _______ _______ _______ _____ _____    ______ ____
ROOT
ATOM      1  C   UNL     1       0.256   8.896  22.113  0.00  0.00    +0.000 C 
ATOM      2  C   UNL     1       0.782   9.156  20.745  0.00  0.00    +0.000 C 
ATOM      3  N   UNL     1       1.471   8.283  20.088  0.00  0.00    +0.000 NA
ATOM      4  N   UNL     1       1.879   8.885  18.906  0.00  0.00    +0.000 N 
ATOM      5  C   UNL     1       2.612   8.166  17.947  0.00  0.00    +0.000 C 
ATOM      6  O   UNL     1       2.937   8.600  16.844  0.00  0.00    +0.000 OA
ATOM      7  C   UNL     1       1.416  10.217  18.783  0.00  0.00    +0.000 C 
ATOM      8  O   UNL     1       1.614  11.043  17.907  0.00  0.00    +0.000 OA
ATOM      9  C   UNL     1       0.557  10.437  20.011  0.00  0.00    +0.000 C 
ENDROOT
BRANCH   5  10
ATOM     10  C   UNL     1       2.984   6.747  18.259  0.00  0.00    +0.000 A 
ATOM     11  C   UNL     1       4.315   6.305  18.285  0.00  0.00    +0.000 A 
ATOM     12  C   UNL     1       4.621   4.994  18.641  0.00  0.00    +0.000 A 
ATOM     13 CL   UNL     1       6.268   4.510  18.748  0.00  0.00    +0.000 Cl
ATOM     14  C   UNL     1       3.611   4.081  18.915  0.00  0.00    +0.000 A 
ATOM     15  C   UNL     1       2.276   4.500  18.833  0.00  0.00    +0.000 A 
ATOM     16  C   UNL     1       1.954   5.829  18.511  0.00  0.00    +0.000 A 
BRANCH  15  17
ATOM     17  N   UNL     1       1.206   3.530  19.092  0.00  0.00    +0.000 N 
ATOM     18  O   UNL     1       0.893   2.764  18.172  0.00  0.00    +0.000 OA
ATOM     19  O   UNL     1       0.684   3.533  20.216  0.00  0.00    +0.000 OA
ENDBRANCH  15  17
ENDBRANCH   5  10
BRANCH   9  20
ATOM     20  N   UNL     1      -0.837  10.458  19.568  0.00  0.00    +0.000 NA
ATOM     21  N   UNL     1      -1.245  11.583  19.219  0.00  0.00    +0.000 NA
BRANCH  21  22
ATOM     22  C   UNL     1      -2.597  11.553  18.786  0.00  0.00    +0.000 A 
ATOM     23  C   UNL     1      -2.993  10.886  17.608  0.00  0.00    +0.000 A 
ATOM     24  C   UNL     1      -4.319  10.899  17.169  0.00  0.00    +0.000 A 
ATOM     25  C   UNL     1      -5.283  11.582  17.900  0.00  0.00    +0.000 A 
ATOM     26  C   UNL     1      -4.923  12.242  19.073  0.00  0.00    +0.000 A 
ATOM     27  C   UNL     1      -3.588  12.239  19.516  0.00  0.00    +0.000 A 
BRANCH  27  28
ATOM     28  C   UNL     1      -3.315  12.961  20.787  0.00  0.00    +0.000 C 
ATOM     29  O   UNL     1      -3.782  14.062  21.025  0.00  0.00    +0.000 OA
BRANCH  28  30
ATOM     30  O   UNL     1      -2.459  12.339  21.626  0.00  0.00    +0.000 OA
ATOM     31  H   UNL     1      -1.530  12.621  21.531  0.00  0.00    +0.000 HD
ENDBRANCH  28  30
ENDBRANCH  27  28
ENDBRANCH  21  22
ENDBRANCH   9  20
TORSDOF 6
ENDMDL
MODEL 9
REMARK VINA RESULT:      -7.5      3.645      5.294
REMARK  Name = 
REMARK  7 active torsions:
REMARK  status: ('A' for Active; 'I' for Inactive)
REMARK    1  A    between atoms: C_1  and  C_2
REMARK    2  A    between atoms: C_5  and  C_7
REMARK    3  A    between atoms: C_12  and  N_13
REMARK    4  A    between atoms: C_19  and  N_20
REMARK    5  A    between atoms: N_21  and  C_22
REMARK    6  A    between atoms: C_27  and  C_28
REMARK    7  A    between atoms: C_28  and  O_30
REMARK                            x       y       z     vdW  Elec       q    Type
REMARK                         _______ _______ _______ _____ _____    ______ ____
ROOT
ATOM      1  C   UNL     1      -1.314  10.458  17.617  0.00  0.00    +0.000 C 
ATOM      2  C   UNL     1      -0.646  10.391  18.946  0.00  0.00    +0.000 C 
ATOM      3  N   UNL     1       0.089   9.392  19.305  0.00  0.00    +0.000 NA
ATOM      4  N   UNL     1       0.468   9.610  20.622  0.00  0.00    +0.000 N 
ATOM      5  C   UNL     1       1.322   8.713  21.284  0.00  0.00    +0.000 C 
ATOM      6  O   UNL     1       1.768   8.878  22.417  0.00  0.00    +0.000 OA
ATOM      7  C   UNL     1      -0.038  10.827  21.140  0.00  0.00    +0.000 C 
ATOM      8  O   UNL     1       0.063  11.310  22.257  0.00  0.00    +0.000 OA
ATOM      9  C   UNL     1      -0.757  11.469  19.973  0.00  0.00    +0.000 C 
ENDROOT
BRANCH   5  10
ATOM     10  C   UNL     1       1.771   7.488  20.545  0.00  0.00    +0.000 A 
ATOM     11  C   UNL     1       2.476   7.553  19.335  0.00  0.00    +0.000 A 
ATOM     12  C   UNL     1       2.929   6.392  18.713  0.00  0.00    +0.000 A 
ATOM     13 CL   UNL     1       3.865   6.514  17.275  0.00  0.00    +0.000 Cl
ATOM     14  C   UNL     1       2.638   5.144  19.246  0.00  0.00    +0.000 A 
ATOM     15  C   UNL     1       1.884   5.068  20.425  0.00  0.00    +0.000 A 
ATOM     16  C   UNL     1       1.451   6.232  21.082  0.00  0.00    +0.000 A 
BRANCH  15  17
ATOM     17  N   UNL     1       1.549   3.750  20.975  0.00  0.00    +0.000 N 
ATOM     18  O   UNL     1       0.759   3.046  20.333  0.00  0.00    +0.000 OA
ATOM     19  O   UNL     1       2.079   3.420  22.046  0.00  0.00    +0.000 OA
ENDBRANCH  15  17
ENDBRANCH   5  10
BRANCH   9  20
ATOM     20  N   UNL     1       0.059  12.598  19.527  0.00  0.00    +0.000 NA
ATOM     21  N   UNL     1       1.248  12.547  19.900  0.00  0.00    +0.000 NA
BRANCH  21  22
ATOM     22  C   UNL     1       2.004  13.655  19.433  0.00  0.00    +0.000 A 
ATOM     23  C   UNL     1       2.322  13.825  18.070  0.00  0.00    +0.000 A 
ATOM     24  C   UNL     1       3.103  14.896  17.629  0.00  0.00    +0.000 A 
ATOM     25  C   UNL     1       3.586  15.824  18.542  0.00  0.00    +0.000 A 
ATOM     26  C   UNL     1       3.279  15.686  19.895  0.00  0.00    +0.000 A 
ATOM     27  C   UNL     1       2.500  14.606  20.347  0.00  0.00    +0.000 A 
BRANCH  27  28
ATOM     28  C   UNL     1       2.221  14.561  21.806  0.00  0.00    +0.000 C 
ATOM     29  O   UNL     1       3.073  14.812  22.643  0.00  0.00    +0.000 OA
BRANCH  28  30
ATOM     30  O   UNL     1       0.976  14.158  22.138  0.00  0.00    +0.000 OA
ATOM     31  H   UNL     1       0.460  14.819  22.636  0.00  0.00    +0.000 HD
ENDBRANCH  28  30
ENDBRANCH  27  28
ENDBRANCH  21  22
ENDBRANCH   9  20
TORSDOF 6
ENDMDL
