MODEL 1
REMARK VINA RESULT:      -7.9      0.000      0.000
REMARK  Name = 
REMARK  11 active torsions:
REMARK  status: ('A' for Active; 'I' for Inactive)
REMARK    1  A    between atoms: C_1  and  C_2
REMARK    2  A    between atoms: C_5  and  N_6
REMARK    3  A    between atoms: C_12  and  N_13
REMARK    4  A    between atoms: N_13  and  C_14
REMARK    5  A    between atoms: N_13  and  S_21
REMARK    6  A    between atoms: C_14  and  C_15
REMARK    7  A    between atoms: C_15  and  N_16
REMARK    8  A    between atoms: S_21  and  N_24
REMARK    9  A    between atoms: N_24  and  C_25
REMARK   10  A    between atoms: N_24  and  C_26
REMARK   11  A    between atoms: C_28  and  C_29
REMARK                            x       y       z     vdW  Elec       q    Type
REMARK                         _______ _______ _______ _____ _____    ______ ____
ROOT
ATOM      1  N   UNL     1       2.793   7.021  18.768  0.00  0.00    +0.000 N 
ATOM      2  C   UNL     1       2.356   8.301  18.557  0.00  0.00    +0.000 C 
ATOM      3  O   UNL     1       2.540   8.957  17.525  0.00  0.00    +0.000 OA
ATOM      4  N   UNL     1       1.596   8.841  19.572  0.00  0.00    +0.000 N 
ATOM      5  C   UNL     1       1.216   8.347  20.872  0.00  0.00    +0.000 C 
ATOM      6  C   UNL     1      -0.056   9.122  21.177  0.00  0.00    +0.000 C 
ATOM      7  C   UNL     1       0.144  10.508  20.547  0.00  0.00    +0.000 C 
ATOM      8  C   UNL     1       1.073  10.165  19.385  0.00  0.00    +0.000 C 
ATOM      9  H   UNL     1       2.355   6.561  19.543  0.00  0.00    +0.000 HD
ENDROOT
BRANCH   1  14
ATOM     10  C   UNL     1       5.848   3.722  15.175  0.00  0.00    +0.000 C 
ATOM     11  C   UNL     1       5.029   4.589  16.083  0.00  0.00    +0.000 A 
ATOM     12  C   UNL     1       5.371   5.920  16.288  0.00  0.00    +0.000 A 
ATOM     13  C   UNL     1       4.631   6.713  17.168  0.00  0.00    +0.000 A 
ATOM     14  C   UNL     1       3.519   6.212  17.860  0.00  0.00    +0.000 A 
ATOM     15  C   UNL     1       3.141   4.871  17.633  0.00  0.00    +0.000 A 
ATOM     16  C   UNL     1       1.945   4.197  18.253  0.00  0.00    +0.000 C 
ATOM     17  C   UNL     1       3.911   4.078  16.750  0.00  0.00    +0.000 A 
ENDBRANCH   1  14
BRANCH   7  18
ATOM     18  N   UNL     1      -1.133  11.207  20.117  0.00  0.00    +0.000 NA
BRANCH  18  19
ATOM     19  S   UNL     1      -1.481  12.692  20.956  0.00  0.00    +0.000 S 
ATOM     20  O   UNL     1      -0.387  12.959  21.890  0.00  0.00    +0.000 OA
ATOM     21  O   UNL     1      -1.879  13.692  20.012  0.00  0.00    +0.000 OA
BRANCH  19  22
ATOM     22  N   UNL     1      -2.856  12.318  21.913  0.00  0.00    +0.000 NA
ATOM     23  C   UNL     1      -2.655  12.003  23.343  0.00  0.00    +0.000 C 
ATOM     24  C   UNL     1      -3.873  13.406  21.832  0.00  0.00    +0.000 C 
ENDBRANCH  19  22
ENDBRANCH  18  19
BRANCH  18  25
ATOM     25  C   UNL     1      -1.478  11.301  18.643  0.00  0.00    +0.000 C 
BRANCH  25  26
ATOM     26  C   UNL     1      -1.723  10.006  17.857  0.00  0.00    +0.000 C 
BRANCH  26  27
ATOM     27  N   UNL     1      -3.092   9.671  17.398  0.00  0.00    +0.000 NA
ATOM     28  C   UNL     1      -3.102   9.637  15.914  0.00  0.00    +0.000 C 
ATOM     29  C   UNL     1      -3.382  11.073  15.501  0.00  0.00    +0.000 C 
ATOM     30  C   UNL     1      -4.458  11.465  16.488  0.00  0.00    +0.000 C 
ATOM     31  C   UNL     1      -4.132  10.659  17.751  0.00  0.00    +0.000 C 
ENDBRANCH  26  27
ENDBRANCH  25  26
ENDBRANCH  18  25
ENDBRANCH   7  18
TORSDOF 7
ENDMDL
MODEL 2
REMARK VINA RESULT:      -7.9      1.766      2.385
REMARK  Name = 
REMARK  11 active torsions:
REMARK  status: ('A' for Active; 'I' for Inactive)
REMARK    1  A    between atoms: C_1  and  C_2
REMARK    2  A    between atoms: C_5  and  N_6
REMARK    3  A    between atoms: C_12  and  N_13
REMARK    4  A    between atoms: N_13  and  C_14
REMARK    5  A    between atoms: N_13  and  S_21
REMARK    6  A    between atoms: C_14  and  C_15
REMARK    7  A    between atoms: C_15  and  N_16
REMARK    8  A    between atoms: S_21  and  N_24
REMARK    9  A    between atoms: N_24  and  C_25
REMARK   10  A    between atoms: N_24  and  C_26
REMARK   11  A    between atoms: C_28  and  C_29
REMARK                            x       y       z     vdW  Elec       q    Type
REMARK                         _______ _______ _______ _____ _____    ______ ____
ROOT
ATOM      1  N   UNL     1       1.936   7.666  20.379  0.00  0.00    +0.000 N 
ATOM      2  C   UNL     1       1.402   8.884  20.054  0.00  0.00    +0.000 C 
ATOM      3  O   UNL     1       1.338   9.353  18.911  0.00  0.00    +0.000 OA
ATOM      4  N   UNL     1       0.839   9.580  21.101  0.00  0.00    +0.000 N 
ATOM      5  C   UNL     1       0.758   9.314  22.516  0.00  0.00    +0.000 C 
ATOM      6  C   UNL     1      -0.462  10.112  22.947  0.00  0.00    +0.000 C 
ATOM      7  C   UNL     1      -0.464  11.370  22.067  0.00  0.00    +0.000 C 
ATOM      8  C   UNL     1       0.224  10.845  20.810  0.00  0.00    +0.000 C 
ATOM      9  H   UNL     1       1.689   7.341  21.294  0.00  0.00    +0.000 HD
ENDROOT
BRANCH   1  14
ATOM     10  C   UNL     1       4.356   3.843  16.820  0.00  0.00    +0.000 C 
ATOM     11  C   UNL     1       3.697   4.840  17.725  0.00  0.00    +0.000 A 
ATOM     12  C   UNL     1       3.943   6.200  17.580  0.00  0.00    +0.000 A 
ATOM     13  C   UNL     1       3.360   7.122  18.452  0.00  0.00    +0.000 A 
ATOM     14  C   UNL     1       2.501   6.721  19.487  0.00  0.00    +0.000 A 
ATOM     15  C   UNL     1       2.215   5.346  19.621  0.00  0.00    +0.000 A 
ATOM     16  C   UNL     1       1.275   4.758  20.641  0.00  0.00    +0.000 C 
ATOM     17  C   UNL     1       2.827   4.425  18.739  0.00  0.00    +0.000 A 
ENDBRANCH   1  14
BRANCH   7  18
ATOM     18  N   UNL     1      -1.836  11.966  21.804  0.00  0.00    +0.000 NA
BRANCH  18  19
ATOM     19  S   UNL     1      -2.553  12.795  23.157  0.00  0.00    +0.000 S 
ATOM     20  O   UNL     1      -3.426  11.855  23.861  0.00  0.00    +0.000 OA
ATOM     21  O   UNL     1      -1.538  13.507  23.873  0.00  0.00    +0.000 OA
BRANCH  19  22
ATOM     22  N   UNL     1      -3.581  13.963  22.432  0.00  0.00    +0.000 NA
ATOM     23  C   UNL     1      -5.013  13.964  22.796  0.00  0.00    +0.000 C 
ATOM     24  C   UNL     1      -3.060  15.342  22.656  0.00  0.00    +0.000 C 
ENDBRANCH  19  22
ENDBRANCH  18  19
BRANCH  18  25
ATOM     25  C   UNL     1      -2.103  12.689  20.499  0.00  0.00    +0.000 C 
BRANCH  25  26
ATOM     26  C   UNL     1      -2.996  12.013  19.450  0.00  0.00    +0.000 C 
BRANCH  26  27
ATOM     27  N   UNL     1      -2.560  11.962  18.033  0.00  0.00    +0.000 NA
ATOM     28  C   UNL     1      -3.657  11.384  17.218  0.00  0.00    +0.000 C 
ATOM     29  C   UNL     1      -3.429   9.883  17.278  0.00  0.00    +0.000 C 
ATOM     30  C   UNL     1      -1.927   9.800  17.116  0.00  0.00    +0.000 C 
ATOM     31  C   UNL     1      -1.401  11.086  17.765  0.00  0.00    +0.000 C 
ENDBRANCH  26  27
ENDBRANCH  25  26
ENDBRANCH  18  25
ENDBRANCH   7  18
TORSDOF 7
ENDMDL
MODEL 3
REMARK VINA RESULT:      -7.7      0.996      1.250
REMARK  Name = 
REMARK  11 active torsions:
REMARK  status: ('A' for Active; 'I' for Inactive)
REMARK    1  A    between atoms: C_1  and  C_2
REMARK    2  A    between atoms: C_5  and  N_6
REMARK    3  A    between atoms: C_12  and  N_13
REMARK    4  A    between atoms: N_13  and  C_14
REMARK    5  A    between atoms: N_13  and  S_21
REMARK    6  A    between atoms: C_14  and  C_15
REMARK    7  A    between atoms: C_15  and  N_16
REMARK    8  A    between atoms: S_21  and  N_24
REMARK    9  A    between atoms: N_24  and  C_25
REMARK   10  A    between atoms: N_24  and  C_26
REMARK   11  A    between atoms: C_28  and  C_29
REMARK                            x       y       z     vdW  Elec       q    Type
REMARK                         _______ _______ _______ _____ _____    ______ ____
ROOT
ATOM      1  N   UNL     1       2.736   7.101  18.837  0.00  0.00    +0.000 N 
ATOM      2  C   UNL     1       2.284   8.363  18.559  0.00  0.00    +0.000 C 
ATOM      3  O   UNL     1       2.470   8.970  17.497  0.00  0.00    +0.000 OA
ATOM      4  N   UNL     1       1.505   8.941  19.537  0.00  0.00    +0.000 N 
ATOM      5  C   UNL     1       1.117   8.505  20.856  0.00  0.00    +0.000 C 
ATOM      6  C   UNL     1      -0.169   9.276  21.109  0.00  0.00    +0.000 C 
ATOM      7  C   UNL     1       0.018  10.632  20.413  0.00  0.00    +0.000 C 
ATOM      8  C   UNL     1       0.966  10.246  19.280  0.00  0.00    +0.000 C 
ATOM      9  H   UNL     1       2.296   6.674  19.629  0.00  0.00    +0.000 HD
ENDROOT
BRANCH   1  14
ATOM     10  C   UNL     1       5.874   3.664  15.449  0.00  0.00    +0.000 C 
ATOM     11  C   UNL     1       5.036   4.568  16.303  0.00  0.00    +0.000 A 
ATOM     12  C   UNL     1       5.424   5.883  16.533  0.00  0.00    +0.000 A 
ATOM     13  C   UNL     1       4.663   6.709  17.364  0.00  0.00    +0.000 A 
ATOM     14  C   UNL     1       3.484   6.259  17.978  0.00  0.00    +0.000 A 
ATOM     15  C   UNL     1       3.062   4.938  17.723  0.00  0.00    +0.000 A 
ATOM     16  C   UNL     1       1.798   4.319  18.259  0.00  0.00    +0.000 C 
ATOM     17  C   UNL     1       3.853   4.109  16.892  0.00  0.00    +0.000 A 
ENDBRANCH   1  14
BRANCH   7  18
ATOM     18  N   UNL     1      -1.264  11.289  19.935  0.00  0.00    +0.000 NA
BRANCH  18  19
ATOM     19  S   UNL     1      -1.750  12.699  20.834  0.00  0.00    +0.000 S 
ATOM     20  O   UNL     1      -1.744  13.848  19.926  0.00  0.00    +0.000 OA
ATOM     21  O   UNL     1      -2.921  12.397  21.600  0.00  0.00    +0.000 OA
BRANCH  19  22
ATOM     22  N   UNL     1      -0.465  12.950  21.942  0.00  0.00    +0.000 NA
ATOM     23  C   UNL     1       0.647  13.839  21.543  0.00  0.00    +0.000 C 
ATOM     24  C   UNL     1      -0.980  13.438  23.254  0.00  0.00    +0.000 C 
ENDBRANCH  19  22
ENDBRANCH  18  19
BRANCH  18  25
ATOM     25  C   UNL     1      -1.513  11.459  18.449  0.00  0.00    +0.000 C 
BRANCH  25  26
ATOM     26  C   UNL     1      -1.660  10.205  17.577  0.00  0.00    +0.000 C 
BRANCH  26  27
ATOM     27  N   UNL     1      -3.011   9.709  17.222  0.00  0.00    +0.000 NA
ATOM     28  C   UNL     1      -3.151   9.727  15.744  0.00  0.00    +0.000 C 
ATOM     29  C   UNL     1      -3.649  11.127  15.424  0.00  0.00    +0.000 C 
ATOM     30  C   UNL     1      -4.672  11.340  16.517  0.00  0.00    +0.000 C 
ATOM     31  C   UNL     1      -4.132  10.539  17.708  0.00  0.00    +0.000 C 
ENDBRANCH  26  27
ENDBRANCH  25  26
ENDBRANCH  18  25
ENDBRANCH   7  18
TORSDOF 7
ENDMDL
MODEL 4
REMARK VINA RESULT:      -7.7      1.251      1.591
REMARK  Name = 
REMARK  11 active torsions:
REMARK  status: ('A' for Active; 'I' for Inactive)
REMARK    1  A    between atoms: C_1  and  C_2
REMARK    2  A    between atoms: C_5  and  N_6
REMARK    3  A    between atoms: C_12  and  N_13
REMARK    4  A    between atoms: N_13  and  C_14
REMARK    5  A    between atoms: N_13  and  S_21
REMARK    6  A    between atoms: C_14  and  C_15
REMARK    7  A    between atoms: C_15  and  N_16
REMARK    8  A    between atoms: S_21  and  N_24
REMARK    9  A    between atoms: N_24  and  C_25
REMARK   10  A    between atoms: N_24  and  C_26
REMARK   11  A    between atoms: C_28  and  C_29
REMARK                            x       y       z     vdW  Elec       q    Type
REMARK                         _______ _______ _______ _____ _____    ______ ____
ROOT
ATOM      1  N   UNL     1       2.669   6.903  18.987  0.00  0.00    +0.000 N 
ATOM      2  C   UNL     1       2.290   8.216  18.906  0.00  0.00    +0.000 C 
ATOM      3  O   UNL     1       2.534   8.972  17.958  0.00  0.00    +0.000 OA
ATOM      4  N   UNL     1       1.516   8.673  19.950  0.00  0.00    +0.000 N 
ATOM      5  C   UNL     1       1.072   8.056  21.176  0.00  0.00    +0.000 C 
ATOM      6  C   UNL     1      -0.178   8.845  21.526  0.00  0.00    +0.000 C 
ATOM      7  C   UNL     1       0.096  10.282  21.059  0.00  0.00    +0.000 C 
ATOM      8  C   UNL     1       1.051  10.030  19.895  0.00  0.00    +0.000 C 
ATOM      9  H   UNL     1       2.187   6.380  19.693  0.00  0.00    +0.000 HD
ENDROOT
BRANCH   1  14
ATOM     10  C   UNL     1       5.726   3.905  15.140  0.00  0.00    +0.000 C 
ATOM     11  C   UNL     1       4.906   4.694  16.115  0.00  0.00    +0.000 A 
ATOM     12  C   UNL     1       5.208   6.025  16.379  0.00  0.00    +0.000 A 
ATOM     13  C   UNL     1       4.468   6.744  17.321  0.00  0.00    +0.000 A 
ATOM     14  C   UNL     1       3.395   6.168  18.017  0.00  0.00    +0.000 A 
ATOM     15  C   UNL     1       3.057   4.829  17.731  0.00  0.00    +0.000 A 
ATOM     16  C   UNL     1       1.905   4.081  18.349  0.00  0.00    +0.000 C 
ATOM     17  C   UNL     1       3.827   4.109  16.786  0.00  0.00    +0.000 A 
ENDBRANCH   1  14
BRANCH   7  18
ATOM     18  N   UNL     1      -1.138  11.077  20.670  0.00  0.00    +0.000 NA
BRANCH  18  19
ATOM     19  S   UNL     1      -1.618  12.302  21.811  0.00  0.00    +0.000 S 
ATOM     20  O   UNL     1      -3.072  12.455  21.737  0.00  0.00    +0.000 OA
ATOM     21  O   UNL     1      -0.985  12.055  23.071  0.00  0.00    +0.000 OA
BRANCH  19  22
ATOM     22  N   UNL     1      -0.945  13.748  21.176  0.00  0.00    +0.000 NA
ATOM     23  C   UNL     1      -1.833  14.914  20.987  0.00  0.00    +0.000 C 
ATOM     24  C   UNL     1       0.218  14.197  21.994  0.00  0.00    +0.000 C 
ENDBRANCH  19  22
ENDBRANCH  18  19
BRANCH  18  25
ATOM     25  C   UNL     1      -1.309  11.546  19.239  0.00  0.00    +0.000 C 
BRANCH  25  26
ATOM     26  C   UNL     1      -2.720  11.873  18.732  0.00  0.00    +0.000 C 
BRANCH  26  27
ATOM     27  N   UNL     1      -3.552  10.804  18.129  0.00  0.00    +0.000 NA
ATOM     28  C   UNL     1      -2.659   9.831  17.453  0.00  0.00    +0.000 C 
ATOM     29  C   UNL     1      -2.472  10.391  16.052  0.00  0.00    +0.000 C 
ATOM     30  C   UNL     1      -3.877  10.841  15.718  0.00  0.00    +0.000 C 
ATOM     31  C   UNL     1      -4.477  11.253  17.067  0.00  0.00    +0.000 C 
ENDBRANCH  26  27
ENDBRANCH  25  26
ENDBRANCH  18  25
ENDBRANCH   7  18
TORSDOF 7
ENDMDL
MODEL 5
REMARK VINA RESULT:      -7.4      1.511      2.006
REMARK  Name = 
REMARK  11 active torsions:
REMARK  status: ('A' for Active; 'I' for Inactive)
REMARK    1  A    between atoms: C_1  and  C_2
REMARK    2  A    between atoms: C_5  and  N_6
REMARK    3  A    between atoms: C_12  and  N_13
REMARK    4  A    between atoms: N_13  and  C_14
REMARK    5  A    between atoms: N_13  and  S_21
REMARK    6  A    between atoms: C_14  and  C_15
REMARK    7  A    between atoms: C_15  and  N_16
REMARK    8  A    between atoms: S_21  and  N_24
REMARK    9  A    between atoms: N_24  and  C_25
REMARK   10  A    between atoms: N_24  and  C_26
REMARK   11  A    between atoms: C_28  and  C_29
REMARK                            x       y       z     vdW  Elec       q    Type
REMARK                         _______ _______ _______ _____ _____    ______ ____
ROOT
ATOM      1  N   UNL     1       2.610   7.119  18.809  0.00  0.00    +0.000 N 
ATOM      2  C   UNL     1       2.266   8.426  18.587  0.00  0.00    +0.000 C 
ATOM      3  O   UNL     1       2.553   9.077  17.576  0.00  0.00    +0.000 OA
ATOM      4  N   UNL     1       1.479   9.003  19.560  0.00  0.00    +0.000 N 
ATOM      5  C   UNL     1       0.989   8.522  20.828  0.00  0.00    +0.000 C 
ATOM      6  C   UNL     1      -0.249   9.371  21.064  0.00  0.00    +0.000 C 
ATOM      7  C   UNL     1       0.074  10.748  20.463  0.00  0.00    +0.000 C 
ATOM      8  C   UNL     1       1.051  10.358  19.357  0.00  0.00    +0.000 C 
ATOM      9  H   UNL     1       2.097   6.681  19.550  0.00  0.00    +0.000 HD
ENDROOT
BRANCH   1  14
ATOM     10  C   UNL     1       5.681   3.677  15.365  0.00  0.00    +0.000 C 
ATOM     11  C   UNL     1       4.858   4.581  16.234  0.00  0.00    +0.000 A 
ATOM     12  C   UNL     1       5.209   5.916  16.398  0.00  0.00    +0.000 A 
ATOM     13  C   UNL     1       4.465   6.744  17.242  0.00  0.00    +0.000 A 
ATOM     14  C   UNL     1       3.340   6.274  17.937  0.00  0.00    +0.000 A 
ATOM     15  C   UNL     1       2.954   4.930  17.751  0.00  0.00    +0.000 A 
ATOM     16  C   UNL     1       1.746   4.286  18.379  0.00  0.00    +0.000 C 
ATOM     17  C   UNL     1       3.728   4.101  16.904  0.00  0.00    +0.000 A 
ENDBRANCH   1  14
BRANCH   7  18
ATOM     18  N   UNL     1      -1.130  11.527  19.964  0.00  0.00    +0.000 NA
BRANCH  18  19
ATOM     19  S   UNL     1      -0.866  13.235  19.748  0.00  0.00    +0.000 S 
ATOM     20  O   UNL     1      -0.511  13.471  18.348  0.00  0.00    +0.000 OA
ATOM     21  O   UNL     1      -1.940  13.964  20.350  0.00  0.00    +0.000 OA
BRANCH  19  22
ATOM     22  N   UNL     1       0.548  13.557  20.667  0.00  0.00    +0.000 NA
ATOM     23  C   UNL     1       1.646  14.314  20.030  0.00  0.00    +0.000 C 
ATOM     24  C   UNL     1       0.206  14.250  21.943  0.00  0.00    +0.000 C 
ENDBRANCH  19  22
ENDBRANCH  18  19
BRANCH  18  25
ATOM     25  C   UNL     1      -1.993  10.950  18.860  0.00  0.00    +0.000 C 
BRANCH  25  26
ATOM     26  C   UNL     1      -3.373  11.570  18.602  0.00  0.00    +0.000 C 
BRANCH  26  27
ATOM     27  N   UNL     1      -4.388  10.813  17.831  0.00  0.00    +0.000 NA
ATOM     28  C   UNL     1      -4.773  11.610  16.640  0.00  0.00    +0.000 C 
ATOM     29  C   UNL     1      -5.901  12.505  17.127  0.00  0.00    +0.000 C 
ATOM     30  C   UNL     1      -6.704  11.544  17.974  0.00  0.00    +0.000 C 
ATOM     31  C   UNL     1      -5.662  10.570  18.539  0.00  0.00    +0.000 C 
ENDBRANCH  26  27
ENDBRANCH  25  26
ENDBRANCH  18  25
ENDBRANCH   7  18
TORSDOF 7
ENDMDL
MODEL 6
REMARK VINA RESULT:      -7.4      0.933      1.112
REMARK  Name = 
REMARK  11 active torsions:
REMARK  status: ('A' for Active; 'I' for Inactive)
REMARK    1  A    between atoms: C_1  and  C_2
REMARK    2  A    between atoms: C_5  and  N_6
REMARK    3  A    between atoms: C_12  and  N_13
REMARK    4  A    between atoms: N_13  and  C_14
REMARK    5  A    between atoms: N_13  and  S_21
REMARK    6  A    between atoms: C_14  and  C_15
REMARK    7  A    between atoms: C_15  and  N_16
REMARK    8  A    between atoms: S_21  and  N_24
REMARK    9  A    between atoms: N_24  and  C_25
REMARK   10  A    between atoms: N_24  and  C_26
REMARK   11  A    between atoms: C_28  and  C_29
REMARK                            x       y       z     vdW  Elec       q    Type
REMARK                         _______ _______ _______ _____ _____    ______ ____
ROOT
ATOM      1  N   UNL     1       2.654   6.771  18.998  0.00  0.00    +0.000 N 
ATOM      2  C   UNL     1       2.380   8.113  18.991  0.00  0.00    +0.000 C 
ATOM      3  O   UNL     1       2.723   8.906  18.105  0.00  0.00    +0.000 OA
ATOM      4  N   UNL     1       1.600   8.563  20.033  0.00  0.00    +0.000 N 
ATOM      5  C   UNL     1       1.058   7.906  21.197  0.00  0.00    +0.000 C 
ATOM      6  C   UNL     1      -0.142   8.769  21.551  0.00  0.00    +0.000 C 
ATOM      7  C   UNL     1       0.261  10.206  21.191  0.00  0.00    +0.000 C 
ATOM      8  C   UNL     1       1.244   9.954  20.051  0.00  0.00    +0.000 C 
ATOM      9  H   UNL     1       2.104   6.245  19.649  0.00  0.00    +0.000 HD
ENDROOT
BRANCH   1  14
ATOM     10  C   UNL     1       5.643   3.807  15.072  0.00  0.00    +0.000 C 
ATOM     11  C   UNL     1       4.839   4.586  16.069  0.00  0.00    +0.000 A 
ATOM     12  C   UNL     1       5.122   5.925  16.314  0.00  0.00    +0.000 A 
ATOM     13  C   UNL     1       4.399   6.637  17.274  0.00  0.00    +0.000 A 
ATOM     14  C   UNL     1       3.362   6.044  18.011  0.00  0.00    +0.000 A 
ATOM     15  C   UNL     1       3.043   4.696  17.745  0.00  0.00    +0.000 A 
ATOM     16  C   UNL     1       1.927   3.929  18.406  0.00  0.00    +0.000 C 
ATOM     17  C   UNL     1       3.795   3.985  16.780  0.00  0.00    +0.000 A 
ENDBRANCH   1  14
BRANCH   7  18
ATOM     18  N   UNL     1      -0.890  11.119  20.810  0.00  0.00    +0.000 NA
BRANCH  18  19
ATOM     19  S   UNL     1      -1.446  12.176  22.078  0.00  0.00    +0.000 S 
ATOM     20  O   UNL     1      -2.036  11.354  23.135  0.00  0.00    +0.000 OA
ATOM     21  O   UNL     1      -0.422  13.125  22.392  0.00  0.00    +0.000 OA
BRANCH  19  22
ATOM     22  N   UNL     1      -2.742  13.042  21.359  0.00  0.00    +0.000 NA
ATOM     23  C   UNL     1      -4.120  12.744  21.800  0.00  0.00    +0.000 C 
ATOM     24  C   UNL     1      -2.536  14.514  21.492  0.00  0.00    +0.000 C 
ENDBRANCH  19  22
ENDBRANCH  18  19
BRANCH  18  25
ATOM     25  C   UNL     1      -0.882  11.816  19.464  0.00  0.00    +0.000 C 
BRANCH  25  26
ATOM     26  C   UNL     1      -1.490  11.093  18.255  0.00  0.00    +0.000 C 
BRANCH  26  27
ATOM     27  N   UNL     1      -2.888  10.604  18.315  0.00  0.00    +0.000 NA
ATOM     28  C   UNL     1      -3.108   9.651  17.198  0.00  0.00    +0.000 C 
ATOM     29  C   UNL     1      -3.529  10.524  16.028  0.00  0.00    +0.000 C 
ATOM     30  C   UNL     1      -4.475  11.494  16.700  0.00  0.00    +0.000 C 
ATOM     31  C   UNL     1      -3.924  11.640  18.124  0.00  0.00    +0.000 C 
ENDBRANCH  26  27
ENDBRANCH  25  26
ENDBRANCH  18  25
ENDBRANCH   7  18
TORSDOF 7
ENDMDL
MODEL 7
REMARK VINA RESULT:      -7.4      3.912      9.259
REMARK  Name = 
REMARK  11 active torsions:
REMARK  status: ('A' for Active; 'I' for Inactive)
REMARK    1  A    between atoms: C_1  and  C_2
REMARK    2  A    between atoms: C_5  and  N_6
REMARK    3  A    between atoms: C_12  and  N_13
REMARK    4  A    between atoms: N_13  and  C_14
REMARK    5  A    between atoms: N_13  and  S_21
REMARK    6  A    between atoms: C_14  and  C_15
REMARK    7  A    between atoms: C_15  and  N_16
REMARK    8  A    between atoms: S_21  and  N_24
REMARK    9  A    between atoms: N_24  and  C_25
REMARK   10  A    between atoms: N_24  and  C_26
REMARK   11  A    between atoms: C_28  and  C_29
REMARK                            x       y       z     vdW  Elec       q    Type
REMARK                         _______ _______ _______ _____ _____    ______ ____
ROOT
ATOM      1  N   UNL     1       1.512  10.825  19.502  0.00  0.00    +0.000 N 
ATOM      2  C   UNL     1       1.731   9.783  18.641  0.00  0.00    +0.000 C 
ATOM      3  O   UNL     1       2.065   9.894  17.455  0.00  0.00    +0.000 OA
ATOM      4  N   UNL     1       1.629   8.526  19.197  0.00  0.00    +0.000 N 
ATOM      5  C   UNL     1       1.261   8.072  20.515  0.00  0.00    +0.000 C 
ATOM      6  C   UNL     1       1.932   6.711  20.610  0.00  0.00    +0.000 C 
ATOM      7  C   UNL     1       1.876   6.123  19.192  0.00  0.00    +0.000 C 
ATOM      8  C   UNL     1       1.893   7.397  18.351  0.00  0.00    +0.000 C 
ATOM      9  H   UNL     1       1.491  10.561  20.468  0.00  0.00    +0.000 HD
ENDROOT
BRANCH   1  14
ATOM     10  C   UNL     1       1.952  16.411  18.182  0.00  0.00    +0.000 C 
ATOM     11  C   UNL     1       1.854  14.962  18.557  0.00  0.00    +0.000 A 
ATOM     12  C   UNL     1       2.817  14.055  18.130  0.00  0.00    +0.000 A 
ATOM     13  C   UNL     1       2.699  12.699  18.446  0.00  0.00    +0.000 A 
ATOM     14  C   UNL     1       1.630  12.206  19.210  0.00  0.00    +0.000 A 
ATOM     15  C   UNL     1       0.667  13.124  19.679  0.00  0.00    +0.000 A 
ATOM     16  C   UNL     1      -0.508  12.768  20.552  0.00  0.00    +0.000 C 
ATOM     17  C   UNL     1       0.793  14.491  19.336  0.00  0.00    +0.000 A 
ENDBRANCH   1  14
BRANCH   7  18
ATOM     18  N   UNL     1       2.997   5.157  18.854  0.00  0.00    +0.000 NA
BRANCH  18  19
ATOM     19  S   UNL     1       2.559   3.867  17.770  0.00  0.00    +0.000 S 
ATOM     20  O   UNL     1       1.160   4.049  17.382  0.00  0.00    +0.000 OA
ATOM     21  O   UNL     1       3.569   3.722  16.766  0.00  0.00    +0.000 OA
BRANCH  19  22
ATOM     22  N   UNL     1       2.611   2.461  18.753  0.00  0.00    +0.000 NA
ATOM     23  C   UNL     1       3.660   1.455  18.489  0.00  0.00    +0.000 C 
ATOM     24  C   UNL     1       2.690   2.825  20.197  0.00  0.00    +0.000 C 
ENDBRANCH  19  22
ENDBRANCH  18  19
BRANCH  18  25
ATOM     25  C   UNL     1       4.385   5.691  18.557  0.00  0.00    +0.000 C 
BRANCH  25  26
ATOM     26  C   UNL     1       5.572   5.151  19.365  0.00  0.00    +0.000 C 
BRANCH  26  27
ATOM     27  N   UNL     1       6.850   4.842  18.679  0.00  0.00    +0.000 NA
ATOM     28  C   UNL     1       7.855   5.866  19.062  0.00  0.00    +0.000 C 
ATOM     29  C   UNL     1       7.658   6.990  18.058  0.00  0.00    +0.000 C 
ATOM     30  C   UNL     1       7.477   6.215  16.772  0.00  0.00    +0.000 C 
ATOM     31  C   UNL     1       6.803   4.908  17.204  0.00  0.00    +0.000 C 
ENDBRANCH  26  27
ENDBRANCH  25  26
ENDBRANCH  18  25
ENDBRANCH   7  18
TORSDOF 7
ENDMDL
MODEL 8
REMARK VINA RESULT:      -7.4      3.353      9.296
REMARK  Name = 
REMARK  11 active torsions:
REMARK  status: ('A' for Active; 'I' for Inactive)
REMARK    1  A    between atoms: C_1  and  C_2
REMARK    2  A    between atoms: C_5  and  N_6
REMARK    3  A    between atoms: C_12  and  N_13
REMARK    4  A    between atoms: N_13  and  C_14
REMARK    5  A    between atoms: N_13  and  S_21
REMARK    6  A    between atoms: C_14  and  C_15
REMARK    7  A    between atoms: C_15  and  N_16
REMARK    8  A    between atoms: S_21  and  N_24
REMARK    9  A    between atoms: N_24  and  C_25
REMARK   10  A    between atoms: N_24  and  C_26
REMARK   11  A    between atoms: C_28  and  C_29
REMARK                            x       y       z     vdW  Elec       q    Type
REMARK                         _______ _______ _______ _____ _____    ______ ____
ROOT
ATOM      1  N   UNL     1       0.450  10.210  20.154  0.00  0.00    +0.000 N 
ATOM      2  C   UNL     1       1.032   8.983  20.325  0.00  0.00    +0.000 C 
ATOM      3  O   UNL     1       0.807   8.211  21.265  0.00  0.00    +0.000 OA
ATOM      4  N   UNL     1       1.876   8.582  19.312  0.00  0.00    +0.000 N 
ATOM      5  C   UNL     1       2.337   9.237  18.114  0.00  0.00    +0.000 C 
ATOM      6  C   UNL     1       2.703   8.075  17.205  0.00  0.00    +0.000 C 
ATOM      7  C   UNL     1       3.245   6.979  18.133  0.00  0.00    +0.000 C 
ATOM      8  C   UNL     1       2.479   7.283  19.418  0.00  0.00    +0.000 C 
ATOM      9  H   UNL     1       0.555  10.588  19.232  0.00  0.00    +0.000 HD
ENDROOT
BRANCH   1  14
ATOM     10  C   UNL     1      -3.345  12.768  23.646  0.00  0.00    +0.000 C 
ATOM     11  C   UNL     1      -2.382  12.077  22.727  0.00  0.00    +0.000 A 
ATOM     12  C   UNL     1      -1.509  11.111  23.214  0.00  0.00    +0.000 A 
ATOM     13  C   UNL     1      -0.585  10.500  22.363  0.00  0.00    +0.000 A 
ATOM     14  C   UNL     1      -0.509  10.820  20.999  0.00  0.00    +0.000 A 
ATOM     15  C   UNL     1      -1.414  11.773  20.487  0.00  0.00    +0.000 A 
ATOM     16  C   UNL     1      -1.501  12.189  19.041  0.00  0.00    +0.000 C 
ATOM     17  C   UNL     1      -2.334  12.394  21.365  0.00  0.00    +0.000 A 
ENDBRANCH   1  14
BRANCH   7  18
ATOM     18  N   UNL     1       3.050   5.559  17.632  0.00  0.00    +0.000 NA
BRANCH  18  19
ATOM     19  S   UNL     1       4.439   4.522  17.792  0.00  0.00    +0.000 S 
ATOM     20  O   UNL     1       4.766   4.407  19.214  0.00  0.00    +0.000 OA
ATOM     21  O   UNL     1       4.250   3.344  17.002  0.00  0.00    +0.000 OA
BRANCH  19  22
ATOM     22  N   UNL     1       5.714   5.419  17.073  0.00  0.00    +0.000 NA
ATOM     23  C   UNL     1       7.106   4.989  17.321  0.00  0.00    +0.000 C 
ATOM     24  C   UNL     1       5.530   5.515  15.596  0.00  0.00    +0.000 C 
ENDBRANCH  19  22
ENDBRANCH  18  19
BRANCH  18  25
ATOM     25  C   UNL     1       1.762   4.823  17.944  0.00  0.00    +0.000 C 
BRANCH  25  26
ATOM     26  C   UNL     1       1.835   3.339  18.328  0.00  0.00    +0.000 C 
BRANCH  26  27
ATOM     27  N   UNL     1       1.130   2.856  19.540  0.00  0.00    +0.000 NA
ATOM     28  C   UNL     1       0.803   4.023  20.397  0.00  0.00    +0.000 C 
ATOM     29  C   UNL     1       2.035   4.217  21.266  0.00  0.00    +0.000 C 
ATOM     30  C   UNL     1       2.376   2.788  21.628  0.00  0.00    +0.000 C 
ATOM     31  C   UNL     1       1.923   1.968  20.415  0.00  0.00    +0.000 C 
ENDBRANCH  26  27
ENDBRANCH  25  26
ENDBRANCH  18  25
ENDBRANCH   7  18
TORSDOF 7
ENDMDL
MODEL 9
REMARK VINA RESULT:      -7.3      3.022      9.206
REMARK  Name = 
REMARK  11 active torsions:
REMARK  status: ('A' for Active; 'I' for Inactive)
REMARK    1  A    between atoms: C_1  and  C_2
REMARK    2  A    between atoms: C_5  and  N_6
REMARK    3  A    between atoms: C_12  and  N_13
REMARK    4  A    between atoms: N_13  and  C_14
REMARK    5  A    between atoms: N_13  and  S_21
REMARK    6  A    between atoms: C_14  and  C_15
REMARK    7  A    between atoms: C_15  and  N_16
REMARK    8  A    between atoms: S_21  and  N_24
REMARK    9  A    between atoms: N_24  and  C_25
REMARK   10  A    between atoms: N_24  and  C_26
REMARK   11  A    between atoms: C_28  and  C_29
REMARK                            x       y       z     vdW  Elec       q    Type
REMARK                         _______ _______ _______ _____ _____    ______ ____
ROOT
ATOM      1  N   UNL     1       0.383  10.063  19.110  0.00  0.00    +0.000 N 
ATOM      2  C   UNL     1       0.866   8.987  19.806  0.00  0.00    +0.000 C 
ATOM      3  O   UNL     1       0.411   8.568  20.877  0.00  0.00    +0.000 OA
ATOM      4  N   UNL     1       1.895   8.303  19.196  0.00  0.00    +0.000 N 
ATOM      5  C   UNL     1       2.632   8.536  17.979  0.00  0.00    +0.000 C 
ATOM      6  C   UNL     1       3.143   7.151  17.616  0.00  0.00    +0.000 C 
ATOM      7  C   UNL     1       3.427   6.451  18.953  0.00  0.00    +0.000 C 
ATOM      8  C   UNL     1       2.410   7.139  19.861  0.00  0.00    +0.000 C 
ATOM      9  H   UNL     1       0.701  10.114  18.162  0.00  0.00    +0.000 HD
ENDROOT
BRANCH   1  14
ATOM     10  C   UNL     1      -4.000  13.512  20.534  0.00  0.00    +0.000 C 
ATOM     11  C   UNL     1      -2.876  12.586  20.180  0.00  0.00    +0.000 A 
ATOM     12  C   UNL     1      -1.748  12.502  20.988  0.00  0.00    +0.000 A 
ATOM     13  C   UNL     1      -0.684  11.670  20.632  0.00  0.00    +0.000 A 
ATOM     14  C   UNL     1      -0.714  10.884  19.470  0.00  0.00    +0.000 A 
ATOM     15  C   UNL     1      -1.869  10.934  18.662  0.00  0.00    +0.000 A 
ATOM     16  C   UNL     1      -2.084  10.116  17.415  0.00  0.00    +0.000 C 
ATOM     17  C   UNL     1      -2.931  11.794  19.028  0.00  0.00    +0.000 A 
ENDBRANCH   1  14
BRANCH   7  18
ATOM     18  N   UNL     1       3.292   4.939  18.927  0.00  0.00    +0.000 NA
BRANCH  18  19
ATOM     19  S   UNL     1       1.978   4.331  17.959  0.00  0.00    +0.000 S 
ATOM     20  O   UNL     1       1.115   5.456  17.598  0.00  0.00    +0.000 OA
ATOM     21  O   UNL     1       2.494   3.467  16.942  0.00  0.00    +0.000 OA
BRANCH  19  22
ATOM     22  N   UNL     1       1.077   3.358  19.048  0.00  0.00    +0.000 NA
ATOM     23  C   UNL     1       1.187   1.888  18.936  0.00  0.00    +0.000 C 
ATOM     24  C   UNL     1       1.375   3.724  20.462  0.00  0.00    +0.000 C 
ENDBRANCH  19  22
ENDBRANCH  18  19
BRANCH  18  25
ATOM     25  C   UNL     1       4.532   4.077  18.793  0.00  0.00    +0.000 C 
BRANCH  25  26
ATOM     26  C   UNL     1       5.868   4.619  19.318  0.00  0.00    +0.000 C 
BRANCH  26  27
ATOM     27  N   UNL     1       7.052   4.652  18.425  0.00  0.00    +0.000 NA
ATOM     28  C   UNL     1       7.706   5.979  18.551  0.00  0.00    +0.000 C 
ATOM     29  C   UNL     1       6.992   6.856  17.535  0.00  0.00    +0.000 C 
ATOM     30  C   UNL     1       6.879   5.917  16.354  0.00  0.00    +0.000 C 
ATOM     31  C   UNL     1       6.754   4.525  16.983  0.00  0.00    +0.000 C 
ENDBRANCH  26  27
ENDBRANCH  25  26
ENDBRANCH  18  25
ENDBRANCH   7  18
TORSDOF 7
ENDMDL
