MODEL 1
REMARK VINA RESULT:      -7.0      0.000      0.000
REMARK  Name = 
REMARK  6 active torsions:
REMARK  status: ('A' for Active; 'I' for Inactive)
REMARK    1  A    between atoms: C_1  and  C_2
REMARK    2  A    between atoms: C_2  and  N_3
REMARK    3  A    between atoms: C_4  and  C_6
REMARK    4  A    between atoms: C_6  and  N_7
REMARK    5  A    between atoms: C_13  and  C_14
REMARK    6  A    between atoms: C_16  and  C_17
REMARK                            x       y       z     vdW  Elec       q    Type
REMARK                         _______ _______ _______ _____ _____    ______ ____
ROOT
ATOM      1  N   UNL     1       5.555   4.808  18.995  0.00  0.00    +0.000 NA
ATOM      2  C   UNL     1       4.918   3.757  18.162  0.00  0.00    +0.000 C 
ATOM      3  C   UNL     1       4.903   3.981  16.625  0.00  0.00    +0.000 C 
ATOM      4  N   UNL     1       6.252   4.293  16.131  0.00  0.00    +0.000 N 
ATOM      5  C   UNL     1       6.484   4.329  14.750  0.00  0.00    +0.000 A 
ATOM      6  C   UNL     1       5.878   3.440  13.873  0.00  0.00    +0.000 A 
ATOM      7  C   UNL     1       6.249   3.483  12.539  0.00  0.00    +0.000 A 
ATOM      8  C   UNL     1       5.680   2.518  11.542  0.00  0.00    +0.000 C 
ATOM      9  N   UNL     1       7.171   4.345  12.073  0.00  0.00    +0.000 NA
ATOM     10  C   UNL     1       7.719   5.169  12.977  0.00  0.00    +0.000 A 
ATOM     11  C   UNL     1       8.797   6.100  12.524  0.00  0.00    +0.000 C 
ATOM     12  N   UNL     1       7.406   5.191  14.284  0.00  0.00    +0.000 NA
ATOM     13  C   UNL     1       6.935   5.367  16.883  0.00  0.00    +0.000 C 
ATOM     14  C   UNL     1       6.892   5.095  18.408  0.00  0.00    +0.000 C 
ENDROOT
BRANCH   1  15
ATOM     15  C   UNL     1       4.758   6.055  19.056  0.00  0.00    +0.000 C 
BRANCH  15  17
ATOM     16  N   UNL     1       2.907   5.132  20.431  0.00  0.00    +0.000 N 
ATOM     17  C   UNL     1       3.260   5.820  19.289  0.00  0.00    +0.000 C 
ATOM     18  O   UNL     1       2.423   6.280  18.512  0.00  0.00    +0.000 OA
ATOM     19  H   UNL     1       3.655   4.828  21.049  0.00  0.00    +0.000 HD
BRANCH  16  21
ATOM     20  C   UNL     1       1.075   3.472  20.685  0.00  0.00    +0.000 C 
ATOM     21  C   UNL     1       1.510   4.923  20.744  0.00  0.00    +0.000 C 
ENDBRANCH  16  21
ENDBRANCH  15  17
ENDBRANCH   1  15
TORSDOF 3
ENDMDL
MODEL 2
REMARK VINA RESULT:      -7.0      2.161      7.717
REMARK  Name = 
REMARK  6 active torsions:
REMARK  status: ('A' for Active; 'I' for Inactive)
REMARK    1  A    between atoms: C_1  and  C_2
REMARK    2  A    between atoms: C_2  and  N_3
REMARK    3  A    between atoms: C_4  and  C_6
REMARK    4  A    between atoms: C_6  and  N_7
REMARK    5  A    between atoms: C_13  and  C_14
REMARK    6  A    between atoms: C_16  and  C_17
REMARK                            x       y       z     vdW  Elec       q    Type
REMARK                         _______ _______ _______ _____ _____    ______ ____
ROOT
ATOM      1  N   UNL     1       6.488   5.274  16.066  0.00  0.00    +0.000 NA
ATOM      2  C   UNL     1       5.867   6.582  16.393  0.00  0.00    +0.000 C 
ATOM      3  C   UNL     1       4.494   6.555  17.119  0.00  0.00    +0.000 C 
ATOM      4  N   UNL     1       4.551   5.692  18.308  0.00  0.00    +0.000 N 
ATOM      5  C   UNL     1       3.478   5.695  19.209  0.00  0.00    +0.000 A 
ATOM      6  C   UNL     1       2.779   6.851  19.525  0.00  0.00    +0.000 A 
ATOM      7  C   UNL     1       1.802   6.777  20.504  0.00  0.00    +0.000 A 
ATOM      8  C   UNL     1       1.043   7.995  20.941  0.00  0.00    +0.000 C 
ATOM      9  N   UNL     1       1.517   5.634  21.155  0.00  0.00    +0.000 NA
ATOM     10  C   UNL     1       2.236   4.559  20.803  0.00  0.00    +0.000 A 
ATOM     11  C   UNL     1       2.005   3.281  21.542  0.00  0.00    +0.000 C 
ATOM     12  N   UNL     1       3.193   4.552  19.859  0.00  0.00    +0.000 NA
ATOM     13  C   UNL     1       5.117   4.351  18.052  0.00  0.00    +0.000 C 
ATOM     14  C   UNL     1       6.471   4.449  17.304  0.00  0.00    +0.000 C 
ENDROOT
BRANCH   1  15
ATOM     15  C   UNL     1       5.783   4.559  14.979  0.00  0.00    +0.000 C 
BRANCH  15  17
ATOM     16  N   UNL     1       6.320   3.313  12.898  0.00  0.00    +0.000 N 
ATOM     17  C   UNL     1       6.620   4.392  13.704  0.00  0.00    +0.000 C 
ATOM     18  O   UNL     1       7.476   5.222  13.401  0.00  0.00    +0.000 OA
ATOM     19  H   UNL     1       5.565   2.699  13.193  0.00  0.00    +0.000 HD
BRANCH  16  21
ATOM     20  C   UNL     1       7.031   1.692  11.153  0.00  0.00    +0.000 C 
ATOM     21  C   UNL     1       7.031   3.124  11.652  0.00  0.00    +0.000 C 
ENDBRANCH  16  21
ENDBRANCH  15  17
ENDBRANCH   1  15
TORSDOF 3
ENDMDL
MODEL 3
REMARK VINA RESULT:      -6.6      2.528      7.571
REMARK  Name = 
REMARK  6 active torsions:
REMARK  status: ('A' for Active; 'I' for Inactive)
REMARK    1  A    between atoms: C_1  and  C_2
REMARK    2  A    between atoms: C_2  and  N_3
REMARK    3  A    between atoms: C_4  and  C_6
REMARK    4  A    between atoms: C_6  and  N_7
REMARK    5  A    between atoms: C_13  and  C_14
REMARK    6  A    between atoms: C_16  and  C_17
REMARK                            x       y       z     vdW  Elec       q    Type
REMARK                         _______ _______ _______ _____ _____    ______ ____
ROOT
ATOM      1  N   UNL     1       6.415   4.524  14.915  0.00  0.00    +0.000 NA
ATOM      2  C   UNL     1       6.198   5.865  15.513  0.00  0.00    +0.000 C 
ATOM      3  C   UNL     1       4.858   6.101  16.261  0.00  0.00    +0.000 C 
ATOM      4  N   UNL     1       4.621   5.043  17.253  0.00  0.00    +0.000 N 
ATOM      5  C   UNL     1       3.570   5.183  18.168  0.00  0.00    +0.000 A 
ATOM      6  C   UNL     1       3.235   6.408  18.728  0.00  0.00    +0.000 A 
ATOM      7  C   UNL     1       2.250   6.433  19.702  0.00  0.00    +0.000 A 
ATOM      8  C   UNL     1       1.872   7.709  20.394  0.00  0.00    +0.000 C 
ATOM      9  N   UNL     1       1.621   5.320  20.123  0.00  0.00    +0.000 NA
ATOM     10  C   UNL     1       2.001   4.173  19.543  0.00  0.00    +0.000 A 
ATOM     11  C   UNL     1       1.381   2.900  20.021  0.00  0.00    +0.000 C 
ATOM     12  N   UNL     1       2.941   4.070  18.588  0.00  0.00    +0.000 NA
ATOM     13  C   UNL     1       4.773   3.673  16.719  0.00  0.00    +0.000 C 
ATOM     14  C   UNL     1       6.118   3.513  15.964  0.00  0.00    +0.000 C 
ENDROOT
BRANCH   1  15
ATOM     15  C   UNL     1       5.563   4.278  13.729  0.00  0.00    +0.000 C 
BRANCH  15  17
ATOM     16  N   UNL     1       5.835   2.283  12.275  0.00  0.00    +0.000 N 
ATOM     17  C   UNL     1       6.285   3.549  12.589  0.00  0.00    +0.000 C 
ATOM     18  O   UNL     1       7.184   4.103  11.957  0.00  0.00    +0.000 OA
ATOM     19  H   UNL     1       5.054   1.913  12.812  0.00  0.00    +0.000 HD
BRANCH  16  21
ATOM     20  C   UNL     1       6.237   0.056  11.247  0.00  0.00    +0.000 C 
ATOM     21  C   UNL     1       6.433   1.558  11.175  0.00  0.00    +0.000 C 
ENDBRANCH  16  21
ENDBRANCH  15  17
ENDBRANCH   1  15
TORSDOF 3
ENDMDL
MODEL 4
REMARK VINA RESULT:      -6.4      2.018      3.567
REMARK  Name = 
REMARK  6 active torsions:
REMARK  status: ('A' for Active; 'I' for Inactive)
REMARK    1  A    between atoms: C_1  and  C_2
REMARK    2  A    between atoms: C_2  and  N_3
REMARK    3  A    between atoms: C_4  and  C_6
REMARK    4  A    between atoms: C_6  and  N_7
REMARK    5  A    between atoms: C_13  and  C_14
REMARK    6  A    between atoms: C_16  and  C_17
REMARK                            x       y       z     vdW  Elec       q    Type
REMARK                         _______ _______ _______ _____ _____    ______ ____
ROOT
ATOM      1  N   UNL     1       2.432   2.272  19.535  0.00  0.00    +0.000 NA
ATOM      2  C   UNL     1       2.714   1.923  18.120  0.00  0.00    +0.000 C 
ATOM      3  C   UNL     1       3.402   3.007  17.245  0.00  0.00    +0.000 C 
ATOM      4  N   UNL     1       4.610   3.521  17.907  0.00  0.00    +0.000 N 
ATOM      5  C   UNL     1       5.480   4.355  17.194  0.00  0.00    +0.000 A 
ATOM      6  C   UNL     1       5.753   4.163  15.847  0.00  0.00    +0.000 A 
ATOM      7  C   UNL     1       6.706   4.973  15.251  0.00  0.00    +0.000 A 
ATOM      8  C   UNL     1       7.096   4.788  13.814  0.00  0.00    +0.000 C 
ATOM      9  N   UNL     1       7.373   5.924  15.930  0.00  0.00    +0.000 NA
ATOM     10  C   UNL     1       7.063   6.049  17.228  0.00  0.00    +0.000 A 
ATOM     11  C   UNL     1       7.821   7.045  18.044  0.00  0.00    +0.000 C 
ATOM     12  N   UNL     1       6.146   5.306  17.874  0.00  0.00    +0.000 NA
ATOM     13  C   UNL     1       4.397   3.934  19.310  0.00  0.00    +0.000 C 
ATOM     14  C   UNL     1       3.685   2.820  20.119  0.00  0.00    +0.000 C 
ENDROOT
BRANCH   1  15
ATOM     15  C   UNL     1       1.340   3.263  19.676  0.00  0.00    +0.000 C 
BRANCH  15  17
ATOM     16  N   UNL     1       1.921   5.637  19.231  0.00  0.00    +0.000 N 
ATOM     17  C   UNL     1       1.811   4.635  20.174  0.00  0.00    +0.000 C 
ATOM     18  O   UNL     1       2.023   4.832  21.370  0.00  0.00    +0.000 OA
ATOM     19  H   UNL     1       1.680   5.409  18.270  0.00  0.00    +0.000 HD
BRANCH  16  21
ATOM     20  C   UNL     1       2.392   7.964  18.495  0.00  0.00    +0.000 C 
ATOM     21  C   UNL     1       2.306   6.971  19.638  0.00  0.00    +0.000 C 
ENDBRANCH  16  21
ENDBRANCH  15  17
ENDBRANCH   1  15
TORSDOF 3
ENDMDL
MODEL 5
REMARK VINA RESULT:      -6.3      2.862      7.471
REMARK  Name = 
REMARK  6 active torsions:
REMARK  status: ('A' for Active; 'I' for Inactive)
REMARK    1  A    between atoms: C_1  and  C_2
REMARK    2  A    between atoms: C_2  and  N_3
REMARK    3  A    between atoms: C_4  and  C_6
REMARK    4  A    between atoms: C_6  and  N_7
REMARK    5  A    between atoms: C_13  and  C_14
REMARK    6  A    between atoms: C_16  and  C_17
REMARK                            x       y       z     vdW  Elec       q    Type
REMARK                         _______ _______ _______ _____ _____    ______ ____
ROOT
ATOM      1  N   UNL     1       4.966   4.030  17.844  0.00  0.00    +0.000 NA
ATOM      2  C   UNL     1       4.362   3.994  19.199  0.00  0.00    +0.000 C 
ATOM      3  C   UNL     1       3.922   5.349  19.817  0.00  0.00    +0.000 C 
ATOM      4  N   UNL     1       3.065   6.094  18.883  0.00  0.00    +0.000 N 
ATOM      5  C   UNL     1       2.402   7.244  19.329  0.00  0.00    +0.000 A 
ATOM      6  C   UNL     1       1.867   7.343  20.606  0.00  0.00    +0.000 A 
ATOM      7  C   UNL     1       1.138   8.477  20.923  0.00  0.00    +0.000 A 
ATOM      8  C   UNL     1       0.482   8.631  22.263  0.00  0.00    +0.000 C 
ATOM      9  N   UNL     1       0.929   9.471  20.041  0.00  0.00    +0.000 NA
ATOM     10  C   UNL     1       1.469   9.305  18.826  0.00  0.00    +0.000 A 
ATOM     11  C   UNL     1       1.210  10.350  17.788  0.00  0.00    +0.000 C 
ATOM     12  N   UNL     1       2.194   8.238  18.447  0.00  0.00    +0.000 NA
ATOM     13  C   UNL     1       3.623   6.213  17.520  0.00  0.00    +0.000 C 
ATOM     14  C   UNL     1       4.065   4.832  16.973  0.00  0.00    +0.000 C 
ENDROOT
BRANCH   1  15
ATOM     15  C   UNL     1       6.324   4.621  17.836  0.00  0.00    +0.000 C 
BRANCH  15  17
ATOM     16  N   UNL     1       6.553   4.116  15.414  0.00  0.00    +0.000 N 
ATOM     17  C   UNL     1       6.824   5.002  16.437  0.00  0.00    +0.000 C 
ATOM     18  O   UNL     1       7.388   6.079  16.242  0.00  0.00    +0.000 OA
ATOM     19  H   UNL     1       6.038   3.270  15.647  0.00  0.00    +0.000 HD
BRANCH  16  21
ATOM     20  C   UNL     1       6.184   3.667  12.998  0.00  0.00    +0.000 C 
ATOM     21  C   UNL     1       6.946   4.437  14.059  0.00  0.00    +0.000 C 
ENDBRANCH  16  21
ENDBRANCH  15  17
ENDBRANCH   1  15
TORSDOF 3
ENDMDL
MODEL 6
REMARK VINA RESULT:      -6.3      2.535      6.822
REMARK  Name = 
REMARK  6 active torsions:
REMARK  status: ('A' for Active; 'I' for Inactive)
REMARK    1  A    between atoms: C_1  and  C_2
REMARK    2  A    between atoms: C_2  and  N_3
REMARK    3  A    between atoms: C_4  and  C_6
REMARK    4  A    between atoms: C_6  and  N_7
REMARK    5  A    between atoms: C_13  and  C_14
REMARK    6  A    between atoms: C_16  and  C_17
REMARK                            x       y       z     vdW  Elec       q    Type
REMARK                         _______ _______ _______ _____ _____    ______ ____
ROOT
ATOM      1  N   UNL     1       6.861   5.946  15.906  0.00  0.00    +0.000 NA
ATOM      2  C   UNL     1       5.412   5.907  15.584  0.00  0.00    +0.000 C 
ATOM      3  C   UNL     1       4.586   4.727  16.166  0.00  0.00    +0.000 C 
ATOM      4  N   UNL     1       4.802   4.605  17.615  0.00  0.00    +0.000 N 
ATOM      5  C   UNL     1       3.995   3.733  18.357  0.00  0.00    +0.000 A 
ATOM      6  C   UNL     1       2.644   3.565  18.088  0.00  0.00    +0.000 A 
ATOM      7  C   UNL     1       1.903   2.762  18.940  0.00  0.00    +0.000 A 
ATOM      8  C   UNL     1       0.427   2.578  18.748  0.00  0.00    +0.000 C 
ATOM      9  N   UNL     1       2.443   2.154  20.011  0.00  0.00    +0.000 NA
ATOM     10  C   UNL     1       3.751   2.366  20.213  0.00  0.00    +0.000 A 
ATOM     11  C   UNL     1       4.386   1.767  21.426  0.00  0.00    +0.000 C 
ATOM     12  N   UNL     1       4.536   3.124  19.428  0.00  0.00    +0.000 NA
ATOM     13  C   UNL     1       6.226   4.588  18.012  0.00  0.00    +0.000 C 
ATOM     14  C   UNL     1       6.997   5.775  17.378  0.00  0.00    +0.000 C 
ENDROOT
BRANCH   1  15
ATOM     15  C   UNL     1       7.633   4.893  15.208  0.00  0.00    +0.000 C 
BRANCH  15  17
ATOM     16  N   UNL     1       6.548   3.620  13.371  0.00  0.00    +0.000 N 
ATOM     17  C   UNL     1       7.271   4.741  13.726  0.00  0.00    +0.000 C 
ATOM     18  O   UNL     1       7.570   5.615  12.912  0.00  0.00    +0.000 OA
ATOM     19  H   UNL     1       6.296   2.968  14.110  0.00  0.00    +0.000 HD
BRANCH  16  21
ATOM     20  C   UNL     1       4.622   3.312  11.831  0.00  0.00    +0.000 C 
ATOM     21  C   UNL     1       6.123   3.439  12.000  0.00  0.00    +0.000 C 
ENDBRANCH  16  21
ENDBRANCH  15  17
ENDBRANCH   1  15
TORSDOF 3
ENDMDL
MODEL 7
REMARK VINA RESULT:      -6.3      3.110      7.830
REMARK  Name = 
REMARK  6 active torsions:
REMARK  status: ('A' for Active; 'I' for Inactive)
REMARK    1  A    between atoms: C_1  and  C_2
REMARK    2  A    between atoms: C_2  and  N_3
REMARK    3  A    between atoms: C_4  and  C_6
REMARK    4  A    between atoms: C_6  and  N_7
REMARK    5  A    between atoms: C_13  and  C_14
REMARK    6  A    between atoms: C_16  and  C_17
REMARK                            x       y       z     vdW  Elec       q    Type
REMARK                         _______ _______ _______ _____ _____    ______ ____
ROOT
ATOM      1  N   UNL     1       3.880   4.110  18.553  0.00  0.00    +0.000 NA
ATOM      2  C   UNL     1       3.124   4.120  19.831  0.00  0.00    +0.000 C 
ATOM      3  C   UNL     1       2.853   5.503  20.484  0.00  0.00    +0.000 C 
ATOM      4  N   UNL     1       2.251   6.429  19.514  0.00  0.00    +0.000 N 
ATOM      5  C   UNL     1       1.747   7.657  19.960  0.00  0.00    +0.000 A 
ATOM      6  C   UNL     1       1.092   7.791  21.176  0.00  0.00    +0.000 A 
ATOM      7  C   UNL     1       0.536   9.022  21.487  0.00  0.00    +0.000 A 
ATOM      8  C   UNL     1      -0.236   9.229  22.756  0.00  0.00    +0.000 C 
ATOM      9  N   UNL     1       0.604  10.076  20.654  0.00  0.00    +0.000 NA
ATOM     10  C   UNL     1       1.245   9.872  19.495  0.00  0.00    +0.000 A 
ATOM     11  C   UNL     1       1.292  10.992  18.506  0.00  0.00    +0.000 C 
ATOM     12  N   UNL     1       1.816   8.712  19.127  0.00  0.00    +0.000 NA
ATOM     13  C   UNL     1       2.977   6.509  18.229  0.00  0.00    +0.000 C 
ATOM     14  C   UNL     1       3.237   5.097  17.644  0.00  0.00    +0.000 C 
ENDROOT
BRANCH   1  15
ATOM     15  C   UNL     1       5.310   4.451  18.728  0.00  0.00    +0.000 C 
BRANCH  15  17
ATOM     16  N   UNL     1       6.109   3.850  16.454  0.00  0.00    +0.000 N 
ATOM     17  C   UNL     1       6.020   4.829  17.422  0.00  0.00    +0.000 C 
ATOM     18  O   UNL     1       6.435   5.974  17.240  0.00  0.00    +0.000 OA
ATOM     19  H   UNL     1       5.698   2.943  16.661  0.00  0.00    +0.000 HD
BRANCH  16  21
ATOM     20  C   UNL     1       5.745   4.128  14.011  0.00  0.00    +0.000 C 
ATOM     21  C   UNL     1       6.716   4.152  15.176  0.00  0.00    +0.000 C 
ENDBRANCH  16  21
ENDBRANCH  15  17
ENDBRANCH   1  15
TORSDOF 3
ENDMDL
MODEL 8
REMARK VINA RESULT:      -6.3      1.442      1.666
REMARK  Name = 
REMARK  6 active torsions:
REMARK  status: ('A' for Active; 'I' for Inactive)
REMARK    1  A    between atoms: C_1  and  C_2
REMARK    2  A    between atoms: C_2  and  N_3
REMARK    3  A    between atoms: C_4  and  C_6
REMARK    4  A    between atoms: C_6  and  N_7
REMARK    5  A    between atoms: C_13  and  C_14
REMARK    6  A    between atoms: C_16  and  C_17
REMARK                            x       y       z     vdW  Elec       q    Type
REMARK                         _______ _______ _______ _____ _____    ______ ____
ROOT
ATOM      1  N   UNL     1       4.629   4.812  18.859  0.00  0.00    +0.000 NA
ATOM      2  C   UNL     1       4.121   3.732  17.975  0.00  0.00    +0.000 C 
ATOM      3  C   UNL     1       4.302   3.922  16.444  0.00  0.00    +0.000 C 
ATOM      4  N   UNL     1       5.700   4.247  16.122  0.00  0.00    +0.000 N 
ATOM      5  C   UNL     1       6.109   4.257  14.783  0.00  0.00    +0.000 A 
ATOM      6  C   UNL     1       5.635   3.339  13.856  0.00  0.00    +0.000 A 
ATOM      7  C   UNL     1       6.176   3.360  12.580  0.00  0.00    +0.000 A 
ATOM      8  C   UNL     1       5.756   2.364  11.541  0.00  0.00    +0.000 C 
ATOM      9  N   UNL     1       7.139   4.227  12.218  0.00  0.00    +0.000 NA
ATOM     10  C   UNL     1       7.552   5.080  13.166  0.00  0.00    +0.000 A 
ATOM     11  C   UNL     1       8.667   6.019  12.834  0.00  0.00    +0.000 C 
ATOM     12  N   UNL     1       7.072   5.125  14.420  0.00  0.00    +0.000 NA
ATOM     13  C   UNL     1       6.263   5.348  16.931  0.00  0.00    +0.000 C 
ATOM     14  C   UNL     1       6.026   5.109  18.444  0.00  0.00    +0.000 C 
ENDROOT
BRANCH   1  15
ATOM     15  C   UNL     1       3.813   6.046  18.786  0.00  0.00    +0.000 C 
BRANCH  15  17
ATOM     16  N   UNL     1       2.247   7.420  20.138  0.00  0.00    +0.000 N 
ATOM     17  C   UNL     1       2.772   6.166  19.906  0.00  0.00    +0.000 C 
ATOM     18  O   UNL     1       2.393   5.170  20.521  0.00  0.00    +0.000 OA
ATOM     19  H   UNL     1       2.576   8.185  19.553  0.00  0.00    +0.000 HD
BRANCH  16  21
ATOM     20  C   UNL     1       0.713   9.022  21.260  0.00  0.00    +0.000 C 
ATOM     21  C   UNL     1       1.220   7.598  21.142  0.00  0.00    +0.000 C 
ENDBRANCH  16  21
ENDBRANCH  15  17
ENDBRANCH   1  15
TORSDOF 3
ENDMDL
MODEL 9
REMARK VINA RESULT:      -6.0      2.124      7.773
REMARK  Name = 
REMARK  6 active torsions:
REMARK  status: ('A' for Active; 'I' for Inactive)
REMARK    1  A    between atoms: C_1  and  C_2
REMARK    2  A    between atoms: C_2  and  N_3
REMARK    3  A    between atoms: C_4  and  C_6
REMARK    4  A    between atoms: C_6  and  N_7
REMARK    5  A    between atoms: C_13  and  C_14
REMARK    6  A    between atoms: C_16  and  C_17
REMARK                            x       y       z     vdW  Elec       q    Type
REMARK                         _______ _______ _______ _____ _____    ______ ____
ROOT
ATOM      1  N   UNL     1       6.584   5.218  16.374  0.00  0.00    +0.000 NA
ATOM      2  C   UNL     1       5.959   6.533  16.660  0.00  0.00    +0.000 C 
ATOM      3  C   UNL     1       4.551   6.523  17.316  0.00  0.00    +0.000 C 
ATOM      4  N   UNL     1       4.540   5.669  18.513  0.00  0.00    +0.000 N 
ATOM      5  C   UNL     1       3.424   5.687  19.358  0.00  0.00    +0.000 A 
ATOM      6  C   UNL     1       2.719   6.852  19.630  0.00  0.00    +0.000 A 
ATOM      7  C   UNL     1       1.693   6.793  20.560  0.00  0.00    +0.000 A 
ATOM      8  C   UNL     1       0.924   8.021  20.948  0.00  0.00    +0.000 C 
ATOM      9  N   UNL     1       1.366   5.658  21.204  0.00  0.00    +0.000 NA
ATOM     10  C   UNL     1       2.093   4.575  20.895  0.00  0.00    +0.000 A 
ATOM     11  C   UNL     1       1.814   3.304  21.631  0.00  0.00    +0.000 C 
ATOM     12  N   UNL     1       3.096   4.552  20.001  0.00  0.00    +0.000 NA
ATOM     13  C   UNL     1       5.106   4.321  18.295  0.00  0.00    +0.000 C 
ATOM     14  C   UNL     1       6.497   4.402  17.615  0.00  0.00    +0.000 C 
ENDROOT
BRANCH   1  15
ATOM     15  C   UNL     1       5.928   4.499  15.258  0.00  0.00    +0.000 C 
BRANCH  15  17
ATOM     16  N   UNL     1       7.695   5.506  13.831  0.00  0.00    +0.000 N 
ATOM     17  C   UNL     1       6.726   4.530  13.949  0.00  0.00    +0.000 C 
ATOM     18  O   UNL     1       6.538   3.682  13.077  0.00  0.00    +0.000 OA
ATOM     19  H   UNL     1       7.824   6.139  14.616  0.00  0.00    +0.000 HD
BRANCH  16  21
ATOM     20  C   UNL     1       7.918   6.350  11.504  0.00  0.00    +0.000 C 
ATOM     21  C   UNL     1       8.525   5.560  12.647  0.00  0.00    +0.000 C 
ENDBRANCH  16  21
ENDBRANCH  15  17
ENDBRANCH   1  15
TORSDOF 3
ENDMDL
