MODEL 1
REMARK VINA RESULT:      -8.5      0.000      0.000
REMARK  Name = 
REMARK  4 active torsions:
REMARK  status: ('A' for Active; 'I' for Inactive)
REMARK    1  A    between atoms: C_1  and  C_2
REMARK    2  A    between atoms: C_5  and  C_6
REMARK    3  A    between atoms: C_6  and  C_7
REMARK    4  A    between atoms: C_6  and  N_8
REMARK                            x       y       z     vdW  Elec       q    Type
REMARK                         _______ _______ _______ _____ _____    ______ ____
ROOT
ATOM      1  N   UNL     1       4.570   4.363  17.883  0.00  0.00    +0.000 N 
ATOM      2  C   UNL     1       3.426   5.010  17.482  0.00  0.00    +0.000 A 
ATOM      3  N   UNL     1       2.289   4.960  18.096  0.00  0.00    +0.000 NA
ATOM      4  C   UNL     1       2.203   4.148  19.234  0.00  0.00    +0.000 A 
ATOM      5  C   UNL     1       0.950   3.971  19.831  0.00  0.00    +0.000 A 
ATOM      6  C   UNL     1       0.796   3.113  20.924  0.00  0.00    +0.000 A 
ATOM      7  C   UNL     1       1.902   2.430  21.425  0.00  0.00    +0.000 A 
ATOM      8  C   UNL     1       3.157   2.626  20.849  0.00  0.00    +0.000 A 
ATOM      9  F   UNL     1       4.191   1.935  21.346  0.00  0.00    +0.000 F 
ATOM     10  C   UNL     1       3.309   3.487  19.763  0.00  0.00    +0.000 A 
ATOM     11  C   UNL     1       4.612   3.703  19.109  0.00  0.00    +0.000 A 
ATOM     12  O   UNL     1       5.650   3.340  19.646  0.00  0.00    +0.000 OA
ENDROOT
BRANCH   1  13
ATOM     13  C   UNL     1       5.806   4.458  17.082  0.00  0.00    +0.000 C 
ATOM     14  C   UNL     1       5.504   4.200  15.595  0.00  0.00    +0.000 C 
BRANCH  13  19
ATOM     15  C   UNL     1       8.553   9.414  18.243  0.00  0.00    +0.000 C 
ATOM     16  C   UNL     1       7.895   8.102  17.946  0.00  0.00    +0.000 A 
ATOM     17  C   UNL     1       8.220   6.955  18.658  0.00  0.00    +0.000 A 
ATOM     18  C   UNL     1       7.549   5.770  18.364  0.00  0.00    +0.000 A 
ATOM     19  C   UNL     1       6.563   5.744  17.371  0.00  0.00    +0.000 A 
ATOM     20  C   UNL     1       6.335   6.938  16.695  0.00  0.00    +0.000 A 
ATOM     21  N   UNL     1       6.970   8.102  16.960  0.00  0.00    +0.000 NA
ENDBRANCH  13  19
ENDBRANCH   1  13
TORSDOF 2
ENDMDL
MODEL 2
REMARK VINA RESULT:      -7.9      0.631      1.052
REMARK  Name = 
REMARK  4 active torsions:
REMARK  status: ('A' for Active; 'I' for Inactive)
REMARK    1  A    between atoms: C_1  and  C_2
REMARK    2  A    between atoms: C_5  and  C_6
REMARK    3  A    between atoms: C_6  and  C_7
REMARK    4  A    between atoms: C_6  and  N_8
REMARK                            x       y       z     vdW  Elec       q    Type
REMARK                         _______ _______ _______ _____ _____    ______ ____
ROOT
ATOM      1  N   UNL     1       4.600   4.422  17.902  0.00  0.00    +0.000 N 
ATOM      2  C   UNL     1       3.449   5.040  17.474  0.00  0.00    +0.000 A 
ATOM      3  N   UNL     1       2.298   4.953  18.055  0.00  0.00    +0.000 NA
ATOM      4  C   UNL     1       2.204   4.132  19.186  0.00  0.00    +0.000 A 
ATOM      5  C   UNL     1       0.940   3.915  19.746  0.00  0.00    +0.000 A 
ATOM      6  C   UNL     1       0.781   3.044  20.829  0.00  0.00    +0.000 A 
ATOM      7  C   UNL     1       1.891   2.390  21.356  0.00  0.00    +0.000 A 
ATOM      8  C   UNL     1       3.156   2.625  20.816  0.00  0.00    +0.000 A 
ATOM      9  F   UNL     1       4.195   1.960  21.337  0.00  0.00    +0.000 F 
ATOM     10  C   UNL     1       3.313   3.498  19.741  0.00  0.00    +0.000 A 
ATOM     11  C   UNL     1       4.627   3.755  19.124  0.00  0.00    +0.000 A 
ATOM     12  O   UNL     1       5.659   3.418  19.687  0.00  0.00    +0.000 OA
ENDROOT
BRANCH   1  13
ATOM     13  C   UNL     1       5.854   4.559  17.136  0.00  0.00    +0.000 C 
ATOM     14  C   UNL     1       5.588   4.376  15.631  0.00  0.00    +0.000 C 
BRANCH  13  19
ATOM     15  C   UNL     1       8.830   9.332  18.485  0.00  0.00    +0.000 C 
ATOM     16  C   UNL     1       8.009   8.129  18.136  0.00  0.00    +0.000 A 
ATOM     17  C   UNL     1       7.008   8.194  17.175  0.00  0.00    +0.000 A 
ATOM     18  C   UNL     1       6.300   7.035  16.863  0.00  0.00    +0.000 A 
ATOM     19  C   UNL     1       6.602   5.829  17.508  0.00  0.00    +0.000 A 
ATOM     20  C   UNL     1       7.599   5.877  18.476  0.00  0.00    +0.000 A 
ATOM     21  N   UNL     1       8.301   6.987  18.798  0.00  0.00    +0.000 NA
ENDBRANCH  13  19
ENDBRANCH   1  13
TORSDOF 2
ENDMDL
MODEL 3
REMARK VINA RESULT:      -7.6      1.634      3.145
REMARK  Name = 
REMARK  4 active torsions:
REMARK  status: ('A' for Active; 'I' for Inactive)
REMARK    1  A    between atoms: C_1  and  C_2
REMARK    2  A    between atoms: C_5  and  C_6
REMARK    3  A    between atoms: C_6  and  C_7
REMARK    4  A    between atoms: C_6  and  N_8
REMARK                            x       y       z     vdW  Elec       q    Type
REMARK                         _______ _______ _______ _____ _____    ______ ____
ROOT
ATOM      1  N   UNL     1       4.900   5.846  18.405  0.00  0.00    +0.000 N 
ATOM      2  C   UNL     1       3.799   6.665  18.474  0.00  0.00    +0.000 A 
ATOM      3  N   UNL     1       2.683   6.364  19.054  0.00  0.00    +0.000 NA
ATOM      4  C   UNL     1       2.570   5.087  19.619  0.00  0.00    +0.000 A 
ATOM      5  C   UNL     1       1.328   4.693  20.126  0.00  0.00    +0.000 A 
ATOM      6  C   UNL     1       1.142   3.402  20.633  0.00  0.00    +0.000 A 
ATOM      7  C   UNL     1       2.206   2.503  20.634  0.00  0.00    +0.000 A 
ATOM      8  C   UNL     1       3.452   2.903  20.153  0.00  0.00    +0.000 A 
ATOM      9  F   UNL     1       4.444   2.003  20.152  0.00  0.00    +0.000 F 
ATOM     10  C   UNL     1       3.637   4.191  19.655  0.00  0.00    +0.000 A 
ATOM     11  C   UNL     1       4.930   4.647  19.113  0.00  0.00    +0.000 A 
ATOM     12  O   UNL     1       5.953   4.006  19.314  0.00  0.00    +0.000 OA
ENDROOT
BRANCH   1  13
ATOM     13  C   UNL     1       6.112   6.277  17.681  0.00  0.00    +0.000 C 
ATOM     14  C   UNL     1       7.354   6.130  18.577  0.00  0.00    +0.000 C 
BRANCH  13  19
ATOM     15  C   UNL     1       6.608   3.631  12.562  0.00  0.00    +0.000 C 
ATOM     16  C   UNL     1       6.426   4.338  13.869  0.00  0.00    +0.000 A 
ATOM     17  C   UNL     1       5.206   4.323  14.534  0.00  0.00    +0.000 A 
ATOM     18  C   UNL     1       5.104   4.966  15.765  0.00  0.00    +0.000 A 
ATOM     19  C   UNL     1       6.217   5.611  16.319  0.00  0.00    +0.000 A 
ATOM     20  C   UNL     1       7.382   5.596  15.560  0.00  0.00    +0.000 A 
ATOM     21  N   UNL     1       7.509   4.979  14.363  0.00  0.00    +0.000 NA
ENDBRANCH  13  19
ENDBRANCH   1  13
TORSDOF 2
ENDMDL
MODEL 4
REMARK VINA RESULT:      -7.5      2.236      3.696
REMARK  Name = 
REMARK  4 active torsions:
REMARK  status: ('A' for Active; 'I' for Inactive)
REMARK    1  A    between atoms: C_1  and  C_2
REMARK    2  A    between atoms: C_5  and  C_6
REMARK    3  A    between atoms: C_6  and  C_7
REMARK    4  A    between atoms: C_6  and  N_8
REMARK                            x       y       z     vdW  Elec       q    Type
REMARK                         _______ _______ _______ _____ _____    ______ ____
ROOT
ATOM      1  N   UNL     1       5.261   5.019  18.472  0.00  0.00    +0.000 N 
ATOM      2  C   UNL     1       5.553   3.732  18.855  0.00  0.00    +0.000 A 
ATOM      3  N   UNL     1       4.768   2.961  19.533  0.00  0.00    +0.000 NA
ATOM      4  C   UNL     1       3.540   3.492  19.949  0.00  0.00    +0.000 A 
ATOM      5  C   UNL     1       2.738   2.724  20.800  0.00  0.00    +0.000 A 
ATOM      6  C   UNL     1       1.538   3.236  21.304  0.00  0.00    +0.000 A 
ATOM      7  C   UNL     1       1.138   4.524  20.953  0.00  0.00    +0.000 A 
ATOM      8  C   UNL     1       1.922   5.281  20.083  0.00  0.00    +0.000 A 
ATOM      9  F   UNL     1       1.513   6.521  19.787  0.00  0.00    +0.000 F 
ATOM     10  C   UNL     1       3.114   4.765  19.577  0.00  0.00    +0.000 A 
ATOM     11  C   UNL     1       3.986   5.541  18.677  0.00  0.00    +0.000 A 
ATOM     12  O   UNL     1       3.578   6.560  18.136  0.00  0.00    +0.000 OA
ENDROOT
BRANCH   1  13
ATOM     13  C   UNL     1       6.251   5.825  17.732  0.00  0.00    +0.000 C 
ATOM     14  C   UNL     1       7.575   5.902  18.513  0.00  0.00    +0.000 C 
BRANCH  13  19
ATOM     15  C   UNL     1       6.853   3.965  12.288  0.00  0.00    +0.000 C 
ATOM     16  C   UNL     1       6.641   4.465  13.684  0.00  0.00    +0.000 A 
ATOM     17  C   UNL     1       5.453   4.228  14.362  0.00  0.00    +0.000 A 
ATOM     18  C   UNL     1       5.325   4.684  15.672  0.00  0.00    +0.000 A 
ATOM     19  C   UNL     1       6.381   5.364  16.289  0.00  0.00    +0.000 A 
ATOM     20  C   UNL     1       7.515   5.579  15.514  0.00  0.00    +0.000 A 
ATOM     21  N   UNL     1       7.667   5.147  14.241  0.00  0.00    +0.000 NA
ENDBRANCH  13  19
ENDBRANCH   1  13
TORSDOF 2
ENDMDL
MODEL 5
REMARK VINA RESULT:      -7.5      1.637      3.217
REMARK  Name = 
REMARK  4 active torsions:
REMARK  status: ('A' for Active; 'I' for Inactive)
REMARK    1  A    between atoms: C_1  and  C_2
REMARK    2  A    between atoms: C_5  and  C_6
REMARK    3  A    between atoms: C_6  and  C_7
REMARK    4  A    between atoms: C_6  and  N_8
REMARK                            x       y       z     vdW  Elec       q    Type
REMARK                         _______ _______ _______ _____ _____    ______ ____
ROOT
ATOM      1  N   UNL     1       4.806   5.835  18.263  0.00  0.00    +0.000 N 
ATOM      2  C   UNL     1       3.691   6.634  18.348  0.00  0.00    +0.000 A 
ATOM      3  N   UNL     1       2.617   6.345  19.006  0.00  0.00    +0.000 NA
ATOM      4  C   UNL     1       2.566   5.102  19.649  0.00  0.00    +0.000 A 
ATOM      5  C   UNL     1       1.364   4.712  20.249  0.00  0.00    +0.000 A 
ATOM      6  C   UNL     1       1.238   3.450  20.839  0.00  0.00    +0.000 A 
ATOM      7  C   UNL     1       2.322   2.575  20.831  0.00  0.00    +0.000 A 
ATOM      8  C   UNL     1       3.529   2.971  20.258  0.00  0.00    +0.000 A 
ATOM      9  F   UNL     1       4.540   2.093  20.252  0.00  0.00    +0.000 F 
ATOM     10  C   UNL     1       3.654   4.232  19.676  0.00  0.00    +0.000 A 
ATOM     11  C   UNL     1       4.904   4.681  19.036  0.00  0.00    +0.000 A 
ATOM     12  O   UNL     1       5.951   4.075  19.215  0.00  0.00    +0.000 OA
ENDROOT
BRANCH   1  13
ATOM     13  C   UNL     1       5.965   6.248  17.447  0.00  0.00    +0.000 C 
ATOM     14  C   UNL     1       7.248   6.242  18.295  0.00  0.00    +0.000 C 
BRANCH  13  19
ATOM     15  C   UNL     1       6.176   3.352  12.445  0.00  0.00    +0.000 C 
ATOM     16  C   UNL     1       6.176   4.080  13.754  0.00  0.00    +0.000 A 
ATOM     17  C   UNL     1       7.306   4.748  14.208  0.00  0.00    +0.000 A 
ATOM     18  C   UNL     1       7.237   5.439  15.415  0.00  0.00    +0.000 A 
ATOM     19  C   UNL     1       6.046   5.460  16.151  0.00  0.00    +0.000 A 
ATOM     20  C   UNL     1       4.983   4.733  15.626  0.00  0.00    +0.000 A 
ATOM     21  N   UNL     1       5.021   4.054  14.457  0.00  0.00    +0.000 NA
ENDBRANCH  13  19
ENDBRANCH   1  13
TORSDOF 2
ENDMDL
MODEL 6
REMARK VINA RESULT:      -7.5      1.789      2.111
REMARK  Name = 
REMARK  4 active torsions:
REMARK  status: ('A' for Active; 'I' for Inactive)
REMARK    1  A    between atoms: C_1  and  C_2
REMARK    2  A    between atoms: C_5  and  C_6
REMARK    3  A    between atoms: C_6  and  C_7
REMARK    4  A    between atoms: C_6  and  N_8
REMARK                            x       y       z     vdW  Elec       q    Type
REMARK                         _______ _______ _______ _____ _____    ______ ____
ROOT
ATOM      1  N   UNL     1       4.642   3.644  17.349  0.00  0.00    +0.000 N 
ATOM      2  C   UNL     1       4.423   2.319  17.642  0.00  0.00    +0.000 A 
ATOM      3  N   UNL     1       3.507   1.876  18.439  0.00  0.00    +0.000 NA
ATOM      4  C   UNL     1       2.702   2.819  19.090  0.00  0.00    +0.000 A 
ATOM      5  C   UNL     1       1.801   2.367  20.060  0.00  0.00    +0.000 A 
ATOM      6  C   UNL     1       1.028   3.274  20.792  0.00  0.00    +0.000 A 
ATOM      7  C   UNL     1       1.155   4.640  20.551  0.00  0.00    +0.000 A 
ATOM      8  C   UNL     1       2.034   5.091  19.566  0.00  0.00    +0.000 A 
ATOM      9  F   UNL     1       2.143   6.412  19.379  0.00  0.00    +0.000 F 
ATOM     10  C   UNL     1       2.799   4.185  18.833  0.00  0.00    +0.000 A 
ATOM     11  C   UNL     1       3.758   4.620  17.802  0.00  0.00    +0.000 A 
ATOM     12  O   UNL     1       3.735   5.764  17.369  0.00  0.00    +0.000 OA
ENDROOT
BRANCH   1  13
ATOM     13  C   UNL     1       5.746   4.042  16.453  0.00  0.00    +0.000 C 
ATOM     14  C   UNL     1       5.230   4.225  15.015  0.00  0.00    +0.000 C 
BRANCH  13  19
ATOM     15  C   UNL     1       8.574   8.607  18.601  0.00  0.00    +0.000 C 
ATOM     16  C   UNL     1       7.887   7.389  18.064  0.00  0.00    +0.000 A 
ATOM     17  C   UNL     1       7.822   6.214  18.801  0.00  0.00    +0.000 A 
ATOM     18  C   UNL     1       7.137   5.124  18.268  0.00  0.00    +0.000 A 
ATOM     19  C   UNL     1       6.524   5.221  17.013  0.00  0.00    +0.000 A 
ATOM     20  C   UNL     1       6.675   6.429  16.342  0.00  0.00    +0.000 A 
ATOM     21  N   UNL     1       7.333   7.503  16.836  0.00  0.00    +0.000 NA
ENDBRANCH  13  19
ENDBRANCH   1  13
TORSDOF 2
ENDMDL
MODEL 7
REMARK VINA RESULT:      -7.2      1.609      1.688
REMARK  Name = 
REMARK  4 active torsions:
REMARK  status: ('A' for Active; 'I' for Inactive)
REMARK    1  A    between atoms: C_1  and  C_2
REMARK    2  A    between atoms: C_5  and  C_6
REMARK    3  A    between atoms: C_6  and  C_7
REMARK    4  A    between atoms: C_6  and  N_8
REMARK                            x       y       z     vdW  Elec       q    Type
REMARK                         _______ _______ _______ _____ _____    ______ ____
ROOT
ATOM      1  N   UNL     1       4.828   4.861  17.905  0.00  0.00    +0.000 N 
ATOM      2  C   UNL     1       4.539   5.738  18.924  0.00  0.00    +0.000 A 
ATOM      3  N   UNL     1       3.557   5.615  19.755  0.00  0.00    +0.000 NA
ATOM      4  C   UNL     1       2.693   4.527  19.581  0.00  0.00    +0.000 A 
ATOM      5  C   UNL     1       1.548   4.452  20.381  0.00  0.00    +0.000 A 
ATOM      6  C   UNL     1       0.615   3.427  20.197  0.00  0.00    +0.000 A 
ATOM      7  C   UNL     1       0.830   2.470  19.208  0.00  0.00    +0.000 A 
ATOM      8  C   UNL     1       1.984   2.527  18.427  0.00  0.00    +0.000 A 
ATOM      9  F   UNL     1       2.143   1.600  17.473  0.00  0.00    +0.000 F 
ATOM     10  C   UNL     1       2.915   3.546  18.617  0.00  0.00    +0.000 A 
ATOM     11  C   UNL     1       4.135   3.658  17.796  0.00  0.00    +0.000 A 
ATOM     12  O   UNL     1       4.506   2.726  17.097  0.00  0.00    +0.000 OA
ENDROOT
BRANCH   1  13
ATOM     13  C   UNL     1       5.953   5.122  16.987  0.00  0.00    +0.000 C 
ATOM     14  C   UNL     1       5.451   5.223  15.536  0.00  0.00    +0.000 C 
BRANCH  13  19
ATOM     15  C   UNL     1       9.044   9.649  18.835  0.00  0.00    +0.000 C 
ATOM     16  C   UNL     1       8.294   8.442  18.361  0.00  0.00    +0.000 A 
ATOM     17  C   UNL     1       8.449   7.208  18.978  0.00  0.00    +0.000 A 
ATOM     18  C   UNL     1       7.698   6.129  18.520  0.00  0.00    +0.000 A 
ATOM     19  C   UNL     1       6.800   6.294  17.458  0.00  0.00    +0.000 A 
ATOM     20  C   UNL     1       6.742   7.561  16.889  0.00  0.00    +0.000 A 
ATOM     21  N   UNL     1       7.459   8.626  17.313  0.00  0.00    +0.000 NA
ENDBRANCH  13  19
ENDBRANCH   1  13
TORSDOF 2
ENDMDL
MODEL 8
REMARK VINA RESULT:      -7.1      2.225      3.769
REMARK  Name = 
REMARK  4 active torsions:
REMARK  status: ('A' for Active; 'I' for Inactive)
REMARK    1  A    between atoms: C_1  and  C_2
REMARK    2  A    between atoms: C_5  and  C_6
REMARK    3  A    between atoms: C_6  and  C_7
REMARK    4  A    between atoms: C_6  and  N_8
REMARK                            x       y       z     vdW  Elec       q    Type
REMARK                         _______ _______ _______ _____ _____    ______ ____
ROOT
ATOM      1  N   UNL     1       5.054   4.954  18.312  0.00  0.00    +0.000 N 
ATOM      2  C   UNL     1       5.559   3.763  18.775  0.00  0.00    +0.000 A 
ATOM      3  N   UNL     1       4.941   2.952  19.569  0.00  0.00    +0.000 NA
ATOM      4  C   UNL     1       3.675   3.335  20.030  0.00  0.00    +0.000 A 
ATOM      5  C   UNL     1       3.051   2.540  20.997  0.00  0.00    +0.000 A 
ATOM      6  C   UNL     1       1.821   2.917  21.544  0.00  0.00    +0.000 A 
ATOM      7  C   UNL     1       1.210   4.096  21.120  0.00  0.00    +0.000 A 
ATOM      8  C   UNL     1       1.818   4.876  20.137  0.00  0.00    +0.000 A 
ATOM      9  F   UNL     1       1.210   6.012  19.772  0.00  0.00    +0.000 F 
ATOM     10  C   UNL     1       3.041   4.494  19.588  0.00  0.00    +0.000 A 
ATOM     11  C   UNL     1       3.730   5.303  18.566  0.00  0.00    +0.000 A 
ATOM     12  O   UNL     1       3.141   6.198  17.976  0.00  0.00    +0.000 OA
ENDROOT
BRANCH   1  13
ATOM     13  C   UNL     1       5.865   5.824  17.437  0.00  0.00    +0.000 C 
ATOM     14  C   UNL     1       7.158   6.251  18.154  0.00  0.00    +0.000 C 
BRANCH  13  19
ATOM     15  C   UNL     1       6.518   3.573  12.149  0.00  0.00    +0.000 C 
ATOM     16  C   UNL     1       6.406   4.138  13.532  0.00  0.00    +0.000 A 
ATOM     17  C   UNL     1       7.448   4.854  14.105  0.00  0.00    +0.000 A 
ATOM     18  C   UNL     1       7.274   5.388  15.380  0.00  0.00    +0.000 A 
ATOM     19  C   UNL     1       6.064   5.206  16.063  0.00  0.00    +0.000 A 
ATOM     20  C   UNL     1       5.097   4.447  15.415  0.00  0.00    +0.000 A 
ATOM     21  N   UNL     1       5.239   3.917  14.179  0.00  0.00    +0.000 NA
ENDBRANCH  13  19
ENDBRANCH   1  13
TORSDOF 2
ENDMDL
MODEL 9
REMARK VINA RESULT:      -7.0      1.756      2.046
REMARK  Name = 
REMARK  4 active torsions:
REMARK  status: ('A' for Active; 'I' for Inactive)
REMARK    1  A    between atoms: C_1  and  C_2
REMARK    2  A    between atoms: C_5  and  C_6
REMARK    3  A    between atoms: C_6  and  C_7
REMARK    4  A    between atoms: C_6  and  N_8
REMARK                            x       y       z     vdW  Elec       q    Type
REMARK                         _______ _______ _______ _____ _____    ______ ____
ROOT
ATOM      1  N   UNL     1       4.861   5.020  17.890  0.00  0.00    +0.000 N 
ATOM      2  C   UNL     1       4.531   5.855  18.931  0.00  0.00    +0.000 A 
ATOM      3  N   UNL     1       3.543   5.675  19.745  0.00  0.00    +0.000 NA
ATOM      4  C   UNL     1       2.716   4.566  19.523  0.00  0.00    +0.000 A 
ATOM      5  C   UNL     1       1.563   4.431  20.305  0.00  0.00    +0.000 A 
ATOM      6  C   UNL     1       0.665   3.384  20.075  0.00  0.00    +0.000 A 
ATOM      7  C   UNL     1       0.922   2.466  19.059  0.00  0.00    +0.000 A 
ATOM      8  C   UNL     1       2.084   2.584  18.297  0.00  0.00    +0.000 A 
ATOM      9  F   UNL     1       2.285   1.694  17.316  0.00  0.00    +0.000 F 
ATOM     10  C   UNL     1       2.981   3.624  18.532  0.00  0.00    +0.000 A 
ATOM     11  C   UNL     1       4.208   3.800  17.733  0.00  0.00    +0.000 A 
ATOM     12  O   UNL     1       4.617   2.903  17.009  0.00  0.00    +0.000 OA
ENDROOT
BRANCH   1  13
ATOM     13  C   UNL     1       5.990   5.345  16.997  0.00  0.00    +0.000 C 
ATOM     14  C   UNL     1       5.499   5.510  15.548  0.00  0.00    +0.000 C 
BRANCH  13  19
ATOM     15  C   UNL     1       9.250   9.695  18.972  0.00  0.00    +0.000 C 
ATOM     16  C   UNL     1       8.358   8.606  18.463  0.00  0.00    +0.000 A 
ATOM     17  C   UNL     1       7.404   8.853  17.484  0.00  0.00    +0.000 A 
ATOM     18  C   UNL     1       6.627   7.794  17.021  0.00  0.00    +0.000 A 
ATOM     19  C   UNL     1       6.813   6.504  17.534  0.00  0.00    +0.000 A 
ATOM     20  C   UNL     1       7.770   6.369  18.533  0.00  0.00    +0.000 A 
ATOM     21  N   UNL     1       8.538   7.378  19.001  0.00  0.00    +0.000 NA
ENDBRANCH  13  19
ENDBRANCH   1  13
TORSDOF 2
ENDMDL
