MODEL 1
REMARK VINA RESULT:      -8.6      0.000      0.000
REMARK  Name = 
REMARK  7 active torsions:
REMARK  status: ('A' for Active; 'I' for Inactive)
REMARK    1  A    between atoms: C_1  and  C_2
REMARK    2  A    between atoms: C_7  and  C_8
REMARK    3  A    between atoms: C_8  and  C_9
REMARK    4  A    between atoms: C_9  and  N_10
REMARK    5  A    between atoms: C_11  and  C_13
REMARK    6  A    between atoms: C_13  and  N_14
REMARK    7  A    between atoms: C_13  and  C_15
REMARK                            x       y       z     vdW  Elec       q    Type
REMARK                         _______ _______ _______ _____ _____    ______ ____
ROOT
ATOM      1  N   UNL     1       4.709   6.215  16.884  0.00  0.00    +0.000 N 
ATOM      2  C   UNL     1       6.074   6.111  16.662  0.00  0.00    +0.000 C 
ATOM      3  O   UNL     1       6.835   7.061  16.815  0.00  0.00    +0.000 OA
ATOM      4  H   UNL     1       4.143   5.475  16.480  0.00  0.00    +0.000 HD
ENDROOT
BRANCH   1   5
ATOM      5  C   UNL     1       4.091   7.454  17.331  0.00  0.00    +0.000 C 
BRANCH   5   6
ATOM      6  C   UNL     1       2.611   7.279  17.671  0.00  0.00    +0.000 C 
BRANCH   6  13
ATOM      7  C   UNL     1       1.418   2.673  21.804  0.00  0.00    +0.000 C 
ATOM      8  C   UNL     1       1.634   3.135  20.394  0.00  0.00    +0.000 A 
ATOM      9  C   UNL     1       1.526   2.236  19.321  0.00  0.00    +0.000 A 
ATOM     10  C   UNL     1       1.709   2.648  18.003  0.00  0.00    +0.000 A 
ATOM     11  C   UNL     1       2.000   3.985  17.704  0.00  0.00    +0.000 A 
ATOM     12  C   UNL     1       2.118   4.921  18.752  0.00  0.00    +0.000 A 
ATOM     13  C   UNL     1       2.384   6.331  18.809  0.00  0.00    +0.000 A 
ATOM     14  C   UNL     1       2.380   6.680  20.145  0.00  0.00    +0.000 A 
ATOM     15  N   UNL     1       2.112   5.562  20.884  0.00  0.00    +0.000 N 
ATOM     16  C   UNL     1       1.938   4.471  20.063  0.00  0.00    +0.000 A 
ATOM     17  H   UNL     1       2.045   5.534  21.891  0.00  0.00    +0.000 HD
ENDBRANCH   6  13
ENDBRANCH   5   6
ENDBRANCH   1   5
BRANCH   2  18
ATOM     18  C   UNL     1       6.566   4.695  16.240  0.00  0.00    +0.000 C 
BRANCH  18  19
ATOM     19  C   UNL     1       6.740   4.541  14.733  0.00  0.00    +0.000 A 
ATOM     20  C   UNL     1       5.928   3.632  14.029  0.00  0.00    +0.000 A 
ATOM     21  C   UNL     1       6.026   3.504  12.639  0.00  0.00    +0.000 A 
ATOM     22  C   UNL     1       6.954   4.262  11.932  0.00  0.00    +0.000 A 
ATOM     23  C   UNL     1       7.792   5.140  12.618  0.00  0.00    +0.000 A 
ATOM     24  C   UNL     1       7.690   5.276  14.004  0.00  0.00    +0.000 A 
ENDBRANCH  18  19
BRANCH  18  25
ATOM     25  N   UNL     1       7.809   4.328  16.967  0.00  0.00    +0.000 NA
ATOM     26  H   UNL     1       7.794   4.813  17.864  0.00  0.00    +0.000 HD
ATOM     27  H   UNL     1       8.590   4.744  16.458  0.00  0.00    +0.000 HD
ENDBRANCH  18  25
ENDBRANCH   2  18
TORSDOF 6
ENDMDL
MODEL 2
REMARK VINA RESULT:      -8.0      0.807      1.309
REMARK  Name = 
REMARK  7 active torsions:
REMARK  status: ('A' for Active; 'I' for Inactive)
REMARK    1  A    between atoms: C_1  and  C_2
REMARK    2  A    between atoms: C_7  and  C_8
REMARK    3  A    between atoms: C_8  and  C_9
REMARK    4  A    between atoms: C_9  and  N_10
REMARK    5  A    between atoms: C_11  and  C_13
REMARK    6  A    between atoms: C_13  and  N_14
REMARK    7  A    between atoms: C_13  and  C_15
REMARK                            x       y       z     vdW  Elec       q    Type
REMARK                         _______ _______ _______ _____ _____    ______ ____
ROOT
ATOM      1  N   UNL     1       5.123   6.256  16.962  0.00  0.00    +0.000 N 
ATOM      2  C   UNL     1       5.949   5.527  17.806  0.00  0.00    +0.000 C 
ATOM      3  O   UNL     1       6.084   5.809  18.992  0.00  0.00    +0.000 OA
ATOM      4  H   UNL     1       5.283   6.119  15.969  0.00  0.00    +0.000 HD
ENDROOT
BRANCH   1   5
ATOM      5  C   UNL     1       4.348   7.394  17.433  0.00  0.00    +0.000 C 
BRANCH   5   6
ATOM      6  C   UNL     1       2.857   7.079  17.545  0.00  0.00    +0.000 C 
BRANCH   6  13
ATOM      7  C   UNL     1       1.381   2.593  21.719  0.00  0.00    +0.000 C 
ATOM      8  C   UNL     1       1.734   3.008  20.322  0.00  0.00    +0.000 A 
ATOM      9  C   UNL     1       1.777   2.065  19.283  0.00  0.00    +0.000 A 
ATOM     10  C   UNL     1       2.089   2.432  17.977  0.00  0.00    +0.000 A 
ATOM     11  C   UNL     1       2.364   3.767  17.654  0.00  0.00    +0.000 A 
ATOM     12  C   UNL     1       2.332   4.746  18.667  0.00  0.00    +0.000 A 
ATOM     13  C   UNL     1       2.540   6.168  18.692  0.00  0.00    +0.000 A 
ATOM     14  C   UNL     1       2.377   6.568  20.003  0.00  0.00    +0.000 A 
ATOM     15  N   UNL     1       2.069   5.470  20.756  0.00  0.00    +0.000 N 
ATOM     16  C   UNL     1       2.025   4.341  19.969  0.00  0.00    +0.000 A 
ATOM     17  H   UNL     1       1.892   5.478  21.750  0.00  0.00    +0.000 HD
ENDBRANCH   6  13
ENDBRANCH   5   6
ENDBRANCH   1   5
BRANCH   2  18
ATOM     18  C   UNL     1       6.658   4.310  17.142  0.00  0.00    +0.000 C 
BRANCH  18  19
ATOM     19  C   UNL     1       6.591   4.330  15.618  0.00  0.00    +0.000 A 
ATOM     20  C   UNL     1       7.548   5.062  14.890  0.00  0.00    +0.000 A 
ATOM     21  C   UNL     1       7.546   5.059  13.491  0.00  0.00    +0.000 A 
ATOM     22  C   UNL     1       6.574   4.347  12.795  0.00  0.00    +0.000 A 
ATOM     23  C   UNL     1       5.596   3.648  13.501  0.00  0.00    +0.000 A 
ATOM     24  C   UNL     1       5.601   3.642  14.898  0.00  0.00    +0.000 A 
ENDBRANCH  18  19
BRANCH  18  25
ATOM     25  N   UNL     1       8.060   4.190  17.619  0.00  0.00    +0.000 NA
ATOM     26  H   UNL     1       8.666   4.229  16.799  0.00  0.00    +0.000 HD
ATOM     27  H   UNL     1       8.174   3.243  17.984  0.00  0.00    +0.000 HD
ENDBRANCH  18  25
ENDBRANCH   2  18
TORSDOF 6
ENDMDL
MODEL 3
REMARK VINA RESULT:      -7.9      5.799      9.054
REMARK  Name = 
REMARK  7 active torsions:
REMARK  status: ('A' for Active; 'I' for Inactive)
REMARK    1  A    between atoms: C_1  and  C_2
REMARK    2  A    between atoms: C_7  and  C_8
REMARK    3  A    between atoms: C_8  and  C_9
REMARK    4  A    between atoms: C_9  and  N_10
REMARK    5  A    between atoms: C_11  and  C_13
REMARK    6  A    between atoms: C_13  and  N_14
REMARK    7  A    between atoms: C_13  and  C_15
REMARK                            x       y       z     vdW  Elec       q    Type
REMARK                         _______ _______ _______ _____ _____    ______ ____
ROOT
ATOM      1  N   UNL     1       7.576   7.457  18.217  0.00  0.00    +0.000 N 
ATOM      2  C   UNL     1       6.654   6.694  17.518  0.00  0.00    +0.000 C 
ATOM      3  O   UNL     1       6.217   7.036  16.424  0.00  0.00    +0.000 OA
ATOM      4  H   UNL     1       7.669   7.237  19.205  0.00  0.00    +0.000 HD
ENDROOT
BRANCH   1   5
ATOM      5  C   UNL     1       8.101   8.709  17.692  0.00  0.00    +0.000 C 
BRANCH   5   6
ATOM      6  C   UNL     1       8.841   9.523  18.752  0.00  0.00    +0.000 C 
BRANCH   6  13
ATOM      7  C   UNL     1      10.699  15.422  17.533  0.00  0.00    +0.000 C 
ATOM      8  C   UNL     1      10.942  14.083  18.163  0.00  0.00    +0.000 A 
ATOM      9  C   UNL     1      12.095  13.849  18.929  0.00  0.00    +0.000 A 
ATOM     10  C   UNL     1      12.333  12.618  19.534  0.00  0.00    +0.000 A 
ATOM     11  C   UNL     1      11.416  11.566  19.402  0.00  0.00    +0.000 A 
ATOM     12  C   UNL     1      10.245  11.758  18.641  0.00  0.00    +0.000 A 
ATOM     13  C   UNL     1       9.116  10.931  18.318  0.00  0.00    +0.000 A 
ATOM     14  C   UNL     1       8.286  11.691  17.516  0.00  0.00    +0.000 A 
ATOM     15  N   UNL     1       8.850  12.926  17.359  0.00  0.00    +0.000 N 
ATOM     16  C   UNL     1      10.043  13.003  18.040  0.00  0.00    +0.000 A 
ATOM     17  H   UNL     1       8.450  13.683  16.823  0.00  0.00    +0.000 HD
ENDBRANCH   6  13
ENDBRANCH   5   6
ENDBRANCH   1   5
BRANCH   2  18
ATOM     18  C   UNL     1       6.247   5.359  18.209  0.00  0.00    +0.000 C 
BRANCH  18  19
ATOM     19  C   UNL     1       4.772   5.012  18.029  0.00  0.00    +0.000 A 
ATOM     20  C   UNL     1       4.412   3.880  17.275  0.00  0.00    +0.000 A 
ATOM     21  C   UNL     1       3.072   3.504  17.134  0.00  0.00    +0.000 A 
ATOM     22  C   UNL     1       2.067   4.267  17.721  0.00  0.00    +0.000 A 
ATOM     23  C   UNL     1       2.404   5.414  18.440  0.00  0.00    +0.000 A 
ATOM     24  C   UNL     1       3.742   5.785  18.590  0.00  0.00    +0.000 A 
ENDBRANCH  18  19
BRANCH  18  25
ATOM     25  N   UNL     1       7.121   4.244  17.763  0.00  0.00    +0.000 NA
ATOM     26  H   UNL     1       6.791   3.394  18.221  0.00  0.00    +0.000 HD
ATOM     27  H   UNL     1       8.048   4.410  18.157  0.00  0.00    +0.000 HD
ENDBRANCH  18  25
ENDBRANCH   2  18
TORSDOF 6
ENDMDL
MODEL 4
REMARK VINA RESULT:      -7.7      1.453      7.135
REMARK  Name = 
REMARK  7 active torsions:
REMARK  status: ('A' for Active; 'I' for Inactive)
REMARK    1  A    between atoms: C_1  and  C_2
REMARK    2  A    between atoms: C_7  and  C_8
REMARK    3  A    between atoms: C_8  and  C_9
REMARK    4  A    between atoms: C_9  and  N_10
REMARK    5  A    between atoms: C_11  and  C_13
REMARK    6  A    between atoms: C_13  and  N_14
REMARK    7  A    between atoms: C_13  and  C_15
REMARK                            x       y       z     vdW  Elec       q    Type
REMARK                         _______ _______ _______ _____ _____    ______ ____
ROOT
ATOM      1  N   UNL     1       5.256   6.691  17.221  0.00  0.00    +0.000 N 
ATOM      2  C   UNL     1       4.506   6.185  18.272  0.00  0.00    +0.000 C 
ATOM      3  O   UNL     1       5.024   5.756  19.298  0.00  0.00    +0.000 OA
ATOM      4  H   UNL     1       4.769   6.766  16.332  0.00  0.00    +0.000 HD
ENDROOT
BRANCH   1   5
ATOM      5  C   UNL     1       6.708   6.764  17.272  0.00  0.00    +0.000 C 
BRANCH   5   6
ATOM      6  C   UNL     1       7.367   5.394  17.111  0.00  0.00    +0.000 C 
BRANCH   6  13
ATOM      7  C   UNL     1       5.381   2.672  11.785  0.00  0.00    +0.000 C 
ATOM      8  C   UNL     1       6.268   3.648  12.497  0.00  0.00    +0.000 A 
ATOM      9  C   UNL     1       7.140   4.482  11.778  0.00  0.00    +0.000 A 
ATOM     10  C   UNL     1       7.962   5.405  12.419  0.00  0.00    +0.000 A 
ATOM     11  C   UNL     1       7.939   5.539  13.813  0.00  0.00    +0.000 A 
ATOM     12  C   UNL     1       7.078   4.721  14.574  0.00  0.00    +0.000 A 
ATOM     13  C   UNL     1       6.793   4.602  15.977  0.00  0.00    +0.000 A 
ATOM     14  C   UNL     1       5.850   3.600  16.104  0.00  0.00    +0.000 A 
ATOM     15  N   UNL     1       5.548   3.129  14.858  0.00  0.00    +0.000 N 
ATOM     16  C   UNL     1       6.275   3.798  13.899  0.00  0.00    +0.000 A 
ATOM     17  H   UNL     1       4.882   2.397  14.660  0.00  0.00    +0.000 HD
ENDBRANCH   6  13
ENDBRANCH   5   6
ENDBRANCH   1   5
BRANCH   2  18
ATOM     18  C   UNL     1       2.964   6.237  18.064  0.00  0.00    +0.000 C 
BRANCH  18  19
ATOM     19  C   UNL     1       2.234   5.040  18.665  0.00  0.00    +0.000 A 
ATOM     20  C   UNL     1       1.877   5.056  20.027  0.00  0.00    +0.000 A 
ATOM     21  C   UNL     1       1.161   3.998  20.597  0.00  0.00    +0.000 A 
ATOM     22  C   UNL     1       0.813   2.894  19.825  0.00  0.00    +0.000 A 
ATOM     23  C   UNL     1       1.192   2.844  18.484  0.00  0.00    +0.000 A 
ATOM     24  C   UNL     1       1.899   3.904  17.910  0.00  0.00    +0.000 A 
ENDBRANCH  18  19
BRANCH  18  25
ATOM     25  N   UNL     1       2.404   7.518  18.567  0.00  0.00    +0.000 NA
ATOM     26  H   UNL     1       2.693   7.618  19.540  0.00  0.00    +0.000 HD
ATOM     27  H   UNL     1       1.390   7.409  18.605  0.00  0.00    +0.000 HD
ENDBRANCH  18  25
ENDBRANCH   2  18
TORSDOF 6
ENDMDL
MODEL 5
REMARK VINA RESULT:      -7.6      1.976      7.344
REMARK  Name = 
REMARK  7 active torsions:
REMARK  status: ('A' for Active; 'I' for Inactive)
REMARK    1  A    between atoms: C_1  and  C_2
REMARK    2  A    between atoms: C_7  and  C_8
REMARK    3  A    between atoms: C_8  and  C_9
REMARK    4  A    between atoms: C_9  and  N_10
REMARK    5  A    between atoms: C_11  and  C_13
REMARK    6  A    between atoms: C_13  and  N_14
REMARK    7  A    between atoms: C_13  and  C_15
REMARK                            x       y       z     vdW  Elec       q    Type
REMARK                         _______ _______ _______ _____ _____    ______ ____
ROOT
ATOM      1  N   UNL     1       3.445   4.069  18.745  0.00  0.00    +0.000 N 
ATOM      2  C   UNL     1       3.819   5.156  19.521  0.00  0.00    +0.000 C 
ATOM      3  O   UNL     1       4.978   5.557  19.568  0.00  0.00    +0.000 OA
ATOM      4  H   UNL     1       2.547   3.655  18.976  0.00  0.00    +0.000 HD
ENDROOT
BRANCH   1   5
ATOM      5  C   UNL     1       4.399   3.343  17.920  0.00  0.00    +0.000 C 
BRANCH   5   6
ATOM      6  C   UNL     1       4.181   3.582  16.427  0.00  0.00    +0.000 C 
BRANCH   6  13
ATOM      7  C   UNL     1       8.909   5.858  12.936  0.00  0.00    +0.000 C 
ATOM      8  C   UNL     1       7.662   5.035  13.063  0.00  0.00    +0.000 A 
ATOM      9  C   UNL     1       7.163   4.316  11.966  0.00  0.00    +0.000 A 
ATOM     10  C   UNL     1       6.014   3.535  12.067  0.00  0.00    +0.000 A 
ATOM     11  C   UNL     1       5.319   3.435  13.279  0.00  0.00    +0.000 A 
ATOM     12  C   UNL     1       5.787   4.142  14.406  0.00  0.00    +0.000 A 
ATOM     13  C   UNL     1       5.346   4.255  15.769  0.00  0.00    +0.000 A 
ATOM     14  C   UNL     1       6.225   5.116  16.397  0.00  0.00    +0.000 A 
ATOM     15  N   UNL     1       7.170   5.507  15.491  0.00  0.00    +0.000 N 
ATOM     16  C   UNL     1       6.936   4.924  14.267  0.00  0.00    +0.000 A 
ATOM     17  H   UNL     1       7.938   6.133  15.687  0.00  0.00    +0.000 HD
ENDBRANCH   6  13
ENDBRANCH   5   6
ENDBRANCH   1   5
BRANCH   2  18
ATOM     18  C   UNL     1       2.656   5.844  20.294  0.00  0.00    +0.000 C 
BRANCH  18  19
ATOM     19  C   UNL     1       2.191   7.146  19.651  0.00  0.00    +0.000 A 
ATOM     20  C   UNL     1       1.445   8.068  20.409  0.00  0.00    +0.000 A 
ATOM     21  C   UNL     1       1.048   9.294  19.866  0.00  0.00    +0.000 A 
ATOM     22  C   UNL     1       1.365   9.610  18.548  0.00  0.00    +0.000 A 
ATOM     23  C   UNL     1       2.070   8.692  17.771  0.00  0.00    +0.000 A 
ATOM     24  C   UNL     1       2.476   7.471  18.315  0.00  0.00    +0.000 A 
ENDBRANCH  18  19
BRANCH  18  25
ATOM     25  N   UNL     1       1.522   4.904  20.491  0.00  0.00    +0.000 NA
ATOM     26  H   UNL     1       0.686   5.349  20.111  0.00  0.00    +0.000 HD
ATOM     27  H   UNL     1       1.352   4.842  21.495  0.00  0.00    +0.000 HD
ENDBRANCH  18  25
ENDBRANCH   2  18
TORSDOF 6
ENDMDL
MODEL 6
REMARK VINA RESULT:      -7.5      3.173      5.948
REMARK  Name = 
REMARK  7 active torsions:
REMARK  status: ('A' for Active; 'I' for Inactive)
REMARK    1  A    between atoms: C_1  and  C_2
REMARK    2  A    between atoms: C_7  and  C_8
REMARK    3  A    between atoms: C_8  and  C_9
REMARK    4  A    between atoms: C_9  and  N_10
REMARK    5  A    between atoms: C_11  and  C_13
REMARK    6  A    between atoms: C_13  and  N_14
REMARK    7  A    between atoms: C_13  and  C_15
REMARK                            x       y       z     vdW  Elec       q    Type
REMARK                         _______ _______ _______ _____ _____    ______ ____
ROOT
ATOM      1  N   UNL     1       3.755   6.027  17.764  0.00  0.00    +0.000 N 
ATOM      2  C   UNL     1       4.853   5.309  18.213  0.00  0.00    +0.000 C 
ATOM      3  O   UNL     1       5.925   5.848  18.471  0.00  0.00    +0.000 OA
ATOM      4  H   UNL     1       3.021   5.476  17.329  0.00  0.00    +0.000 HD
ENDROOT
BRANCH   1   5
ATOM      5  C   UNL     1       3.795   7.471  17.587  0.00  0.00    +0.000 C 
BRANCH   5   6
ATOM      6  C   UNL     1       2.405   8.104  17.633  0.00  0.00    +0.000 C 
BRANCH   6  13
ATOM      7  C   UNL     1      -0.094   9.568  23.231  0.00  0.00    +0.000 C 
ATOM      8  C   UNL     1       0.087   9.853  21.770  0.00  0.00    +0.000 A 
ATOM      9  C   UNL     1      -0.493  10.989  21.184  0.00  0.00    +0.000 A 
ATOM     10  C   UNL     1      -0.326  11.279  19.832  0.00  0.00    +0.000 A 
ATOM     11  C   UNL     1       0.440  10.443  19.010  0.00  0.00    +0.000 A 
ATOM     12  C   UNL     1       1.041   9.291  19.558  0.00  0.00    +0.000 A 
ATOM     13  C   UNL     1       1.879   8.252  19.028  0.00  0.00    +0.000 A 
ATOM     14  C   UNL     1       2.139   7.384  20.072  0.00  0.00    +0.000 A 
ATOM     15  N   UNL     1       1.517   7.857  21.192  0.00  0.00    +0.000 N 
ATOM     16  C   UNL     1       0.843   9.025  20.915  0.00  0.00    +0.000 A 
ATOM     17  H   UNL     1       1.546   7.418  22.102  0.00  0.00    +0.000 HD
ENDBRANCH   6  13
ENDBRANCH   5   6
ENDBRANCH   1   5
BRANCH   2  18
ATOM     18  C   UNL     1       4.611   3.782  18.396  0.00  0.00    +0.000 C 
BRANCH  18  19
ATOM     19  C   UNL     1       3.226   3.452  18.943  0.00  0.00    +0.000 A 
ATOM     20  C   UNL     1       2.898   3.811  20.264  0.00  0.00    +0.000 A 
ATOM     21  C   UNL     1       1.620   3.570  20.780  0.00  0.00    +0.000 A 
ATOM     22  C   UNL     1       0.657   2.943  19.996  0.00  0.00    +0.000 A 
ATOM     23  C   UNL     1       0.977   2.546  18.698  0.00  0.00    +0.000 A 
ATOM     24  C   UNL     1       2.249   2.795  18.177  0.00  0.00    +0.000 A 
ENDBRANCH  18  19
BRANCH  18  25
ATOM     25  N   UNL     1       4.880   3.048  17.132  0.00  0.00    +0.000 NA
ATOM     26  H   UNL     1       4.746   3.704  16.362  0.00  0.00    +0.000 HD
ATOM     27  H   UNL     1       4.138   2.357  17.020  0.00  0.00    +0.000 HD
ENDBRANCH  18  25
ENDBRANCH   2  18
TORSDOF 6
ENDMDL
MODEL 7
REMARK VINA RESULT:      -7.5      2.758      6.972
REMARK  Name = 
REMARK  7 active torsions:
REMARK  status: ('A' for Active; 'I' for Inactive)
REMARK    1  A    between atoms: C_1  and  C_2
REMARK    2  A    between atoms: C_7  and  C_8
REMARK    3  A    between atoms: C_8  and  C_9
REMARK    4  A    between atoms: C_9  and  N_10
REMARK    5  A    between atoms: C_11  and  C_13
REMARK    6  A    between atoms: C_13  and  N_14
REMARK    7  A    between atoms: C_13  and  C_15
REMARK                            x       y       z     vdW  Elec       q    Type
REMARK                         _______ _______ _______ _____ _____    ______ ____
ROOT
ATOM      1  N   UNL     1       3.805   4.284  18.398  0.00  0.00    +0.000 N 
ATOM      2  C   UNL     1       2.693   5.097  18.555  0.00  0.00    +0.000 C 
ATOM      3  O   UNL     1       1.707   5.003  17.831  0.00  0.00    +0.000 OA
ATOM      4  H   UNL     1       4.653   4.610  18.853  0.00  0.00    +0.000 HD
ENDROOT
BRANCH   1   5
ATOM      5  C   UNL     1       3.870   3.252  17.374  0.00  0.00    +0.000 C 
BRANCH   5   6
ATOM      6  C   UNL     1       4.939   3.542  16.320  0.00  0.00    +0.000 C 
BRANCH   6  13
ATOM      7  C   UNL     1       7.805   8.998  17.639  0.00  0.00    +0.000 C 
ATOM      8  C   UNL     1       7.620   7.530  17.884  0.00  0.00    +0.000 A 
ATOM      9  C   UNL     1       8.340   6.876  18.897  0.00  0.00    +0.000 A 
ATOM     10  C   UNL     1       8.173   5.517  19.151  0.00  0.00    +0.000 A 
ATOM     11  C   UNL     1       7.266   4.755  18.402  0.00  0.00    +0.000 A 
ATOM     12  C   UNL     1       6.523   5.373  17.375  0.00  0.00    +0.000 A 
ATOM     13  C   UNL     1       5.526   4.914  16.449  0.00  0.00    +0.000 A 
ATOM     14  C   UNL     1       5.177   6.004  15.674  0.00  0.00    +0.000 A 
ATOM     15  N   UNL     1       5.897   7.084  16.098  0.00  0.00    +0.000 N 
ATOM     16  C   UNL     1       6.724   6.735  17.141  0.00  0.00    +0.000 A 
ATOM     17  H   UNL     1       5.834   8.014  15.707  0.00  0.00    +0.000 HD
ENDBRANCH   6  13
ENDBRANCH   5   6
ENDBRANCH   1   5
BRANCH   2  18
ATOM     18  C   UNL     1       2.778   6.107  19.737  0.00  0.00    +0.000 C 
BRANCH  18  19
ATOM     19  C   UNL     1       2.212   7.482  19.397  0.00  0.00    +0.000 A 
ATOM     20  C   UNL     1       2.491   8.058  18.143  0.00  0.00    +0.000 A 
ATOM     21  C   UNL     1       1.945   9.293  17.779  0.00  0.00    +0.000 A 
ATOM     22  C   UNL     1       1.134   9.988  18.671  0.00  0.00    +0.000 A 
ATOM     23  C   UNL     1       0.879   9.451  19.932  0.00  0.00    +0.000 A 
ATOM     24  C   UNL     1       1.415   8.212  20.294  0.00  0.00    +0.000 A 
ENDBRANCH  18  19
BRANCH  18  25
ATOM     25  N   UNL     1       2.142   5.549  20.958  0.00  0.00    +0.000 NA
ATOM     26  H   UNL     1       2.885   5.171  21.546  0.00  0.00    +0.000 HD
ATOM     27  H   UNL     1       1.597   4.735  20.669  0.00  0.00    +0.000 HD
ENDBRANCH  18  25
ENDBRANCH   2  18
TORSDOF 6
ENDMDL
MODEL 8
REMARK VINA RESULT:      -7.5      5.772      9.189
REMARK  Name = 
REMARK  7 active torsions:
REMARK  status: ('A' for Active; 'I' for Inactive)
REMARK    1  A    between atoms: C_1  and  C_2
REMARK    2  A    between atoms: C_7  and  C_8
REMARK    3  A    between atoms: C_8  and  C_9
REMARK    4  A    between atoms: C_9  and  N_10
REMARK    5  A    between atoms: C_11  and  C_13
REMARK    6  A    between atoms: C_13  and  N_14
REMARK    7  A    between atoms: C_13  and  C_15
REMARK                            x       y       z     vdW  Elec       q    Type
REMARK                         _______ _______ _______ _____ _____    ______ ____
ROOT
ATOM      1  N   UNL     1       7.472   7.482  18.045  0.00  0.00    +0.000 N 
ATOM      2  C   UNL     1       7.140   6.407  17.236  0.00  0.00    +0.000 C 
ATOM      3  O   UNL     1       7.420   6.375  16.042  0.00  0.00    +0.000 OA
ATOM      4  H   UNL     1       6.973   7.537  18.927  0.00  0.00    +0.000 HD
ENDROOT
BRANCH   1   5
ATOM      5  C   UNL     1       8.193   8.639  17.535  0.00  0.00    +0.000 C 
BRANCH   5   6
ATOM      6  C   UNL     1       8.826   9.471  18.650  0.00  0.00    +0.000 C 
BRANCH   6  13
ATOM      7  C   UNL     1      10.858  15.323  17.489  0.00  0.00    +0.000 C 
ATOM      8  C   UNL     1      11.041  13.985  18.140  0.00  0.00    +0.000 A 
ATOM      9  C   UNL     1      12.148  13.736  18.967  0.00  0.00    +0.000 A 
ATOM     10  C   UNL     1      12.330  12.505  19.593  0.00  0.00    +0.000 A 
ATOM     11  C   UNL     1      11.402  11.470  19.421  0.00  0.00    +0.000 A 
ATOM     12  C   UNL     1      10.276  11.678  18.598  0.00  0.00    +0.000 A 
ATOM     13  C   UNL     1       9.150  10.869  18.221  0.00  0.00    +0.000 A 
ATOM     14  C   UNL     1       8.379  11.639  17.372  0.00  0.00    +0.000 A 
ATOM     15  N   UNL     1       8.973  12.861  17.236  0.00  0.00    +0.000 N 
ATOM     16  C   UNL     1      10.130  12.921  17.978  0.00  0.00    +0.000 A 
ATOM     17  H   UNL     1       8.616  13.621  16.674  0.00  0.00    +0.000 HD
ENDBRANCH   6  13
ENDBRANCH   5   6
ENDBRANCH   1   5
BRANCH   2  18
ATOM     18  C   UNL     1       6.418   5.235  17.963  0.00  0.00    +0.000 C 
BRANCH  18  19
ATOM     19  C   UNL     1       4.971   5.551  18.329  0.00  0.00    +0.000 A 
ATOM     20  C   UNL     1       4.400   4.964  19.474  0.00  0.00    +0.000 A 
ATOM     21  C   UNL     1       3.093   5.273  19.866  0.00  0.00    +0.000 A 
ATOM     22  C   UNL     1       2.325   6.152  19.108  0.00  0.00    +0.000 A 
ATOM     23  C   UNL     1       2.863   6.712  17.949  0.00  0.00    +0.000 A 
ATOM     24  C   UNL     1       4.171   6.412  17.561  0.00  0.00    +0.000 A 
ENDBRANCH  18  19
BRANCH  18  25
ATOM     25  N   UNL     1       6.513   3.981  17.171  0.00  0.00    +0.000 NA
ATOM     26  H   UNL     1       7.260   4.106  16.488  0.00  0.00    +0.000 HD
ATOM     27  H   UNL     1       5.659   3.909  16.616  0.00  0.00    +0.000 HD
ENDBRANCH  18  25
ENDBRANCH   2  18
TORSDOF 6
ENDMDL
MODEL 9
REMARK VINA RESULT:      -7.4      2.559      4.185
REMARK  Name = 
REMARK  7 active torsions:
REMARK  status: ('A' for Active; 'I' for Inactive)
REMARK    1  A    between atoms: C_1  and  C_2
REMARK    2  A    between atoms: C_7  and  C_8
REMARK    3  A    between atoms: C_8  and  C_9
REMARK    4  A    between atoms: C_9  and  N_10
REMARK    5  A    between atoms: C_11  and  C_13
REMARK    6  A    between atoms: C_13  and  N_14
REMARK    7  A    between atoms: C_13  and  C_15
REMARK                            x       y       z     vdW  Elec       q    Type
REMARK                         _______ _______ _______ _____ _____    ______ ____
ROOT
ATOM      1  N   UNL     1       4.740   6.052  17.116  0.00  0.00    +0.000 N 
ATOM      2  C   UNL     1       6.058   6.008  16.686  0.00  0.00    +0.000 C 
ATOM      3  O   UNL     1       6.778   7.001  16.682  0.00  0.00    +0.000 OA
ATOM      4  H   UNL     1       4.161   5.267  16.833  0.00  0.00    +0.000 HD
ENDROOT
BRANCH   1   5
ATOM      5  C   UNL     1       4.129   7.277  17.609  0.00  0.00    +0.000 C 
BRANCH   5   6
ATOM      6  C   UNL     1       2.751   7.036  18.224  0.00  0.00    +0.000 C 
BRANCH   6  13
ATOM      7  C   UNL     1      -0.571  11.983  20.276  0.00  0.00    +0.000 C 
ATOM      8  C   UNL     1       0.092  10.663  20.531  0.00  0.00    +0.000 A 
ATOM      9  C   UNL     1       0.015  10.053  21.793  0.00  0.00    +0.000 A 
ATOM     10  C   UNL     1       0.612   8.821  22.047  0.00  0.00    +0.000 A 
ATOM     11  C   UNL     1       1.308   8.141  21.039  0.00  0.00    +0.000 A 
ATOM     12  C   UNL     1       1.410   8.718  19.756  0.00  0.00    +0.000 A 
ATOM     13  C   UNL     1       2.015   8.307  18.520  0.00  0.00    +0.000 A 
ATOM     14  C   UNL     1       1.780   9.319  17.610  0.00  0.00    +0.000 A 
ATOM     15  N   UNL     1       1.058  10.299  18.230  0.00  0.00    +0.000 N 
ATOM     16  C   UNL     1       0.807   9.960  19.540  0.00  0.00    +0.000 A 
ATOM     17  H   UNL     1       0.744  11.154  17.792  0.00  0.00    +0.000 HD
ENDBRANCH   6  13
ENDBRANCH   5   6
ENDBRANCH   1   5
BRANCH   2  18
ATOM     18  C   UNL     1       6.559   4.602  16.245  0.00  0.00    +0.000 C 
BRANCH  18  19
ATOM     19  C   UNL     1       6.718   4.464  14.734  0.00  0.00    +0.000 A 
ATOM     20  C   UNL     1       5.893   3.569  14.027  0.00  0.00    +0.000 A 
ATOM     21  C   UNL     1       5.977   3.458  12.635  0.00  0.00    +0.000 A 
ATOM     22  C   UNL     1       6.905   4.217  11.928  0.00  0.00    +0.000 A 
ATOM     23  C   UNL     1       7.756   5.080  12.617  0.00  0.00    +0.000 A 
ATOM     24  C   UNL     1       7.667   5.200  14.006  0.00  0.00    +0.000 A 
ENDBRANCH  18  19
BRANCH  18  25
ATOM     25  N   UNL     1       7.813   4.239  16.954  0.00  0.00    +0.000 NA
ATOM     26  H   UNL     1       7.608   4.230  17.954  0.00  0.00    +0.000 HD
ATOM     27  H   UNL     1       8.466   5.013  16.828  0.00  0.00    +0.000 HD
ENDBRANCH  18  25
ENDBRANCH   2  18
TORSDOF 6
ENDMDL
