MODEL 1
REMARK VINA RESULT:      -7.6      0.000      0.000
REMARK  Name = 
REMARK  8 active torsions:
REMARK  status: ('A' for Active; 'I' for Inactive)
REMARK    1  A    between atoms: C_2  and  C_8
REMARK    2  A    between atoms: N_3  and  C_4
REMARK    3  A    between atoms: C_4  and  C_5
REMARK    4  A    between atoms: C_5  and  C_6
REMARK    5  A    between atoms: C_6  and  O_7
REMARK    6  A    between atoms: C_8  and  C_9
REMARK    7  A    between atoms: C_9  and  C_10
REMARK    8  A    between atoms: C_12  and  C_13
REMARK                            x       y       z     vdW  Elec       q    Type
REMARK                         _______ _______ _______ _____ _____    ______ ____
ROOT
ATOM      1  C   UNL     1       4.896   5.164  17.883  0.00  0.00    +0.000 C 
ATOM      2  C   UNL     1       5.563   5.030  16.467  0.00  0.00    +0.000 C 
ATOM      3  C   UNL     1       6.969   5.605  16.383  0.00  0.00    +0.000 C 
ATOM      4  O   UNL     1       7.779   5.078  17.426  0.00  0.00    +0.000 OA
ATOM      5  C   UNL     1       7.302   5.472  18.711  0.00  0.00    +0.000 C 
ATOM      6  C   UNL     1       5.945   4.838  18.974  0.00  0.00    +0.000 C 
ENDROOT
BRANCH   1   8
ATOM      7  O   UNL     1       3.208   3.702  16.886  0.00  0.00    +0.000 OA
ATOM      8  C   UNL     1       3.770   4.105  17.898  0.00  0.00    +0.000 C 
ATOM      9  N   UNL     1       3.438   3.605  19.141  0.00  0.00    +0.000 N 
ATOM     10  H   UNL     1       3.920   3.939  19.967  0.00  0.00    +0.000 HD
BRANCH   9  11
ATOM     11  C   UNL     1       2.370   2.646  19.349  0.00  0.00    +0.000 C 
BRANCH  11  12
ATOM     12  C   UNL     1       1.285   3.206  20.264  0.00  0.00    +0.000 C 
BRANCH  12  13
ATOM     13  C   UNL     1       1.660   3.187  21.739  0.00  0.00    +0.000 C 
BRANCH  13  14
ATOM     14  O   UNL     1       2.852   2.438  21.936  0.00  0.00    +0.000 OA
ATOM     15  H   UNL     1       3.294   2.388  21.061  0.00  0.00    +0.000 HD
ENDBRANCH  13  14
ENDBRANCH  12  13
ENDBRANCH  11  12
ENDBRANCH   9  11
ENDBRANCH   1   8
BRANCH   1  16
ATOM     16  C   UNL     1       4.317   6.624  17.989  0.00  0.00    +0.000 C 
BRANCH  16  17
ATOM     17  C   UNL     1       2.816   7.006  17.933  0.00  0.00    +0.000 C 
ATOM     18  C   UNL     1       1.972   7.101  19.187  0.00  0.00    +0.000 C 
ATOM     19  C   UNL     1       1.674   8.558  19.175  0.00  0.00    +0.000 C 
ATOM     20  N   UNL     1       1.986   9.161  18.072  0.00  0.00    +0.000 NA
ATOM     21  O   UNL     1       2.605   8.225  17.215  0.00  0.00    +0.000 OA
BRANCH  19  22
ATOM     22  C   UNL     1       1.045   9.270  20.319  0.00  0.00    +0.000 A 
ATOM     23  C   UNL     1       0.382  10.494  20.167  0.00  0.00    +0.000 A 
ATOM     24  C   UNL     1      -0.324  11.048  21.243  0.00  0.00    +0.000 A 
ATOM     25  C   UNL     1      -0.338  10.395  22.470  0.00  0.00    +0.000 A 
ATOM     26  F   UNL     1      -1.050  10.905  23.486  0.00  0.00    +0.000 F 
ATOM     27  C   UNL     1       0.360   9.210  22.653  0.00  0.00    +0.000 A 
ATOM     28  C   UNL     1       1.053   8.648  21.579  0.00  0.00    +0.000 A 
ENDBRANCH  19  22
ENDBRANCH  16  17
ENDBRANCH   1  16
TORSDOF 8
ENDMDL
MODEL 2
REMARK VINA RESULT:      -7.6      1.050      1.174
REMARK  Name = 
REMARK  8 active torsions:
REMARK  status: ('A' for Active; 'I' for Inactive)
REMARK    1  A    between atoms: C_2  and  C_8
REMARK    2  A    between atoms: N_3  and  C_4
REMARK    3  A    between atoms: C_4  and  C_5
REMARK    4  A    between atoms: C_5  and  C_6
REMARK    5  A    between atoms: C_6  and  O_7
REMARK    6  A    between atoms: C_8  and  C_9
REMARK    7  A    between atoms: C_9  and  C_10
REMARK    8  A    between atoms: C_12  and  C_13
REMARK                            x       y       z     vdW  Elec       q    Type
REMARK                         _______ _______ _______ _____ _____    ______ ____
ROOT
ATOM      1  C   UNL     1       5.211   5.075  17.927  0.00  0.00    +0.000 C 
ATOM      2  C   UNL     1       4.830   4.931  16.410  0.00  0.00    +0.000 C 
ATOM      3  C   UNL     1       5.643   5.815  15.477  0.00  0.00    +0.000 C 
ATOM      4  O   UNL     1       7.033   5.635  15.715  0.00  0.00    +0.000 OA
ATOM      5  C   UNL     1       7.400   6.059  17.027  0.00  0.00    +0.000 C 
ATOM      6  C   UNL     1       6.752   5.152  18.062  0.00  0.00    +0.000 C 
ENDROOT
BRANCH   1   8
ATOM      7  O   UNL     1       5.198   3.283  19.591  0.00  0.00    +0.000 OA
ATOM      8  C   UNL     1       4.685   3.785  18.598  0.00  0.00    +0.000 C 
ATOM      9  N   UNL     1       3.563   3.228  18.020  0.00  0.00    +0.000 N 
ATOM     10  H   UNL     1       3.143   3.661  17.205  0.00  0.00    +0.000 HD
BRANCH   9  11
ATOM     11  C   UNL     1       2.966   1.990  18.483  0.00  0.00    +0.000 C 
BRANCH  11  12
ATOM     12  C   UNL     1       1.526   2.199  18.939  0.00  0.00    +0.000 C 
BRANCH  12  13
ATOM     13  C   UNL     1       1.404   2.680  20.378  0.00  0.00    +0.000 C 
BRANCH  13  14
ATOM     14  O   UNL     1       2.664   2.609  21.031  0.00  0.00    +0.000 OA
ATOM     15  H   UNL     1       2.942   1.668  20.992  0.00  0.00    +0.000 HD
ENDBRANCH  13  14
ENDBRANCH  12  13
ENDBRANCH  11  12
ENDBRANCH   9  11
ENDBRANCH   1   8
BRANCH   1  16
ATOM     16  C   UNL     1       4.472   6.353  18.475  0.00  0.00    +0.000 C 
BRANCH  16  17
ATOM     17  C   UNL     1       2.942   6.597  18.433  0.00  0.00    +0.000 C 
ATOM     18  C   UNL     1       2.139   6.837  19.696  0.00  0.00    +0.000 C 
ATOM     19  C   UNL     1       1.714   8.241  19.456  0.00  0.00    +0.000 C 
ATOM     20  N   UNL     1       1.931   8.671  18.254  0.00  0.00    +0.000 NA
ATOM     21  O   UNL     1       2.598   7.656  17.534  0.00  0.00    +0.000 OA
BRANCH  19  22
ATOM     22  C   UNL     1       1.067   9.085  20.496  0.00  0.00    +0.000 A 
ATOM     23  C   UNL     1       0.377  10.262  20.184  0.00  0.00    +0.000 A 
ATOM     24  C   UNL     1      -0.343  10.938  21.178  0.00  0.00    +0.000 A 
ATOM     25  C   UNL     1      -0.344  10.454  22.481  0.00  0.00    +0.000 A 
ATOM     26  F   UNL     1      -1.068  11.078  23.421  0.00  0.00    +0.000 F 
ATOM     27  C   UNL     1       0.381   9.320  22.819  0.00  0.00    +0.000 A 
ATOM     28  C   UNL     1       1.088   8.637  21.828  0.00  0.00    +0.000 A 
ENDBRANCH  19  22
ENDBRANCH  16  17
ENDBRANCH   1  16
TORSDOF 8
ENDMDL
MODEL 3
REMARK VINA RESULT:      -7.5      1.202      1.628
REMARK  Name = 
REMARK  8 active torsions:
REMARK  status: ('A' for Active; 'I' for Inactive)
REMARK    1  A    between atoms: C_2  and  C_8
REMARK    2  A    between atoms: N_3  and  C_4
REMARK    3  A    between atoms: C_4  and  C_5
REMARK    4  A    between atoms: C_5  and  C_6
REMARK    5  A    between atoms: C_6  and  O_7
REMARK    6  A    between atoms: C_8  and  C_9
REMARK    7  A    between atoms: C_9  and  C_10
REMARK    8  A    between atoms: C_12  and  C_13
REMARK                            x       y       z     vdW  Elec       q    Type
REMARK                         _______ _______ _______ _____ _____    ______ ____
ROOT
ATOM      1  C   UNL     1       5.237   5.069  17.824  0.00  0.00    +0.000 C 
ATOM      2  C   UNL     1       4.831   4.933  16.312  0.00  0.00    +0.000 C 
ATOM      3  C   UNL     1       5.637   5.812  15.368  0.00  0.00    +0.000 C 
ATOM      4  O   UNL     1       7.029   5.618  15.584  0.00  0.00    +0.000 OA
ATOM      5  C   UNL     1       7.421   6.035  16.890  0.00  0.00    +0.000 C 
ATOM      6  C   UNL     1       6.781   5.131  17.933  0.00  0.00    +0.000 C 
ENDROOT
BRANCH   1   8
ATOM      7  O   UNL     1       5.171   3.329  19.540  0.00  0.00    +0.000 OA
ATOM      8  C   UNL     1       4.710   3.782  18.499  0.00  0.00    +0.000 C 
ATOM      9  N   UNL     1       3.649   3.168  17.865  0.00  0.00    +0.000 N 
ATOM     10  H   UNL     1       3.271   3.562  17.011  0.00  0.00    +0.000 HD
BRANCH   9  11
ATOM     11  C   UNL     1       3.064   1.924  18.328  0.00  0.00    +0.000 C 
BRANCH  11  12
ATOM     12  C   UNL     1       1.634   2.127  18.819  0.00  0.00    +0.000 C 
BRANCH  12  13
ATOM     13  C   UNL     1       1.543   2.540  20.281  0.00  0.00    +0.000 C 
BRANCH  13  14
ATOM     14  O   UNL     1       0.512   3.502  20.459  0.00  0.00    +0.000 OA
ATOM     15  H   UNL     1      -0.227   3.226  19.876  0.00  0.00    +0.000 HD
ENDBRANCH  13  14
ENDBRANCH  12  13
ENDBRANCH  11  12
ENDBRANCH   9  11
ENDBRANCH   1   8
BRANCH   1  16
ATOM     16  C   UNL     1       4.519   6.352  18.386  0.00  0.00    +0.000 C 
BRANCH  16  17
ATOM     17  C   UNL     1       3.030   6.721  18.168  0.00  0.00    +0.000 C 
ATOM     18  C   UNL     1       2.050   6.791  19.322  0.00  0.00    +0.000 C 
ATOM     19  C   UNL     1       1.740   8.245  19.294  0.00  0.00    +0.000 C 
ATOM     20  N   UNL     1       2.166   8.867  18.241  0.00  0.00    +0.000 NA
ATOM     21  O   UNL     1       2.886   7.947  17.446  0.00  0.00    +0.000 OA
BRANCH  19  22
ATOM     22  C   UNL     1       0.979   8.937  20.369  0.00  0.00    +0.000 A 
ATOM     23  C   UNL     1       1.124   8.607  21.722  0.00  0.00    +0.000 A 
ATOM     24  C   UNL     1       0.502   9.388  22.705  0.00  0.00    +0.000 A 
ATOM     25  C   UNL     1      -0.283  10.472  22.333  0.00  0.00    +0.000 A 
ATOM     26  F   UNL     1      -0.841  11.243  23.277  0.00  0.00    +0.000 F 
ATOM     27  C   UNL     1      -0.483  10.779  20.994  0.00  0.00    +0.000 A 
ATOM     28  C   UNL     1       0.147  10.011  20.012  0.00  0.00    +0.000 A 
ENDBRANCH  19  22
ENDBRANCH  16  17
ENDBRANCH   1  16
TORSDOF 8
ENDMDL
MODEL 4
REMARK VINA RESULT:      -7.4      0.378      1.018
REMARK  Name = 
REMARK  8 active torsions:
REMARK  status: ('A' for Active; 'I' for Inactive)
REMARK    1  A    between atoms: C_2  and  C_8
REMARK    2  A    between atoms: N_3  and  C_4
REMARK    3  A    between atoms: C_4  and  C_5
REMARK    4  A    between atoms: C_5  and  C_6
REMARK    5  A    between atoms: C_6  and  O_7
REMARK    6  A    between atoms: C_8  and  C_9
REMARK    7  A    between atoms: C_9  and  C_10
REMARK    8  A    between atoms: C_12  and  C_13
REMARK                            x       y       z     vdW  Elec       q    Type
REMARK                         _______ _______ _______ _____ _____    ______ ____
ROOT
ATOM      1  C   UNL     1       4.950   5.107  18.102  0.00  0.00    +0.000 C 
ATOM      2  C   UNL     1       5.899   4.753  16.901  0.00  0.00    +0.000 C 
ATOM      3  C   UNL     1       7.314   5.293  17.044  0.00  0.00    +0.000 C 
ATOM      4  O   UNL     1       7.857   4.919  18.304  0.00  0.00    +0.000 OA
ATOM      5  C   UNL     1       7.134   5.508  19.383  0.00  0.00    +0.000 C 
ATOM      6  C   UNL     1       5.725   4.937  19.432  0.00  0.00    +0.000 C 
ENDROOT
BRANCH   1   8
ATOM      7  O   UNL     1       3.215   3.796  16.985  0.00  0.00    +0.000 OA
ATOM      8  C   UNL     1       3.801   4.076  18.023  0.00  0.00    +0.000 C 
ATOM      9  N   UNL     1       3.477   3.453  19.211  0.00  0.00    +0.000 N 
ATOM     10  H   UNL     1       3.979   3.686  20.061  0.00  0.00    +0.000 HD
BRANCH   9  11
ATOM     11  C   UNL     1       2.391   2.499  19.334  0.00  0.00    +0.000 C 
BRANCH  11  12
ATOM     12  C   UNL     1       1.235   3.069  20.151  0.00  0.00    +0.000 C 
BRANCH  12  13
ATOM     13  C   UNL     1       1.544   3.204  21.635  0.00  0.00    +0.000 C 
BRANCH  13  14
ATOM     14  O   UNL     1       2.744   2.511  21.955  0.00  0.00    +0.000 OA
ATOM     15  H   UNL     1       3.400   2.766  21.271  0.00  0.00    +0.000 HD
ENDBRANCH  13  14
ENDBRANCH  12  13
ENDBRANCH  11  12
ENDBRANCH   9  11
ENDBRANCH   1   8
BRANCH   1  16
ATOM     16  C   UNL     1       4.428   6.573  17.867  0.00  0.00    +0.000 C 
BRANCH  16  17
ATOM     17  C   UNL     1       2.941   6.990  17.726  0.00  0.00    +0.000 C 
ATOM     18  C   UNL     1       1.995   6.978  18.910  0.00  0.00    +0.000 C 
ATOM     19  C   UNL     1       1.717   8.434  19.019  0.00  0.00    +0.000 C 
ATOM     20  N   UNL     1       2.129   9.138  18.012  0.00  0.00    +0.000 NA
ATOM     21  O   UNL     1       2.806   8.278  17.119  0.00  0.00    +0.000 OA
BRANCH  19  22
ATOM     22  C   UNL     1       1.003   9.043  20.172  0.00  0.00    +0.000 A 
ATOM     23  C   UNL     1       1.102   8.532  21.471  0.00  0.00    +0.000 A 
ATOM     24  C   UNL     1       0.534   9.230  22.545  0.00  0.00    +0.000 A 
ATOM     25  C   UNL     1      -0.154  10.414  22.314  0.00  0.00    +0.000 A 
ATOM     26  F   UNL     1      -0.659  11.102  23.348  0.00  0.00    +0.000 F 
ATOM     27  C   UNL     1      -0.310  10.907  21.026  0.00  0.00    +0.000 A 
ATOM     28  C   UNL     1       0.267  10.221  19.955  0.00  0.00    +0.000 A 
ENDBRANCH  19  22
ENDBRANCH  16  17
ENDBRANCH   1  16
TORSDOF 8
ENDMDL
MODEL 5
REMARK VINA RESULT:      -7.4      1.969      4.367
REMARK  Name = 
REMARK  8 active torsions:
REMARK  status: ('A' for Active; 'I' for Inactive)
REMARK    1  A    between atoms: C_2  and  C_8
REMARK    2  A    between atoms: N_3  and  C_4
REMARK    3  A    between atoms: C_4  and  C_5
REMARK    4  A    between atoms: C_5  and  C_6
REMARK    5  A    between atoms: C_6  and  O_7
REMARK    6  A    between atoms: C_8  and  C_9
REMARK    7  A    between atoms: C_9  and  C_10
REMARK    8  A    between atoms: C_12  and  C_13
REMARK                            x       y       z     vdW  Elec       q    Type
REMARK                         _______ _______ _______ _____ _____    ______ ____
ROOT
ATOM      1  C   UNL     1       3.190   4.247  18.110  0.00  0.00    +0.000 C 
ATOM      2  C   UNL     1       3.516   3.913  19.610  0.00  0.00    +0.000 C 
ATOM      3  C   UNL     1       2.396   3.195  20.347  0.00  0.00    +0.000 C 
ATOM      4  O   UNL     1       1.974   2.055  19.609  0.00  0.00    +0.000 OA
ATOM      5  C   UNL     1       1.404   2.423  18.354  0.00  0.00    +0.000 C 
ATOM      6  C   UNL     1       2.474   3.036  17.462  0.00  0.00    +0.000 C 
ENDROOT
BRANCH   1   8
ATOM      7  O   UNL     1       4.724   4.522  16.227  0.00  0.00    +0.000 OA
ATOM      8  C   UNL     1       4.565   4.469  17.440  0.00  0.00    +0.000 C 
ATOM      9  N   UNL     1       5.629   4.634  18.304  0.00  0.00    +0.000 N 
ATOM     10  H   UNL     1       5.480   4.600  19.306  0.00  0.00    +0.000 HD
BRANCH   9  11
ATOM     11  C   UNL     1       6.997   4.800  17.851  0.00  0.00    +0.000 C 
BRANCH  11  12
ATOM     12  C   UNL     1       7.637   6.049  18.447  0.00  0.00    +0.000 C 
BRANCH  12  13
ATOM     13  C   UNL     1       7.521   7.279  17.558  0.00  0.00    +0.000 C 
BRANCH  13  14
ATOM     14  O   UNL     1       6.486   7.100  16.601  0.00  0.00    +0.000 OA
ATOM     15  H   UNL     1       5.693   7.549  16.964  0.00  0.00    +0.000 HD
ENDBRANCH  13  14
ENDBRANCH  12  13
ENDBRANCH  11  12
ENDBRANCH   9  11
ENDBRANCH   1   8
BRANCH   1  16
ATOM     16  C   UNL     1       2.324   5.561  18.102  0.00  0.00    +0.000 C 
BRANCH  16  17
ATOM     17  C   UNL     1       2.741   6.920  18.721  0.00  0.00    +0.000 C 
ATOM     18  C   UNL     1       2.136   8.228  18.252  0.00  0.00    +0.000 C 
ATOM     19  C   UNL     1       1.414   8.624  19.490  0.00  0.00    +0.000 C 
ATOM     20  N   UNL     1       1.716   7.924  20.537  0.00  0.00    +0.000 NA
ATOM     21  O   UNL     1       2.622   6.912  20.147  0.00  0.00    +0.000 OA
BRANCH  19  22
ATOM     22  C   UNL     1       0.441   9.748  19.541  0.00  0.00    +0.000 A 
ATOM     23  C   UNL     1       0.244  10.517  20.694  0.00  0.00    +0.000 A 
ATOM     24  C   UNL     1      -0.569  11.657  20.646  0.00  0.00    +0.000 A 
ATOM     25  C   UNL     1      -1.204  12.004  19.460  0.00  0.00    +0.000 A 
ATOM     26  F   UNL     1      -1.947  13.119  19.405  0.00  0.00    +0.000 F 
ATOM     27  C   UNL     1      -1.064  11.221  18.322  0.00  0.00    +0.000 A 
ATOM     28  C   UNL     1      -0.243  10.093  18.363  0.00  0.00    +0.000 A 
ENDBRANCH  19  22
ENDBRANCH  16  17
ENDBRANCH   1  16
TORSDOF 8
ENDMDL
MODEL 6
REMARK VINA RESULT:      -7.3      1.408      1.452
REMARK  Name = 
REMARK  8 active torsions:
REMARK  status: ('A' for Active; 'I' for Inactive)
REMARK    1  A    between atoms: C_2  and  C_8
REMARK    2  A    between atoms: N_3  and  C_4
REMARK    3  A    between atoms: C_4  and  C_5
REMARK    4  A    between atoms: C_5  and  C_6
REMARK    5  A    between atoms: C_6  and  O_7
REMARK    6  A    between atoms: C_8  and  C_9
REMARK    7  A    between atoms: C_9  and  C_10
REMARK    8  A    between atoms: C_12  and  C_13
REMARK                            x       y       z     vdW  Elec       q    Type
REMARK                         _______ _______ _______ _____ _____    ______ ____
ROOT
ATOM      1  C   UNL     1       5.142   5.268  18.239  0.00  0.00    +0.000 C 
ATOM      2  C   UNL     1       5.471   6.136  16.971  0.00  0.00    +0.000 C 
ATOM      3  C   UNL     1       6.647   7.084  17.153  0.00  0.00    +0.000 C 
ATOM      4  O   UNL     1       7.778   6.375  17.644  0.00  0.00    +0.000 OA
ATOM      5  C   UNL     1       7.538   5.841  18.945  0.00  0.00    +0.000 C 
ATOM      6  C   UNL     1       6.464   4.768  18.872  0.00  0.00    +0.000 C 
ENDROOT
BRANCH   1   8
ATOM      7  O   UNL     1       4.005   3.942  16.528  0.00  0.00    +0.000 OA
ATOM      8  C   UNL     1       4.324   4.070  17.704  0.00  0.00    +0.000 C 
ATOM      9  N   UNL     1       3.985   3.114  18.640  0.00  0.00    +0.000 N 
ATOM     10  H   UNL     1       4.267   3.228  19.607  0.00  0.00    +0.000 HD
BRANCH   9  11
ATOM     11  C   UNL     1       3.175   1.952  18.327  0.00  0.00    +0.000 C 
BRANCH  11  12
ATOM     12  C   UNL     1       1.920   1.895  19.191  0.00  0.00    +0.000 C 
BRANCH  12  13
ATOM     13  C   UNL     1       0.913   2.993  18.880  0.00  0.00    +0.000 C 
BRANCH  13  14
ATOM     14  O   UNL     1       1.163   3.542  17.593  0.00  0.00    +0.000 OA
ATOM     15  H   UNL     1       0.457   3.198  17.005  0.00  0.00    +0.000 HD
ENDBRANCH  13  14
ENDBRANCH  12  13
ENDBRANCH  11  12
ENDBRANCH   9  11
ENDBRANCH   1   8
BRANCH   1  16
ATOM     16  C   UNL     1       4.285   6.165  19.208  0.00  0.00    +0.000 C 
BRANCH  16  17
ATOM     17  C   UNL     1       2.775   6.477  19.050  0.00  0.00    +0.000 C 
ATOM     18  C   UNL     1       1.907   6.832  20.241  0.00  0.00    +0.000 C 
ATOM     19  C   UNL     1       1.569   8.237  19.890  0.00  0.00    +0.000 C 
ATOM     20  N   UNL     1       1.883   8.580  18.681  0.00  0.00    +0.000 NA
ATOM     21  O   UNL     1       2.542   7.491  18.069  0.00  0.00    +0.000 OA
BRANCH  19  22
ATOM     22  C   UNL     1       0.901   9.173  20.832  0.00  0.00    +0.000 A 
ATOM     23  C   UNL     1       0.346  10.389  20.414  0.00  0.00    +0.000 A 
ATOM     24  C   UNL     1      -0.404  11.162  21.310  0.00  0.00    +0.000 A 
ATOM     25  C   UNL     1      -0.571  10.735  22.622  0.00  0.00    +0.000 A 
ATOM     26  F   UNL     1      -1.325  11.455  23.464  0.00  0.00    +0.000 F 
ATOM     27  C   UNL     1       0.019   9.561  23.067  0.00  0.00    +0.000 A 
ATOM     28  C   UNL     1       0.756   8.781  22.174  0.00  0.00    +0.000 A 
ENDBRANCH  19  22
ENDBRANCH  16  17
ENDBRANCH   1  16
TORSDOF 8
ENDMDL
MODEL 7
REMARK VINA RESULT:      -7.3      2.007      4.148
REMARK  Name = 
REMARK  8 active torsions:
REMARK  status: ('A' for Active; 'I' for Inactive)
REMARK    1  A    between atoms: C_2  and  C_8
REMARK    2  A    between atoms: N_3  and  C_4
REMARK    3  A    between atoms: C_4  and  C_5
REMARK    4  A    between atoms: C_5  and  C_6
REMARK    5  A    between atoms: C_6  and  O_7
REMARK    6  A    between atoms: C_8  and  C_9
REMARK    7  A    between atoms: C_9  and  C_10
REMARK    8  A    between atoms: C_12  and  C_13
REMARK                            x       y       z     vdW  Elec       q    Type
REMARK                         _______ _______ _______ _____ _____    ______ ____
ROOT
ATOM      1  C   UNL     1       3.368   4.269  17.973  0.00  0.00    +0.000 C 
ATOM      2  C   UNL     1       3.822   3.913  19.434  0.00  0.00    +0.000 C 
ATOM      3  C   UNL     1       2.802   3.110  20.226  0.00  0.00    +0.000 C 
ATOM      4  O   UNL     1       2.391   1.968  19.484  0.00  0.00    +0.000 OA
ATOM      5  C   UNL     1       1.710   2.339  18.286  0.00  0.00    +0.000 C 
ATOM      6  C   UNL     1       2.675   3.037  17.340  0.00  0.00    +0.000 C 
ENDROOT
BRANCH   1   8
ATOM      7  O   UNL     1       4.701   5.048  16.078  0.00  0.00    +0.000 OA
ATOM      8  C   UNL     1       4.675   4.590  17.213  0.00  0.00    +0.000 C 
ATOM      9  N   UNL     1       5.843   4.351  17.908  0.00  0.00    +0.000 N 
ATOM     10  H   UNL     1       5.806   3.982  18.852  0.00  0.00    +0.000 HD
BRANCH   9  11
ATOM     11  C   UNL     1       7.160   4.543  17.333  0.00  0.00    +0.000 C 
BRANCH  11  12
ATOM     12  C   UNL     1       7.624   5.990  17.466  0.00  0.00    +0.000 C 
BRANCH  12  13
ATOM     13  C   UNL     1       7.832   6.436  18.906  0.00  0.00    +0.000 C 
BRANCH  13  14
ATOM     14  O   UNL     1       8.194   5.327  19.718  0.00  0.00    +0.000 OA
ATOM     15  H   UNL     1       7.801   4.534  19.293  0.00  0.00    +0.000 HD
ENDBRANCH  13  14
ENDBRANCH  12  13
ENDBRANCH  11  12
ENDBRANCH   9  11
ENDBRANCH   1   8
BRANCH   1  16
ATOM     16  C   UNL     1       2.432   5.531  18.070  0.00  0.00    +0.000 C 
BRANCH  16  17
ATOM     17  C   UNL     1       2.831   6.907  18.659  0.00  0.00    +0.000 C 
ATOM     18  C   UNL     1       2.274   8.203  18.105  0.00  0.00    +0.000 C 
ATOM     19  C   UNL     1       1.487   8.657  19.281  0.00  0.00    +0.000 C 
ATOM     20  N   UNL     1       1.717   7.996  20.371  0.00  0.00    +0.000 NA
ATOM     21  O   UNL     1       2.629   6.958  20.074  0.00  0.00    +0.000 OA
BRANCH  19  22
ATOM     22  C   UNL     1       0.529   9.794  19.231  0.00  0.00    +0.000 A 
ATOM     23  C   UNL     1      -0.351   9.988  18.160  0.00  0.00    +0.000 A 
ATOM     24  C   UNL     1      -1.335  10.982  18.231  0.00  0.00    +0.000 A 
ATOM     25  C   UNL     1      -1.416  11.796  19.354  0.00  0.00    +0.000 A 
ATOM     26  F   UNL     1      -2.386  12.718  19.438  0.00  0.00    +0.000 F 
ATOM     27  C   UNL     1      -0.516  11.655  20.402  0.00  0.00    +0.000 A 
ATOM     28  C   UNL     1       0.457  10.655  20.340  0.00  0.00    +0.000 A 
ENDBRANCH  19  22
ENDBRANCH  16  17
ENDBRANCH   1  16
TORSDOF 8
ENDMDL
MODEL 8
REMARK VINA RESULT:      -7.3      1.303      1.701
REMARK  Name = 
REMARK  8 active torsions:
REMARK  status: ('A' for Active; 'I' for Inactive)
REMARK    1  A    between atoms: C_2  and  C_8
REMARK    2  A    between atoms: N_3  and  C_4
REMARK    3  A    between atoms: C_4  and  C_5
REMARK    4  A    between atoms: C_5  and  C_6
REMARK    5  A    between atoms: C_6  and  O_7
REMARK    6  A    between atoms: C_8  and  C_9
REMARK    7  A    between atoms: C_9  and  C_10
REMARK    8  A    between atoms: C_12  and  C_13
REMARK                            x       y       z     vdW  Elec       q    Type
REMARK                         _______ _______ _______ _____ _____    ______ ____
ROOT
ATOM      1  C   UNL     1       5.225   4.512  18.309  0.00  0.00    +0.000 C 
ATOM      2  C   UNL     1       5.029   4.186  16.785  0.00  0.00    +0.000 C 
ATOM      3  C   UNL     1       6.048   4.846  15.869  0.00  0.00    +0.000 C 
ATOM      4  O   UNL     1       7.367   4.575  16.325  0.00  0.00    +0.000 OA
ATOM      5  C   UNL     1       7.607   5.148  17.609  0.00  0.00    +0.000 C 
ATOM      6  C   UNL     1       6.734   4.465  18.650  0.00  0.00    +0.000 C 
ENDROOT
BRANCH   1   8
ATOM      7  O   UNL     1       4.993   2.697  19.931  0.00  0.00    +0.000 OA
ATOM      8  C   UNL     1       4.476   3.387  19.060  0.00  0.00    +0.000 C 
ATOM      9  N   UNL     1       3.154   3.211  18.707  0.00  0.00    +0.000 N 
ATOM     10  H   UNL     1       2.737   3.797  17.992  0.00  0.00    +0.000 HD
BRANCH   9  11
ATOM     11  C   UNL     1       2.316   2.169  19.269  0.00  0.00    +0.000 C 
BRANCH  11  12
ATOM     12  C   UNL     1       1.192   2.752  20.119  0.00  0.00    +0.000 C 
BRANCH  12  13
ATOM     13  C   UNL     1       1.668   3.352  21.434  0.00  0.00    +0.000 C 
BRANCH  13  14
ATOM     14  O   UNL     1       2.713   2.564  21.987  0.00  0.00    +0.000 OA
ATOM     15  H   UNL     1       2.606   1.663  21.613  0.00  0.00    +0.000 HD
ENDBRANCH  13  14
ENDBRANCH  12  13
ENDBRANCH  11  12
ENDBRANCH   9  11
ENDBRANCH   1   8
BRANCH   1  16
ATOM     16  C   UNL     1       4.568   5.918  18.573  0.00  0.00    +0.000 C 
BRANCH  16  17
ATOM     17  C   UNL     1       3.318   6.480  17.848  0.00  0.00    +0.000 C 
ATOM     18  C   UNL     1       2.035   6.785  18.595  0.00  0.00    +0.000 C 
ATOM     19  C   UNL     1       1.995   8.262  18.425  0.00  0.00    +0.000 C 
ATOM     20  N   UNL     1       2.845   8.728  17.566  0.00  0.00    +0.000 NA
ATOM     21  O   UNL     1       3.628   7.653  17.090  0.00  0.00    +0.000 OA
BRANCH  19  22
ATOM     22  C   UNL     1       1.044   9.140  19.157  0.00  0.00    +0.000 A 
ATOM     23  C   UNL     1       0.939   9.134  20.553  0.00  0.00    +0.000 A 
ATOM     24  C   UNL     1       0.140  10.086  21.200  0.00  0.00    +0.000 A 
ATOM     25  C   UNL     1      -0.571  11.016  20.452  0.00  0.00    +0.000 A 
ATOM     26  F   UNL     1      -1.300  11.953  21.076  0.00  0.00    +0.000 F 
ATOM     27  C   UNL     1      -0.522  11.001  19.065  0.00  0.00    +0.000 A 
ATOM     28  C   UNL     1       0.284  10.063  18.417  0.00  0.00    +0.000 A 
ENDBRANCH  19  22
ENDBRANCH  16  17
ENDBRANCH   1  16
TORSDOF 8
ENDMDL
MODEL 9
REMARK VINA RESULT:      -7.3      2.324      4.571
REMARK  Name = 
REMARK  8 active torsions:
REMARK  status: ('A' for Active; 'I' for Inactive)
REMARK    1  A    between atoms: C_2  and  C_8
REMARK    2  A    between atoms: N_3  and  C_4
REMARK    3  A    between atoms: C_4  and  C_5
REMARK    4  A    between atoms: C_5  and  C_6
REMARK    5  A    between atoms: C_6  and  O_7
REMARK    6  A    between atoms: C_8  and  C_9
REMARK    7  A    between atoms: C_9  and  C_10
REMARK    8  A    between atoms: C_12  and  C_13
REMARK                            x       y       z     vdW  Elec       q    Type
REMARK                         _______ _______ _______ _____ _____    ______ ____
ROOT
ATOM      1  C   UNL     1       2.869   4.079  18.678  0.00  0.00    +0.000 C 
ATOM      2  C   UNL     1       2.816   3.911  20.238  0.00  0.00    +0.000 C 
ATOM      3  C   UNL     1       1.461   3.473  20.773  0.00  0.00    +0.000 C 
ATOM      4  O   UNL     1       1.009   2.318  20.078  0.00  0.00    +0.000 OA
ATOM      5  C   UNL     1       0.783   2.590  18.696  0.00  0.00    +0.000 C 
ATOM      6  C   UNL     1       2.103   2.909  18.012  0.00  0.00    +0.000 C 
ENDROOT
BRANCH   1   8
ATOM      7  O   UNL     1       5.237   3.642  19.104  0.00  0.00    +0.000 OA
ATOM      8  C   UNL     1       4.371   4.002  18.316  0.00  0.00    +0.000 C 
ATOM      9  N   UNL     1       4.690   4.344  17.018  0.00  0.00    +0.000 N 
ATOM     10  H   UNL     1       3.961   4.629  16.374  0.00  0.00    +0.000 HD
BRANCH   9  11
ATOM     11  C   UNL     1       6.052   4.381  16.521  0.00  0.00    +0.000 C 
BRANCH  11  12
ATOM     12  C   UNL     1       6.646   5.782  16.618  0.00  0.00    +0.000 C 
BRANCH  12  13
ATOM     13  C   UNL     1       7.516   5.994  17.849  0.00  0.00    +0.000 C 
BRANCH  13  14
ATOM     14  O   UNL     1       7.785   4.751  18.483  0.00  0.00    +0.000 OA
ATOM     15  H   UNL     1       8.205   4.180  17.804  0.00  0.00    +0.000 HD
ENDBRANCH  13  14
ENDBRANCH  12  13
ENDBRANCH  11  12
ENDBRANCH   9  11
ENDBRANCH   1   8
BRANCH   1  16
ATOM     16  C   UNL     1       2.266   5.493  18.340  0.00  0.00    +0.000 C 
BRANCH  16  17
ATOM     17  C   UNL     1       2.782   6.848  18.889  0.00  0.00    +0.000 C 
ATOM     18  C   UNL     1       2.574   8.144  18.132  0.00  0.00    +0.000 C 
ATOM     19  C   UNL     1       1.671   8.844  19.083  0.00  0.00    +0.000 C 
ATOM     20  N   UNL     1       1.573   8.281  20.245  0.00  0.00    +0.000 NA
ATOM     21  O   UNL     1       2.328   7.088  20.224  0.00  0.00    +0.000 OA
BRANCH  19  22
ATOM     22  C   UNL     1       0.954  10.103  18.749  0.00  0.00    +0.000 A 
ATOM     23  C   UNL     1      -0.432  10.149  18.554  0.00  0.00    +0.000 A 
ATOM     24  C   UNL     1      -1.078  11.381  18.393  0.00  0.00    +0.000 A 
ATOM     25  C   UNL     1      -0.336  12.557  18.396  0.00  0.00    +0.000 A 
ATOM     26  F   UNL     1      -0.962  13.737  18.286  0.00  0.00    +0.000 F 
ATOM     27  C   UNL     1       1.044  12.526  18.532  0.00  0.00    +0.000 A 
ATOM     28  C   UNL     1       1.690  11.300  18.707  0.00  0.00    +0.000 A 
ENDBRANCH  19  22
ENDBRANCH  16  17
ENDBRANCH   1  16
TORSDOF 8
ENDMDL
