MODEL 1
REMARK VINA RESULT:      -7.6      0.000      0.000
REMARK  Name = 
REMARK  10 active torsions:
REMARK  status: ('A' for Active; 'I' for Inactive)
REMARK    1  A    between atoms: C_1  and  C_2
REMARK    2  A    between atoms: C_2  and  C_3
REMARK    3  A    between atoms: C_3  and  C_4
REMARK    4  A    between atoms: C_4  and  C_5
REMARK    5  A    between atoms: C_5  and  C_6
REMARK    6  A    between atoms: C_6  and  C_7
REMARK    7  A    between atoms: C_7  and  C_8
REMARK    8  A    between atoms: N_13  and  C_14
REMARK    9  A    between atoms: C_14  and  C_15
REMARK   10  A    between atoms: C_17  and  C_18
REMARK                            x       y       z     vdW  Elec       q    Type
REMARK                         _______ _______ _______ _____ _____    ______ ____
ROOT
ATOM      1  C   UNL     1       2.891   6.744  18.835  0.00  0.00    +0.000 C 
ATOM      2  O   UNL     1       2.214   7.405  18.049  0.00  0.00    +0.000 OA
ATOM      3  N   UNL     1       4.044   6.090  18.438  0.00  0.00    +0.000 N 
ATOM      4  C   UNL     1       4.549   6.292  17.077  0.00  0.00    +0.000 C 
ATOM      5  C   UNL     1       6.025   6.749  17.095  0.00  0.00    +0.000 C 
ATOM      6  N   UNL     1       6.925   5.904  17.919  0.00  0.00    +0.000 NA
ATOM      7  C   UNL     1       6.340   5.783  19.278  0.00  0.00    +0.000 C 
ATOM      8  C   UNL     1       4.895   5.255  19.294  0.00  0.00    +0.000 C 
ENDROOT
BRANCH   1   9
ATOM      9  C   UNL     1       2.511   6.622  20.301  0.00  0.00    +0.000 C 
BRANCH   9  10
ATOM     10  C   UNL     1       1.244   5.794  20.489  0.00  0.00    +0.000 C 
BRANCH  10  11
ATOM     11  C   UNL     1       1.573   4.325  20.738  0.00  0.00    +0.000 C 
BRANCH  11  12
ATOM     12  C   UNL     1       0.895   3.439  19.696  0.00  0.00    +0.000 C 
BRANCH  12  13
ATOM     13  C   UNL     1       1.691   3.407  18.393  0.00  0.00    +0.000 C 
BRANCH  13  15
ATOM     14  C   UNL     1       3.671   1.898  18.039  0.00  0.00    +0.000 C 
ATOM     15  C   UNL     1       2.155   1.989  18.069  0.00  0.00    +0.000 C 
ENDBRANCH  13  15
ENDBRANCH  12  13
ENDBRANCH  11  12
ENDBRANCH  10  11
ENDBRANCH   9  10
ENDBRANCH   1   9
BRANCH   6  16
ATOM     16  C   UNL     1       7.154   4.591  17.266  0.00  0.00    +0.000 C 
BRANCH  16  17
ATOM     17  C   UNL     1       6.897   4.615  15.799  0.00  0.00    +0.000 A 
ATOM     18  N   UNL     1       6.094   3.852  15.092  0.00  0.00    +0.000 NA
ATOM     19  C   UNL     1       6.434   4.185  13.799  0.00  0.00    +0.000 A 
ATOM     20  N   UNL     1       7.342   5.172  13.712  0.00  0.00    +0.000 NA
ATOM     21  O   UNL     1       7.659   5.451  15.042  0.00  0.00    +0.000 OA
BRANCH  19  22
ATOM     22  C   UNL     1       5.906   3.453  12.655  0.00  0.00    +0.000 A 
ATOM     23  C   UNL     1       4.612   3.722  12.179  0.00  0.00    +0.000 A 
ATOM     24  C   UNL     1       4.072   2.976  11.128  0.00  0.00    +0.000 A 
ATOM     25  C   UNL     1       4.822   1.959  10.540  0.00  0.00    +0.000 A 
ATOM     26  C   UNL     1       6.110   1.690  10.994  0.00  0.00    +0.000 A 
ATOM     27  C   UNL     1       6.652   2.433  12.046  0.00  0.00    +0.000 A 
ENDBRANCH  19  22
ENDBRANCH  16  17
ENDBRANCH   6  16
TORSDOF 9
ENDMDL
MODEL 2
REMARK VINA RESULT:      -7.0      3.060      9.061
REMARK  Name = 
REMARK  10 active torsions:
REMARK  status: ('A' for Active; 'I' for Inactive)
REMARK    1  A    between atoms: C_1  and  C_2
REMARK    2  A    between atoms: C_2  and  C_3
REMARK    3  A    between atoms: C_3  and  C_4
REMARK    4  A    between atoms: C_4  and  C_5
REMARK    5  A    between atoms: C_5  and  C_6
REMARK    6  A    between atoms: C_6  and  C_7
REMARK    7  A    between atoms: C_7  and  C_8
REMARK    8  A    between atoms: N_13  and  C_14
REMARK    9  A    between atoms: C_14  and  C_15
REMARK   10  A    between atoms: C_17  and  C_18
REMARK                            x       y       z     vdW  Elec       q    Type
REMARK                         _______ _______ _______ _____ _____    ______ ____
ROOT
ATOM      1  C   UNL     1       5.515   4.138  15.712  0.00  0.00    +0.000 C 
ATOM      2  O   UNL     1       5.866   2.958  15.700  0.00  0.00    +0.000 OA
ATOM      3  N   UNL     1       4.706   4.651  16.710  0.00  0.00    +0.000 N 
ATOM      4  C   UNL     1       4.361   3.806  17.857  0.00  0.00    +0.000 C 
ATOM      5  C   UNL     1       4.720   4.504  19.188  0.00  0.00    +0.000 C 
ATOM      6  N   UNL     1       4.203   5.888  19.321  0.00  0.00    +0.000 NA
ATOM      7  C   UNL     1       4.627   6.665  18.129  0.00  0.00    +0.000 C 
ATOM      8  C   UNL     1       4.213   6.031  16.789  0.00  0.00    +0.000 C 
ENDROOT
BRANCH   1   9
ATOM      9  C   UNL     1       5.968   5.110  14.636  0.00  0.00    +0.000 C 
BRANCH   9  10
ATOM     10  C   UNL     1       7.119   4.544  13.812  0.00  0.00    +0.000 C 
BRANCH  10  11
ATOM     11  C   UNL     1       6.672   4.209  12.392  0.00  0.00    +0.000 C 
BRANCH  11  12
ATOM     12  C   UNL     1       5.894   2.895  12.371  0.00  0.00    +0.000 C 
BRANCH  12  13
ATOM     13  C   UNL     1       5.072   2.759  11.092  0.00  0.00    +0.000 C 
BRANCH  13  15
ATOM     14  C   UNL     1       3.141   3.830   9.888  0.00  0.00    +0.000 C 
ATOM     15  C   UNL     1       3.710   3.433  11.240  0.00  0.00    +0.000 C 
ENDBRANCH  13  15
ENDBRANCH  12  13
ENDBRANCH  11  12
ENDBRANCH  10  11
ENDBRANCH   9  10
ENDBRANCH   1   9
BRANCH   6  16
ATOM     16  C   UNL     1       2.732   5.881  19.517  0.00  0.00    +0.000 C 
BRANCH  16  17
ATOM     17  C   UNL     1       2.163   7.242  19.723  0.00  0.00    +0.000 A 
ATOM     18  N   UNL     1       1.603   7.745  20.800  0.00  0.00    +0.000 NA
ATOM     19  C   UNL     1       1.087   8.935  20.335  0.00  0.00    +0.000 A 
ATOM     20  N   UNL     1       1.390   9.195  19.052  0.00  0.00    +0.000 NA
ATOM     21  O   UNL     1       2.096   8.065  18.640  0.00  0.00    +0.000 OA
BRANCH  19  22
ATOM     22  C   UNL     1       0.219   9.768  21.159  0.00  0.00    +0.000 A 
ATOM     23  C   UNL     1      -0.276  10.984  20.659  0.00  0.00    +0.000 A 
ATOM     24  C   UNL     1      -1.050  11.821  21.467  0.00  0.00    +0.000 A 
ATOM     25  C   UNL     1      -1.342  11.448  22.777  0.00  0.00    +0.000 A 
ATOM     26  C   UNL     1      -0.867  10.240  23.281  0.00  0.00    +0.000 A 
ATOM     27  C   UNL     1      -0.092   9.401  22.476  0.00  0.00    +0.000 A 
ENDBRANCH  19  22
ENDBRANCH  16  17
ENDBRANCH   6  16
TORSDOF 9
ENDMDL
MODEL 3
REMARK VINA RESULT:      -6.9      3.222      4.835
REMARK  Name = 
REMARK  10 active torsions:
REMARK  status: ('A' for Active; 'I' for Inactive)
REMARK    1  A    between atoms: C_1  and  C_2
REMARK    2  A    between atoms: C_2  and  C_3
REMARK    3  A    between atoms: C_3  and  C_4
REMARK    4  A    between atoms: C_4  and  C_5
REMARK    5  A    between atoms: C_5  and  C_6
REMARK    6  A    between atoms: C_6  and  C_7
REMARK    7  A    between atoms: C_7  and  C_8
REMARK    8  A    between atoms: N_13  and  C_14
REMARK    9  A    between atoms: C_14  and  C_15
REMARK   10  A    between atoms: C_17  and  C_18
REMARK                            x       y       z     vdW  Elec       q    Type
REMARK                         _______ _______ _______ _____ _____    ______ ____
ROOT
ATOM      1  C   UNL     1       1.404   7.619  20.619  0.00  0.00    +0.000 C 
ATOM      2  O   UNL     1       0.814   7.504  21.692  0.00  0.00    +0.000 OA
ATOM      3  N   UNL     1       2.147   6.585  20.076  0.00  0.00    +0.000 N 
ATOM      4  C   UNL     1       2.128   5.272  20.727  0.00  0.00    +0.000 C 
ATOM      5  C   UNL     1       1.733   4.163  19.726  0.00  0.00    +0.000 C 
ATOM      6  N   UNL     1       2.509   4.163  18.462  0.00  0.00    +0.000 NA
ATOM      7  C   UNL     1       2.445   5.524  17.872  0.00  0.00    +0.000 C 
ATOM      8  C   UNL     1       2.908   6.642  18.823  0.00  0.00    +0.000 C 
ENDROOT
BRANCH   1   9
ATOM      9  C   UNL     1       1.336   8.904  19.811  0.00  0.00    +0.000 C 
BRANCH   9  10
ATOM     10  C   UNL     1       0.832  10.073  20.650  0.00  0.00    +0.000 C 
BRANCH  10  11
ATOM     11  C   UNL     1      -0.380  10.737  20.004  0.00  0.00    +0.000 C 
BRANCH  11  12
ATOM     12  C   UNL     1      -0.265  10.699  18.483  0.00  0.00    +0.000 C 
BRANCH  12  13
ATOM     13  C   UNL     1      -1.602  11.018  17.818  0.00  0.00    +0.000 C 
BRANCH  13  15
ATOM     14  C   UNL     1      -3.327  10.238  16.163  0.00  0.00    +0.000 C 
ATOM     15  C   UNL     1      -2.014   9.909  16.853  0.00  0.00    +0.000 C 
ENDBRANCH  13  15
ENDBRANCH  12  13
ENDBRANCH  11  12
ENDBRANCH  10  11
ENDBRANCH   9  10
ENDBRANCH   1   9
BRANCH   6  16
ATOM     16  C   UNL     1       3.899   3.698  18.701  0.00  0.00    +0.000 C 
BRANCH  16  17
ATOM     17  C   UNL     1       4.854   4.149  17.652  0.00  0.00    +0.000 A 
ATOM     18  N   UNL     1       4.710   4.128  16.346  0.00  0.00    +0.000 NA
ATOM     19  C   UNL     1       5.974   4.456  15.906  0.00  0.00    +0.000 A 
ATOM     20  N   UNL     1       6.835   4.752  16.895  0.00  0.00    +0.000 NA
ATOM     21  O   UNL     1       6.094   4.537  18.056  0.00  0.00    +0.000 OA
BRANCH  19  22
ATOM     22  C   UNL     1       6.336   4.390  14.495  0.00  0.00    +0.000 A 
ATOM     23  C   UNL     1       5.662   3.509  13.633  0.00  0.00    +0.000 A 
ATOM     24  C   UNL     1       6.049   3.389  12.296  0.00  0.00    +0.000 A 
ATOM     25  C   UNL     1       7.108   4.152  11.807  0.00  0.00    +0.000 A 
ATOM     26  C   UNL     1       7.776   5.038  12.647  0.00  0.00    +0.000 A 
ATOM     27  C   UNL     1       7.392   5.159  13.985  0.00  0.00    +0.000 A 
ENDBRANCH  19  22
ENDBRANCH  16  17
ENDBRANCH   6  16
TORSDOF 9
ENDMDL
MODEL 4
REMARK VINA RESULT:      -6.8      3.545      5.164
REMARK  Name = 
REMARK  10 active torsions:
REMARK  status: ('A' for Active; 'I' for Inactive)
REMARK    1  A    between atoms: C_1  and  C_2
REMARK    2  A    between atoms: C_2  and  C_3
REMARK    3  A    between atoms: C_3  and  C_4
REMARK    4  A    between atoms: C_4  and  C_5
REMARK    5  A    between atoms: C_5  and  C_6
REMARK    6  A    between atoms: C_6  and  C_7
REMARK    7  A    between atoms: C_7  and  C_8
REMARK    8  A    between atoms: N_13  and  C_14
REMARK    9  A    between atoms: C_14  and  C_15
REMARK   10  A    between atoms: C_17  and  C_18
REMARK                            x       y       z     vdW  Elec       q    Type
REMARK                         _______ _______ _______ _____ _____    ______ ____
ROOT
ATOM      1  C   UNL     1       1.449   8.172  20.403  0.00  0.00    +0.000 C 
ATOM      2  O   UNL     1       1.040   8.236  21.562  0.00  0.00    +0.000 OA
ATOM      3  N   UNL     1       2.175   7.089  19.941  0.00  0.00    +0.000 N 
ATOM      4  C   UNL     1       2.355   5.924  20.812  0.00  0.00    +0.000 C 
ATOM      5  C   UNL     1       1.896   4.628  20.106  0.00  0.00    +0.000 C 
ATOM      6  N   UNL     1       2.467   4.423  18.753  0.00  0.00    +0.000 NA
ATOM      7  C   UNL     1       2.211   5.643  17.946  0.00  0.00    +0.000 C 
ATOM      8  C   UNL     1       2.729   6.941  18.590  0.00  0.00    +0.000 C 
ENDROOT
BRANCH   1   9
ATOM      9  C   UNL     1       1.161   9.276  19.400  0.00  0.00    +0.000 C 
BRANCH   9  10
ATOM     10  C   UNL     1      -0.271   9.786  19.515  0.00  0.00    +0.000 C 
BRANCH  10  11
ATOM     11  C   UNL     1      -0.647  10.659  18.322  0.00  0.00    +0.000 C 
BRANCH  11  12
ATOM     12  C   UNL     1      -1.422   9.847  17.286  0.00  0.00    +0.000 C 
BRANCH  12  13
ATOM     13  C   UNL     1      -2.926   9.915  17.541  0.00  0.00    +0.000 C 
BRANCH  13  15
ATOM     14  C   UNL     1      -4.656  11.665  17.027  0.00  0.00    +0.000 C 
ATOM     15  C   UNL     1      -3.377  11.353  17.785  0.00  0.00    +0.000 C 
ENDBRANCH  13  15
ENDBRANCH  12  13
ENDBRANCH  11  12
ENDBRANCH  10  11
ENDBRANCH   9  10
ENDBRANCH   1   9
BRANCH   6  16
ATOM     16  C   UNL     1       3.908   4.076  18.840  0.00  0.00    +0.000 C 
BRANCH  16  17
ATOM     17  C   UNL     1       4.697   4.560  17.673  0.00  0.00    +0.000 A 
ATOM     18  N   UNL     1       4.685   4.122  16.434  0.00  0.00    +0.000 NA
ATOM     19  C   UNL     1       5.752   4.791  15.876  0.00  0.00    +0.000 A 
ATOM     20  N   UNL     1       6.341   5.667  16.707  0.00  0.00    +0.000 NA
ATOM     21  O   UNL     1       5.647   5.506  17.906  0.00  0.00    +0.000 OA
BRANCH  19  22
ATOM     22  C   UNL     1       6.230   4.486  14.532  0.00  0.00    +0.000 A 
ATOM     23  C   UNL     1       7.393   5.100  14.040  0.00  0.00    +0.000 A 
ATOM     24  C   UNL     1       7.818   4.867  12.729  0.00  0.00    +0.000 A 
ATOM     25  C   UNL     1       7.088   4.015  11.902  0.00  0.00    +0.000 A 
ATOM     26  C   UNL     1       5.940   3.392  12.382  0.00  0.00    +0.000 A 
ATOM     27  C   UNL     1       5.512   3.624  13.692  0.00  0.00    +0.000 A 
ENDBRANCH  19  22
ENDBRANCH  16  17
ENDBRANCH   6  16
TORSDOF 9
ENDMDL
MODEL 5
REMARK VINA RESULT:      -6.8      3.054      9.137
REMARK  Name = 
REMARK  10 active torsions:
REMARK  status: ('A' for Active; 'I' for Inactive)
REMARK    1  A    between atoms: C_1  and  C_2
REMARK    2  A    between atoms: C_2  and  C_3
REMARK    3  A    between atoms: C_3  and  C_4
REMARK    4  A    between atoms: C_4  and  C_5
REMARK    5  A    between atoms: C_5  and  C_6
REMARK    6  A    between atoms: C_6  and  C_7
REMARK    7  A    between atoms: C_7  and  C_8
REMARK    8  A    between atoms: N_13  and  C_14
REMARK    9  A    between atoms: C_14  and  C_15
REMARK   10  A    between atoms: C_17  and  C_18
REMARK                            x       y       z     vdW  Elec       q    Type
REMARK                         _______ _______ _______ _____ _____    ______ ____
ROOT
ATOM      1  C   UNL     1       6.652   5.201  15.843  0.00  0.00    +0.000 C 
ATOM      2  O   UNL     1       7.553   6.013  15.636  0.00  0.00    +0.000 OA
ATOM      3  N   UNL     1       5.698   5.400  16.826  0.00  0.00    +0.000 N 
ATOM      4  C   UNL     1       5.677   6.671  17.556  0.00  0.00    +0.000 C 
ATOM      5  C   UNL     1       4.279   7.326  17.488  0.00  0.00    +0.000 C 
ATOM      6  N   UNL     1       3.156   6.432  17.863  0.00  0.00    +0.000 NA
ATOM      7  C   UNL     1       3.253   5.192  17.053  0.00  0.00    +0.000 C 
ATOM      8  C   UNL     1       4.610   4.475  17.164  0.00  0.00    +0.000 C 
ENDROOT
BRANCH   1   9
ATOM      9  C   UNL     1       6.520   3.936  15.014  0.00  0.00    +0.000 C 
BRANCH   9  10
ATOM     10  C   UNL     1       6.885   4.177  13.553  0.00  0.00    +0.000 C 
BRANCH  10  11
ATOM     11  C   UNL     1       6.245   3.133  12.642  0.00  0.00    +0.000 C 
BRANCH  11  12
ATOM     12  C   UNL     1       4.832   3.557  12.251  0.00  0.00    +0.000 C 
BRANCH  12  13
ATOM     13  C   UNL     1       4.362   2.828  10.995  0.00  0.00    +0.000 C 
BRANCH  13  15
ATOM     14  C   UNL     1       2.968   4.279   9.488  0.00  0.00    +0.000 C 
ATOM     15  C   UNL     1       2.948   3.254  10.609  0.00  0.00    +0.000 C 
ENDBRANCH  13  15
ENDBRANCH  12  13
ENDBRANCH  11  12
ENDBRANCH  10  11
ENDBRANCH   9  10
ENDBRANCH   1   9
BRANCH   6  16
ATOM     16  C   UNL     1       3.158   6.173  19.324  0.00  0.00    +0.000 C 
BRANCH  16  17
ATOM     17  C   UNL     1       2.106   6.934  20.054  0.00  0.00    +0.000 A 
ATOM     18  N   UNL     1       1.818   8.214  19.982  0.00  0.00    +0.000 NA
ATOM     19  C   UNL     1       0.925   8.373  21.020  0.00  0.00    +0.000 A 
ATOM     20  N   UNL     1       0.610   7.227  21.647  0.00  0.00    +0.000 NA
ATOM     21  O   UNL     1       1.404   6.271  21.013  0.00  0.00    +0.000 OA
BRANCH  19  22
ATOM     22  C   UNL     1       0.456   9.690  21.431  0.00  0.00    +0.000 A 
ATOM     23  C   UNL     1      -0.427   9.819  22.516  0.00  0.00    +0.000 A 
ATOM     24  C   UNL     1      -0.937  11.070  22.872  0.00  0.00    +0.000 A 
ATOM     25  C   UNL     1      -0.565  12.204  22.152  0.00  0.00    +0.000 A 
ATOM     26  C   UNL     1       0.318  12.092  21.082  0.00  0.00    +0.000 A 
ATOM     27  C   UNL     1       0.829  10.841  20.723  0.00  0.00    +0.000 A 
ENDBRANCH  19  22
ENDBRANCH  16  17
ENDBRANCH   6  16
TORSDOF 9
ENDMDL
MODEL 6
REMARK VINA RESULT:      -6.8      1.682      2.968
REMARK  Name = 
REMARK  10 active torsions:
REMARK  status: ('A' for Active; 'I' for Inactive)
REMARK    1  A    between atoms: C_1  and  C_2
REMARK    2  A    between atoms: C_2  and  C_3
REMARK    3  A    between atoms: C_3  and  C_4
REMARK    4  A    between atoms: C_4  and  C_5
REMARK    5  A    between atoms: C_5  and  C_6
REMARK    6  A    between atoms: C_6  and  C_7
REMARK    7  A    between atoms: C_7  and  C_8
REMARK    8  A    between atoms: N_13  and  C_14
REMARK    9  A    between atoms: C_14  and  C_15
REMARK   10  A    between atoms: C_17  and  C_18
REMARK                            x       y       z     vdW  Elec       q    Type
REMARK                         _______ _______ _______ _____ _____    ______ ____
ROOT
ATOM      1  C   UNL     1       3.113   2.509  19.627  0.00  0.00    +0.000 C 
ATOM      2  O   UNL     1       2.427   1.707  18.995  0.00  0.00    +0.000 OA
ATOM      3  N   UNL     1       4.086   3.281  19.016  0.00  0.00    +0.000 N 
ATOM      4  C   UNL     1       4.219   3.243  17.557  0.00  0.00    +0.000 C 
ATOM      5  C   UNL     1       4.148   4.664  16.956  0.00  0.00    +0.000 C 
ATOM      6  N   UNL     1       5.059   5.650  17.587  0.00  0.00    +0.000 NA
ATOM      7  C   UNL     1       4.829   5.631  19.054  0.00  0.00    +0.000 C 
ATOM      8  C   UNL     1       4.970   4.237  19.692  0.00  0.00    +0.000 C 
ENDROOT
BRANCH   1   9
ATOM      9  C   UNL     1       2.918   2.715  21.119  0.00  0.00    +0.000 C 
BRANCH   9  10
ATOM     10  C   UNL     1       1.534   3.269  21.437  0.00  0.00    +0.000 C 
BRANCH  10  11
ATOM     11  C   UNL     1       1.142   4.377  20.463  0.00  0.00    +0.000 C 
BRANCH  11  12
ATOM     12  C   UNL     1       1.634   5.732  20.966  0.00  0.00    +0.000 C 
BRANCH  12  13
ATOM     13  C   UNL     1       1.926   6.680  19.806  0.00  0.00    +0.000 C 
BRANCH  13  15
ATOM     14  C   UNL     1       1.073   8.218  21.604  0.00  0.00    +0.000 C 
ATOM     15  C   UNL     1       1.587   8.122  20.177  0.00  0.00    +0.000 C 
ENDBRANCH  13  15
ENDBRANCH  12  13
ENDBRANCH  11  12
ENDBRANCH  10  11
ENDBRANCH   9  10
ENDBRANCH   1   9
BRANCH   6  16
ATOM     16  C   UNL     1       6.469   5.372  17.217  0.00  0.00    +0.000 C 
BRANCH  16  17
ATOM     17  C   UNL     1       6.657   5.150  15.756  0.00  0.00    +0.000 A 
ATOM     18  N   UNL     1       5.972   4.372  14.948  0.00  0.00    +0.000 NA
ATOM     19  C   UNL     1       6.725   4.411  13.795  0.00  0.00    +0.000 A 
ATOM     20  N   UNL     1       7.779   5.242  13.860  0.00  0.00    +0.000 NA
ATOM     21  O   UNL     1       7.741   5.726  15.168  0.00  0.00    +0.000 OA
BRANCH  19  22
ATOM     22  C   UNL     1       6.430   3.546  12.659  0.00  0.00    +0.000 A 
ATOM     23  C   UNL     1       5.100   3.242  12.328  0.00  0.00    +0.000 A 
ATOM     24  C   UNL     1       4.811   2.359  11.284  0.00  0.00    +0.000 A 
ATOM     25  C   UNL     1       5.848   1.777  10.559  0.00  0.00    +0.000 A 
ATOM     26  C   UNL     1       7.171   2.079  10.869  0.00  0.00    +0.000 A 
ATOM     27  C   UNL     1       7.463   2.960  11.913  0.00  0.00    +0.000 A 
ENDBRANCH  19  22
ENDBRANCH  16  17
ENDBRANCH   6  16
TORSDOF 9
ENDMDL
MODEL 7
REMARK VINA RESULT:      -6.7      3.530      8.791
REMARK  Name = 
REMARK  10 active torsions:
REMARK  status: ('A' for Active; 'I' for Inactive)
REMARK    1  A    between atoms: C_1  and  C_2
REMARK    2  A    between atoms: C_2  and  C_3
REMARK    3  A    between atoms: C_3  and  C_4
REMARK    4  A    between atoms: C_4  and  C_5
REMARK    5  A    between atoms: C_5  and  C_6
REMARK    6  A    between atoms: C_6  and  C_7
REMARK    7  A    between atoms: C_7  and  C_8
REMARK    8  A    between atoms: N_13  and  C_14
REMARK    9  A    between atoms: C_14  and  C_15
REMARK   10  A    between atoms: C_17  and  C_18
REMARK                            x       y       z     vdW  Elec       q    Type
REMARK                         _______ _______ _______ _____ _____    ______ ____
ROOT
ATOM      1  C   UNL     1       7.109   6.257  16.930  0.00  0.00    +0.000 C 
ATOM      2  O   UNL     1       7.627   6.118  15.823  0.00  0.00    +0.000 OA
ATOM      3  N   UNL     1       5.896   5.673  17.249  0.00  0.00    +0.000 N 
ATOM      4  C   UNL     1       5.269   4.757  16.293  0.00  0.00    +0.000 C 
ATOM      5  C   UNL     1       4.946   3.399  16.956  0.00  0.00    +0.000 C 
ATOM      6  N   UNL     1       4.195   3.495  18.232  0.00  0.00    +0.000 NA
ATOM      7  C   UNL     1       4.923   4.421  19.136  0.00  0.00    +0.000 C 
ATOM      8  C   UNL     1       5.189   5.810  18.528  0.00  0.00    +0.000 C 
ENDROOT
BRANCH   1   9
ATOM      9  C   UNL     1       7.784   7.066  18.025  0.00  0.00    +0.000 C 
BRANCH   9  10
ATOM     10  C   UNL     1       7.879   8.543  17.659  0.00  0.00    +0.000 C 
BRANCH  10  11
ATOM     11  C   UNL     1       8.777   9.299  18.634  0.00  0.00    +0.000 C 
BRANCH  11  12
ATOM     12  C   UNL     1       8.949  10.750  18.190  0.00  0.00    +0.000 C 
BRANCH  12  13
ATOM     13  C   UNL     1      10.205  11.370  18.799  0.00  0.00    +0.000 C 
BRANCH  13  15
ATOM     14  C   UNL     1      10.938  13.230  17.274  0.00  0.00    +0.000 C 
ATOM     15  C   UNL     1      11.189  11.797  17.712  0.00  0.00    +0.000 C 
ENDBRANCH  13  15
ENDBRANCH  12  13
ENDBRANCH  11  12
ENDBRANCH  10  11
ENDBRANCH   9  10
ENDBRANCH   1   9
BRANCH   6  16
ATOM     16  C   UNL     1       2.791   3.909  17.984  0.00  0.00    +0.000 C 
BRANCH  16  17
ATOM     17  C   UNL     1       2.269   4.850  19.013  0.00  0.00    +0.000 A 
ATOM     18  N   UNL     1       1.797   6.066  18.850  0.00  0.00    +0.000 NA
ATOM     19  C   UNL     1       1.677   6.510  20.149  0.00  0.00    +0.000 A 
ATOM     20  N   UNL     1       1.977   5.580  21.072  0.00  0.00    +0.000 NA
ATOM     21  O   UNL     1       2.382   4.480  20.317  0.00  0.00    +0.000 OA
BRANCH  19  22
ATOM     22  C   UNL     1       1.340   7.894  20.457  0.00  0.00    +0.000 A 
ATOM     23  C   UNL     1       1.390   8.874  19.453  0.00  0.00    +0.000 A 
ATOM     24  C   UNL     1       1.137  10.215  19.755  0.00  0.00    +0.000 A 
ATOM     25  C   UNL     1       0.827  10.587  21.061  0.00  0.00    +0.000 A 
ATOM     26  C   UNL     1       0.762   9.624  22.064  0.00  0.00    +0.000 A 
ATOM     27  C   UNL     1       1.016   8.283  21.765  0.00  0.00    +0.000 A 
ENDBRANCH  19  22
ENDBRANCH  16  17
ENDBRANCH   6  16
TORSDOF 9
ENDMDL
MODEL 8
REMARK VINA RESULT:      -6.7      4.266      7.500
REMARK  Name = 
REMARK  10 active torsions:
REMARK  status: ('A' for Active; 'I' for Inactive)
REMARK    1  A    between atoms: C_1  and  C_2
REMARK    2  A    between atoms: C_2  and  C_3
REMARK    3  A    between atoms: C_3  and  C_4
REMARK    4  A    between atoms: C_4  and  C_5
REMARK    5  A    between atoms: C_5  and  C_6
REMARK    6  A    between atoms: C_6  and  C_7
REMARK    7  A    between atoms: C_7  and  C_8
REMARK    8  A    between atoms: N_13  and  C_14
REMARK    9  A    between atoms: C_14  and  C_15
REMARK   10  A    between atoms: C_17  and  C_18
REMARK                            x       y       z     vdW  Elec       q    Type
REMARK                         _______ _______ _______ _____ _____    ______ ____
ROOT
ATOM      1  C   UNL     1       3.857   3.886  17.683  0.00  0.00    +0.000 C 
ATOM      2  O   UNL     1       4.026   2.679  17.510  0.00  0.00    +0.000 OA
ATOM      3  N   UNL     1       4.918   4.753  17.876  0.00  0.00    +0.000 N 
ATOM      4  C   UNL     1       6.288   4.250  17.741  0.00  0.00    +0.000 C 
ATOM      5  C   UNL     1       7.093   5.098  16.732  0.00  0.00    +0.000 C 
ATOM      6  N   UNL     1       7.043   6.561  16.973  0.00  0.00    +0.000 NA
ATOM      7  C   UNL     1       5.620   6.973  17.068  0.00  0.00    +0.000 C 
ATOM      8  C   UNL     1       4.812   6.196  18.122  0.00  0.00    +0.000 C 
ENDROOT
BRANCH   1   9
ATOM      9  C   UNL     1       2.468   4.501  17.676  0.00  0.00    +0.000 C 
BRANCH   9  10
ATOM     10  C   UNL     1       1.383   3.448  17.876  0.00  0.00    +0.000 C 
BRANCH  10  11
ATOM     11  C   UNL     1       0.839   3.477  19.302  0.00  0.00    +0.000 C 
BRANCH  11  12
ATOM     12  C   UNL     1       1.297   4.741  20.025  0.00  0.00    +0.000 C 
BRANCH  12  13
ATOM     13  C   UNL     1       2.254   4.409  21.167  0.00  0.00    +0.000 C 
BRANCH  13  15
ATOM     14  C   UNL     1       1.428   2.288  22.236  0.00  0.00    +0.000 C 
ATOM     15  C   UNL     1       2.453   2.901  21.297  0.00  0.00    +0.000 C 
ENDBRANCH  13  15
ENDBRANCH  12  13
ENDBRANCH  11  12
ENDBRANCH  10  11
ENDBRANCH   9  10
ENDBRANCH   1   9
BRANCH   6  16
ATOM     16  C   UNL     1       7.833   6.921  18.177  0.00  0.00    +0.000 C 
BRANCH  16  17
ATOM     17  C   UNL     1       8.273   8.344  18.184  0.00  0.00    +0.000 A 
ATOM     18  N   UNL     1       9.030   8.966  19.059  0.00  0.00    +0.000 NA
ATOM     19  C   UNL     1       8.911  10.282  18.667  0.00  0.00    +0.000 A 
ATOM     20  N   UNL     1       8.184  10.454  17.550  0.00  0.00    +0.000 NA
ATOM     21  O   UNL     1       7.750   9.167  17.234  0.00  0.00    +0.000 OA
BRANCH  19  22
ATOM     22  C   UNL     1       9.459  11.372  19.466  0.00  0.00    +0.000 A 
ATOM     23  C   UNL     1       9.284  11.384  20.860  0.00  0.00    +0.000 A 
ATOM     24  C   UNL     1       9.745  12.459  21.624  0.00  0.00    +0.000 A 
ATOM     25  C   UNL     1      10.390  13.528  21.004  0.00  0.00    +0.000 A 
ATOM     26  C   UNL     1      10.580  13.522  19.625  0.00  0.00    +0.000 A 
ATOM     27  C   UNL     1      10.119  12.449  18.858  0.00  0.00    +0.000 A 
ENDBRANCH  19  22
ENDBRANCH  16  17
ENDBRANCH   6  16
TORSDOF 9
ENDMDL
MODEL 9
REMARK VINA RESULT:      -6.6      1.789      3.331
REMARK  Name = 
REMARK  10 active torsions:
REMARK  status: ('A' for Active; 'I' for Inactive)
REMARK    1  A    between atoms: C_1  and  C_2
REMARK    2  A    between atoms: C_2  and  C_3
REMARK    3  A    between atoms: C_3  and  C_4
REMARK    4  A    between atoms: C_4  and  C_5
REMARK    5  A    between atoms: C_5  and  C_6
REMARK    6  A    between atoms: C_6  and  C_7
REMARK    7  A    between atoms: C_7  and  C_8
REMARK    8  A    between atoms: N_13  and  C_14
REMARK    9  A    between atoms: C_14  and  C_15
REMARK   10  A    between atoms: C_17  and  C_18
REMARK                            x       y       z     vdW  Elec       q    Type
REMARK                         _______ _______ _______ _____ _____    ______ ____
ROOT
ATOM      1  C   UNL     1       2.860   6.316  18.832  0.00  0.00    +0.000 C 
ATOM      2  O   UNL     1       2.140   6.934  18.050  0.00  0.00    +0.000 OA
ATOM      3  N   UNL     1       4.080   5.790  18.445  0.00  0.00    +0.000 N 
ATOM      4  C   UNL     1       4.593   6.085  17.104  0.00  0.00    +0.000 C 
ATOM      5  C   UNL     1       6.017   6.681  17.174  0.00  0.00    +0.000 C 
ATOM      6  N   UNL     1       6.976   5.900  17.994  0.00  0.00    +0.000 NA
ATOM      7  C   UNL     1       6.376   5.678  19.334  0.00  0.00    +0.000 C 
ATOM      8  C   UNL     1       4.988   5.014  19.297  0.00  0.00    +0.000 C 
ENDROOT
BRANCH   1   9
ATOM      9  C   UNL     1       2.461   6.110  20.283  0.00  0.00    +0.000 C 
BRANCH   9  10
ATOM     10  C   UNL     1       1.171   6.849  20.625  0.00  0.00    +0.000 C 
BRANCH  10  11
ATOM     11  C   UNL     1       1.460   8.176  21.321  0.00  0.00    +0.000 C 
BRANCH  11  12
ATOM     12  C   UNL     1       0.289   9.139  21.147  0.00  0.00    +0.000 C 
BRANCH  12  13
ATOM     13  C   UNL     1       0.691  10.356  20.318  0.00  0.00    +0.000 C 
BRANCH  13  15
ATOM     14  C   UNL     1      -0.542  10.031  18.151  0.00  0.00    +0.000 C 
ATOM     15  C   UNL     1      -0.465  10.830  19.441  0.00  0.00    +0.000 C 
ENDBRANCH  13  15
ENDBRANCH  12  13
ENDBRANCH  11  12
ENDBRANCH  10  11
ENDBRANCH   9  10
ENDBRANCH   1   9
BRANCH   6  16
ATOM     16  C   UNL     1       7.346   4.638  17.308  0.00  0.00    +0.000 C 
BRANCH  16  17
ATOM     17  C   UNL     1       7.022   4.647  15.854  0.00  0.00    +0.000 A 
ATOM     18  N   UNL     1       6.188   3.875  15.193  0.00  0.00    +0.000 NA
ATOM     19  C   UNL     1       6.468   4.196  13.882  0.00  0.00    +0.000 A 
ATOM     20  N   UNL     1       7.370   5.182  13.744  0.00  0.00    +0.000 NA
ATOM     21  O   UNL     1       7.748   5.475  15.054  0.00  0.00    +0.000 OA
BRANCH  19  22
ATOM     22  C   UNL     1       5.889   3.451  12.771  0.00  0.00    +0.000 A 
ATOM     23  C   UNL     1       6.634   2.451  12.125  0.00  0.00    +0.000 A 
ATOM     24  C   UNL     1       6.112   1.782  11.015  0.00  0.00    +0.000 A 
ATOM     25  C   UNL     1       4.840   2.101  10.545  0.00  0.00    +0.000 A 
ATOM     26  C   UNL     1       4.086   3.081  11.184  0.00  0.00    +0.000 A 
ATOM     27  C   UNL     1       4.606   3.753  12.293  0.00  0.00    +0.000 A 
ENDBRANCH  19  22
ENDBRANCH  16  17
ENDBRANCH   6  16
TORSDOF 9
ENDMDL
