MODEL 1
REMARK VINA RESULT:      -8.0      0.000      0.000
REMARK  Name = 
REMARK  10 active torsions:
REMARK  status: ('A' for Active; 'I' for Inactive)
REMARK    1  A    between atoms: C_1  and  C_2
REMARK    2  A    between atoms: C_4  and  C_5
REMARK    3  A    between atoms: C_6  and  S_7
REMARK    4  A    between atoms: S_7  and  N_10
REMARK    5  A    between atoms: N_10  and  C_11
REMARK    6  A    between atoms: C_11  and  C_12
REMARK    7  A    between atoms: C_11  and  C_13
REMARK    8  A    between atoms: C_13  and  N_14
REMARK    9  A    between atoms: N_14  and  C_15
REMARK   10  A    between atoms: C_24  and  C_25
REMARK                            x       y       z     vdW  Elec       q    Type
REMARK                         _______ _______ _______ _____ _____    ______ ____
ROOT
ATOM      1  C   UNL     1       3.164   6.202  18.345  0.00  0.00    +0.000 C 
ATOM      2  C   UNL     1       2.030   5.192  18.341  0.00  0.00    +0.000 C 
ENDROOT
BRANCH   1   3
ATOM      3  N   UNL     1       4.165   5.932  19.405  0.00  0.00    +0.000 NA
ATOM      4  H   UNL     1       4.464   6.776  19.885  0.00  0.00    +0.000 HD
BRANCH   3   5
ATOM      5  S   UNL     1       5.400   4.790  19.261  0.00  0.00    +0.000 S 
ATOM      6  O   UNL     1       4.921   3.516  19.754  0.00  0.00    +0.000 OA
ATOM      7  O   UNL     1       6.575   5.383  19.852  0.00  0.00    +0.000 OA
BRANCH   5  13
ATOM      8  C   UNL     1       6.691   4.368  13.285  0.00  0.00    +0.000 C 
ATOM      9  C   UNL     1       6.332   4.508  14.733  0.00  0.00    +0.000 A 
ATOM     10  C   UNL     1       6.938   5.472  15.534  0.00  0.00    +0.000 A 
ATOM     11  C   UNL     1       6.643   5.583  16.907  0.00  0.00    +0.000 A 
ATOM     12  C   UNL     1       7.403   6.650  17.655  0.00  0.00    +0.000 C 
ATOM     13  C   UNL     1       5.686   4.699  17.479  0.00  0.00    +0.000 A 
ATOM     14  C   UNL     1       5.041   3.726  16.670  0.00  0.00    +0.000 A 
ATOM     15  C   UNL     1       4.040   2.687  17.108  0.00  0.00    +0.000 C 
ATOM     16  C   UNL     1       5.401   3.644  15.305  0.00  0.00    +0.000 A 
ENDBRANCH   5  13
ENDBRANCH   3   5
ENDBRANCH   1   3
BRANCH   1  17
ATOM     17  C   UNL     1       2.682   7.667  18.358  0.00  0.00    +0.000 C 
BRANCH  17  18
ATOM     18  N   UNL     1       2.024   7.980  19.628  0.00  0.00    +0.000 N 
ATOM     19  H   UNL     1       2.594   7.755  20.443  0.00  0.00    +0.000 HD
BRANCH  18  20
ATOM     20  C   UNL     1       1.176   9.072  19.776  0.00  0.00    +0.000 A 
ATOM     21  C   UNL     1       0.640   9.756  18.663  0.00  0.00    +0.000 A 
ATOM     22  C   UNL     1      -0.237  10.835  18.783  0.00  0.00    +0.000 A 
ATOM     23  C   UNL     1      -0.659  11.275  20.032  0.00  0.00    +0.000 A 
ATOM     24  C   UNL     1      -0.162  10.588  21.139  0.00  0.00    +0.000 A 
ATOM     25  N   UNL     1      -0.407  10.749  22.477  0.00  0.00    +0.000 N 
ATOM     26  N   UNL     1       0.267   9.901  23.269  0.00  0.00    +0.000 NA
ATOM     27  C   UNL     1       0.946   9.148  22.396  0.00  0.00    +0.000 A 
ATOM     28  C   UNL     1       0.731   9.521  21.045  0.00  0.00    +0.000 A 
ATOM     29  H   UNL     1      -1.029  11.421  22.912  0.00  0.00    +0.000 HD
ENDBRANCH  18  20
ENDBRANCH  17  18
ENDBRANCH   1  17
TORSDOF 6
ENDMDL
MODEL 2
REMARK VINA RESULT:      -8.0      1.434      1.793
REMARK  Name = 
REMARK  10 active torsions:
REMARK  status: ('A' for Active; 'I' for Inactive)
REMARK    1  A    between atoms: C_1  and  C_2
REMARK    2  A    between atoms: C_4  and  C_5
REMARK    3  A    between atoms: C_6  and  S_7
REMARK    4  A    between atoms: S_7  and  N_10
REMARK    5  A    between atoms: N_10  and  C_11
REMARK    6  A    between atoms: C_11  and  C_12
REMARK    7  A    between atoms: C_11  and  C_13
REMARK    8  A    between atoms: C_13  and  N_14
REMARK    9  A    between atoms: N_14  and  C_15
REMARK   10  A    between atoms: C_24  and  C_25
REMARK                            x       y       z     vdW  Elec       q    Type
REMARK                         _______ _______ _______ _____ _____    ______ ____
ROOT
ATOM      1  C   UNL     1       2.139   4.064  20.222  0.00  0.00    +0.000 C 
ATOM      2  C   UNL     1       2.671   3.158  21.318  0.00  0.00    +0.000 C 
ENDROOT
BRANCH   1   3
ATOM      3  N   UNL     1       3.078   4.195  19.082  0.00  0.00    +0.000 NA
ATOM      4  H   UNL     1       2.755   3.709  18.251  0.00  0.00    +0.000 HD
BRANCH   3   5
ATOM      5  S   UNL     1       4.759   4.172  19.242  0.00  0.00    +0.000 S 
ATOM      6  O   UNL     1       5.162   2.888  19.775  0.00  0.00    +0.000 OA
ATOM      7  O   UNL     1       5.117   5.378  19.948  0.00  0.00    +0.000 OA
BRANCH   5  13
ATOM      8  C   UNL     1       6.975   4.518  13.539  0.00  0.00    +0.000 C 
ATOM      9  C   UNL     1       6.414   4.488  14.928  0.00  0.00    +0.000 A 
ATOM     10  C   UNL     1       7.191   4.848  16.025  0.00  0.00    +0.000 A 
ATOM     11  C   UNL     1       6.689   4.781  17.339  0.00  0.00    +0.000 A 
ATOM     12  C   UNL     1       7.657   5.168  18.430  0.00  0.00    +0.000 C 
ATOM     13  C   UNL     1       5.347   4.352  17.543  0.00  0.00    +0.000 A 
ATOM     14  C   UNL     1       4.534   4.003  16.432  0.00  0.00    +0.000 A 
ATOM     15  C   UNL     1       3.115   3.492  16.459  0.00  0.00    +0.000 C 
ATOM     16  C   UNL     1       5.104   4.064  15.140  0.00  0.00    +0.000 A 
ENDBRANCH   5  13
ENDBRANCH   3   5
ENDBRANCH   1   3
BRANCH   1  17
ATOM     17  C   UNL     1       1.654   5.434  20.737  0.00  0.00    +0.000 C 
BRANCH  17  18
ATOM     18  N   UNL     1       2.554   6.499  20.288  0.00  0.00    +0.000 N 
ATOM     19  H   UNL     1       3.422   6.149  19.884  0.00  0.00    +0.000 HD
BRANCH  18  20
ATOM     20  C   UNL     1       2.083   7.691  19.750  0.00  0.00    +0.000 A 
ATOM     21  C   UNL     1       2.105   7.942  18.361  0.00  0.00    +0.000 A 
ATOM     22  C   UNL     1       1.611   9.118  17.792  0.00  0.00    +0.000 A 
ATOM     23  C   UNL     1       1.030  10.102  18.582  0.00  0.00    +0.000 A 
ATOM     24  C   UNL     1       0.972   9.852  19.953  0.00  0.00    +0.000 A 
ATOM     25  N   UNL     1       0.440  10.592  20.976  0.00  0.00    +0.000 N 
ATOM     26  N   UNL     1       0.578  10.035  22.189  0.00  0.00    +0.000 NA
ATOM     27  C   UNL     1       1.196   8.879  21.923  0.00  0.00    +0.000 A 
ATOM     28  C   UNL     1       1.477   8.696  20.546  0.00  0.00    +0.000 A 
ATOM     29  H   UNL     1      -0.033  11.486  20.908  0.00  0.00    +0.000 HD
ENDBRANCH  18  20
ENDBRANCH  17  18
ENDBRANCH   1  17
TORSDOF 6
ENDMDL
MODEL 3
REMARK VINA RESULT:      -7.9      1.734      2.961
REMARK  Name = 
REMARK  10 active torsions:
REMARK  status: ('A' for Active; 'I' for Inactive)
REMARK    1  A    between atoms: C_1  and  C_2
REMARK    2  A    between atoms: C_4  and  C_5
REMARK    3  A    between atoms: C_6  and  S_7
REMARK    4  A    between atoms: S_7  and  N_10
REMARK    5  A    between atoms: N_10  and  C_11
REMARK    6  A    between atoms: C_11  and  C_12
REMARK    7  A    between atoms: C_11  and  C_13
REMARK    8  A    between atoms: C_13  and  N_14
REMARK    9  A    between atoms: N_14  and  C_15
REMARK   10  A    between atoms: C_24  and  C_25
REMARK                            x       y       z     vdW  Elec       q    Type
REMARK                         _______ _______ _______ _____ _____    ______ ____
ROOT
ATOM      1  C   UNL     1       1.673   4.657  19.394  0.00  0.00    +0.000 C 
ATOM      2  C   UNL     1       1.288   3.189  19.391  0.00  0.00    +0.000 C 
ENDROOT
BRANCH   1   3
ATOM      3  N   UNL     1       2.884   4.932  18.583  0.00  0.00    +0.000 NA
ATOM      4  H   UNL     1       2.716   4.840  17.586  0.00  0.00    +0.000 HD
BRANCH   3   5
ATOM      5  S   UNL     1       4.441   4.460  19.031  0.00  0.00    +0.000 S 
ATOM      6  O   UNL     1       4.393   3.109  19.548  0.00  0.00    +0.000 OA
ATOM      7  O   UNL     1       4.965   5.519  19.860  0.00  0.00    +0.000 OA
BRANCH   5  13
ATOM      8  C   UNL     1       7.315   4.812  13.629  0.00  0.00    +0.000 C 
ATOM      9  C   UNL     1       6.639   4.675  14.959  0.00  0.00    +0.000 A 
ATOM     10  C   UNL     1       5.394   4.065  15.073  0.00  0.00    +0.000 A 
ATOM     11  C   UNL     1       4.728   3.971  16.311  0.00  0.00    +0.000 A 
ATOM     12  C   UNL     1       3.369   3.316  16.276  0.00  0.00    +0.000 C 
ATOM     13  C   UNL     1       5.358   4.497  17.474  0.00  0.00    +0.000 A 
ATOM     14  C   UNL     1       6.639   5.101  17.378  0.00  0.00    +0.000 A 
ATOM     15  C   UNL     1       7.435   5.744  18.487  0.00  0.00    +0.000 C 
ATOM     16  C   UNL     1       7.244   5.191  16.103  0.00  0.00    +0.000 A 
ENDBRANCH   5  13
ENDBRANCH   3   5
ENDBRANCH   1   3
BRANCH   1  17
ATOM     17  C   UNL     1       1.769   5.265  20.808  0.00  0.00    +0.000 C 
BRANCH  17  18
ATOM     18  N   UNL     1       2.332   6.616  20.748  0.00  0.00    +0.000 N 
ATOM     19  H   UNL     1       3.267   6.645  20.343  0.00  0.00    +0.000 HD
BRANCH  18  20
ATOM     20  C   UNL     1       1.545   7.738  20.515  0.00  0.00    +0.000 A 
ATOM     21  C   UNL     1       0.643   8.231  21.482  0.00  0.00    +0.000 A 
ATOM     22  C   UNL     1      -0.136   9.372  21.285  0.00  0.00    +0.000 A 
ATOM     23  C   UNL     1      -0.032  10.113  20.114  0.00  0.00    +0.000 A 
ATOM     24  C   UNL     1       0.879   9.655  19.163  0.00  0.00    +0.000 A 
ATOM     25  N   UNL     1       1.236  10.170  17.944  0.00  0.00    +0.000 N 
ATOM     26  N   UNL     1       2.153   9.445  17.285  0.00  0.00    +0.000 NA
ATOM     27  C   UNL     1       2.414   8.444  18.134  0.00  0.00    +0.000 A 
ATOM     28  C   UNL     1       1.653   8.507  19.328  0.00  0.00    +0.000 A 
ATOM     29  H   UNL     1       0.888  11.017  17.508  0.00  0.00    +0.000 HD
ENDBRANCH  18  20
ENDBRANCH  17  18
ENDBRANCH   1  17
TORSDOF 6
ENDMDL
MODEL 4
REMARK VINA RESULT:      -7.7      1.262      2.028
REMARK  Name = 
REMARK  10 active torsions:
REMARK  status: ('A' for Active; 'I' for Inactive)
REMARK    1  A    between atoms: C_1  and  C_2
REMARK    2  A    between atoms: C_4  and  C_5
REMARK    3  A    between atoms: C_6  and  S_7
REMARK    4  A    between atoms: S_7  and  N_10
REMARK    5  A    between atoms: N_10  and  C_11
REMARK    6  A    between atoms: C_11  and  C_12
REMARK    7  A    between atoms: C_11  and  C_13
REMARK    8  A    between atoms: C_13  and  N_14
REMARK    9  A    between atoms: N_14  and  C_15
REMARK   10  A    between atoms: C_24  and  C_25
REMARK                            x       y       z     vdW  Elec       q    Type
REMARK                         _______ _______ _______ _____ _____    ______ ____
ROOT
ATOM      1  C   UNL     1       3.263   6.450  19.359  0.00  0.00    +0.000 C 
ATOM      2  C   UNL     1       3.282   6.998  17.944  0.00  0.00    +0.000 C 
ENDROOT
BRANCH   1   3
ATOM      3  N   UNL     1       3.506   4.988  19.411  0.00  0.00    +0.000 NA
ATOM      4  H   UNL     1       2.895   4.513  20.069  0.00  0.00    +0.000 HD
BRANCH   3   5
ATOM      5  S   UNL     1       5.039   4.287  19.316  0.00  0.00    +0.000 S 
ATOM      6  O   UNL     1       4.966   2.929  19.811  0.00  0.00    +0.000 OA
ATOM      7  O   UNL     1       5.951   5.219  19.932  0.00  0.00    +0.000 OA
BRANCH   5  13
ATOM      8  C   UNL     1       6.454   4.007  13.360  0.00  0.00    +0.000 C 
ATOM      9  C   UNL     1       6.091   4.131  14.808  0.00  0.00    +0.000 A 
ATOM     10  C   UNL     1       7.028   4.540  15.752  0.00  0.00    +0.000 A 
ATOM     11  C   UNL     1       6.712   4.617  17.122  0.00  0.00    +0.000 A 
ATOM     12  C   UNL     1       7.838   5.041  18.032  0.00  0.00    +0.000 C 
ATOM     13  C   UNL     1       5.393   4.284  17.544  0.00  0.00    +0.000 A 
ATOM     14  C   UNL     1       4.419   3.887  16.591  0.00  0.00    +0.000 A 
ATOM     15  C   UNL     1       2.996   3.463  16.855  0.00  0.00    +0.000 C 
ATOM     16  C   UNL     1       4.806   3.803  15.233  0.00  0.00    +0.000 A 
ENDBRANCH   5  13
ENDBRANCH   3   5
ENDBRANCH   1   3
BRANCH   1  17
ATOM     17  C   UNL     1       2.010   6.860  20.161  0.00  0.00    +0.000 C 
BRANCH  17  18
ATOM     18  N   UNL     1       1.690   8.270  19.925  0.00  0.00    +0.000 N 
ATOM     19  H   UNL     1       1.589   8.500  18.938  0.00  0.00    +0.000 HD
BRANCH  18  20
ATOM     20  C   UNL     1       0.890   9.004  20.794  0.00  0.00    +0.000 A 
ATOM     21  C   UNL     1       0.924   8.802  22.190  0.00  0.00    +0.000 A 
ATOM     22  C   UNL     1       0.155   9.546  23.087  0.00  0.00    +0.000 A 
ATOM     23  C   UNL     1      -0.674  10.566  22.637  0.00  0.00    +0.000 A 
ATOM     24  C   UNL     1      -0.694  10.799  21.263  0.00  0.00    +0.000 A 
ATOM     25  N   UNL     1      -1.365  11.735  20.522  0.00  0.00    +0.000 N 
ATOM     26  N   UNL     1      -1.148  11.653  19.200  0.00  0.00    +0.000 NA
ATOM     27  C   UNL     1      -0.280  10.641  19.098  0.00  0.00    +0.000 A 
ATOM     28  C   UNL     1       0.050  10.056  20.346  0.00  0.00    +0.000 A 
ATOM     29  H   UNL     1      -1.985  12.461  20.863  0.00  0.00    +0.000 HD
ENDBRANCH  18  20
ENDBRANCH  17  18
ENDBRANCH   1  17
TORSDOF 6
ENDMDL
MODEL 5
REMARK VINA RESULT:      -7.7      4.076      9.079
REMARK  Name = 
REMARK  10 active torsions:
REMARK  status: ('A' for Active; 'I' for Inactive)
REMARK    1  A    between atoms: C_1  and  C_2
REMARK    2  A    between atoms: C_4  and  C_5
REMARK    3  A    between atoms: C_6  and  S_7
REMARK    4  A    between atoms: S_7  and  N_10
REMARK    5  A    between atoms: N_10  and  C_11
REMARK    6  A    between atoms: C_11  and  C_12
REMARK    7  A    between atoms: C_11  and  C_13
REMARK    8  A    between atoms: C_13  and  N_14
REMARK    9  A    between atoms: N_14  and  C_15
REMARK   10  A    between atoms: C_24  and  C_25
REMARK                            x       y       z     vdW  Elec       q    Type
REMARK                         _______ _______ _______ _____ _____    ______ ____
ROOT
ATOM      1  C   UNL     1       1.310   8.767  20.520  0.00  0.00    +0.000 C 
ATOM      2  C   UNL     1       0.109   8.380  21.364  0.00  0.00    +0.000 C 
ENDROOT
BRANCH   1   3
ATOM      3  N   UNL     1       1.003   9.846  19.550  0.00  0.00    +0.000 NA
ATOM      4  H   UNL     1       1.448   9.699  18.648  0.00  0.00    +0.000 HD
BRANCH   3   5
ATOM      5  S   UNL     1       0.890  11.478  19.966  0.00  0.00    +0.000 S 
ATOM      6  O   UNL     1       1.543  12.270  18.946  0.00  0.00    +0.000 OA
ATOM      7  O   UNL     1       1.333  11.581  21.335  0.00  0.00    +0.000 OA
BRANCH   5  13
ATOM      8  C   UNL     1      -5.075  12.881  19.841  0.00  0.00    +0.000 C 
ATOM      9  C   UNL     1      -3.629  12.492  19.905  0.00  0.00    +0.000 A 
ATOM     10  C   UNL     1      -2.792  12.996  20.896  0.00  0.00    +0.000 A 
ATOM     11  C   UNL     1      -1.421  12.673  20.940  0.00  0.00    +0.000 A 
ATOM     12  C   UNL     1      -0.631  13.322  22.049  0.00  0.00    +0.000 C 
ATOM     13  C   UNL     1      -0.889  11.794  19.954  0.00  0.00    +0.000 A 
ATOM     14  C   UNL     1      -1.735  11.253  18.951  0.00  0.00    +0.000 A 
ATOM     15  C   UNL     1      -1.342  10.346  17.811  0.00  0.00    +0.000 C 
ATOM     16  C   UNL     1      -3.096  11.637  18.943  0.00  0.00    +0.000 A 
ENDBRANCH   5  13
ENDBRANCH   3   5
ENDBRANCH   1   3
BRANCH   1  17
ATOM     17  C   UNL     1       2.005   7.563  19.851  0.00  0.00    +0.000 C 
BRANCH  17  18
ATOM     18  N   UNL     1       2.156   6.463  20.805  0.00  0.00    +0.000 N 
ATOM     19  H   UNL     1       1.688   6.633  21.694  0.00  0.00    +0.000 HD
BRANCH  18  20
ATOM     20  C   UNL     1       2.207   5.133  20.403  0.00  0.00    +0.000 A 
ATOM     21  C   UNL     1       1.079   4.289  20.471  0.00  0.00    +0.000 A 
ATOM     22  C   UNL     1       1.095   2.960  20.045  0.00  0.00    +0.000 A 
ATOM     23  C   UNL     1       2.240   2.403  19.490  0.00  0.00    +0.000 A 
ATOM     24  C   UNL     1       3.354   3.236  19.386  0.00  0.00    +0.000 A 
ATOM     25  N   UNL     1       4.599   3.005  18.863  0.00  0.00    +0.000 N 
ATOM     26  N   UNL     1       5.435   4.051  18.945  0.00  0.00    +0.000 NA
ATOM     27  C   UNL     1       4.681   4.997  19.516  0.00  0.00    +0.000 A 
ATOM     28  C   UNL     1       3.368   4.560  19.823  0.00  0.00    +0.000 A 
ATOM     29  H   UNL     1       4.937   2.152  18.433  0.00  0.00    +0.000 HD
ENDBRANCH  18  20
ENDBRANCH  17  18
ENDBRANCH   1  17
TORSDOF 6
ENDMDL
MODEL 6
REMARK VINA RESULT:      -7.7      1.908      2.758
REMARK  Name = 
REMARK  10 active torsions:
REMARK  status: ('A' for Active; 'I' for Inactive)
REMARK    1  A    between atoms: C_1  and  C_2
REMARK    2  A    between atoms: C_4  and  C_5
REMARK    3  A    between atoms: C_6  and  S_7
REMARK    4  A    between atoms: S_7  and  N_10
REMARK    5  A    between atoms: N_10  and  C_11
REMARK    6  A    between atoms: C_11  and  C_12
REMARK    7  A    between atoms: C_11  and  C_13
REMARK    8  A    between atoms: C_13  and  N_14
REMARK    9  A    between atoms: N_14  and  C_15
REMARK   10  A    between atoms: C_24  and  C_25
REMARK                            x       y       z     vdW  Elec       q    Type
REMARK                         _______ _______ _______ _____ _____    ______ ____
ROOT
ATOM      1  C   UNL     1       1.977   3.669  20.224  0.00  0.00    +0.000 C 
ATOM      2  C   UNL     1       2.613   3.156  21.503  0.00  0.00    +0.000 C 
ENDROOT
BRANCH   1   3
ATOM      3  N   UNL     1       2.957   3.829  19.122  0.00  0.00    +0.000 NA
ATOM      4  H   UNL     1       2.781   3.196  18.347  0.00  0.00    +0.000 HD
BRANCH   3   5
ATOM      5  S   UNL     1       4.601   4.127  19.363  0.00  0.00    +0.000 S 
ATOM      6  O   UNL     1       5.209   2.955  19.956  0.00  0.00    +0.000 OA
ATOM      7  O   UNL     1       4.690   5.395  20.045  0.00  0.00    +0.000 OA
BRANCH   5  13
ATOM      8  C   UNL     1       6.988   4.723  13.750  0.00  0.00    +0.000 C 
ATOM      9  C   UNL     1       6.382   4.630  15.116  0.00  0.00    +0.000 A 
ATOM     10  C   UNL     1       7.088   5.035  16.245  0.00  0.00    +0.000 A 
ATOM     11  C   UNL     1       6.546   4.911  17.540  0.00  0.00    +0.000 A 
ATOM     12  C   UNL     1       7.440   5.357  18.670  0.00  0.00    +0.000 C 
ATOM     13  C   UNL     1       5.235   4.375  17.689  0.00  0.00    +0.000 A 
ATOM     14  C   UNL     1       4.493   3.980  16.545  0.00  0.00    +0.000 A 
ATOM     15  C   UNL     1       3.118   3.360  16.513  0.00  0.00    +0.000 C 
ATOM     16  C   UNL     1       5.102   4.103  15.275  0.00  0.00    +0.000 A 
ENDBRANCH   5  13
ENDBRANCH   3   5
ENDBRANCH   1   3
BRANCH   1  17
ATOM     17  C   UNL     1       1.120   4.935  20.428  0.00  0.00    +0.000 C 
BRANCH  17  18
ATOM     18  N   UNL     1       1.969   6.084  20.747  0.00  0.00    +0.000 N 
ATOM     19  H   UNL     1       2.962   5.903  20.605  0.00  0.00    +0.000 HD
BRANCH  18  20
ATOM     20  C   UNL     1       1.563   7.394  20.516  0.00  0.00    +0.000 A 
ATOM     21  C   UNL     1       0.924   8.163  21.511  0.00  0.00    +0.000 A 
ATOM     22  C   UNL     1       0.534   9.489  21.315  0.00  0.00    +0.000 A 
ATOM     23  C   UNL     1       0.793  10.138  20.115  0.00  0.00    +0.000 A 
ATOM     24  C   UNL     1       1.453   9.400  19.133  0.00  0.00    +0.000 A 
ATOM     25  N   UNL     1       1.877   9.754  17.879  0.00  0.00    +0.000 N 
ATOM     26  N   UNL     1       2.477   8.764  17.199  0.00  0.00    +0.000 NA
ATOM     27  C   UNL     1       2.460   7.747  18.067  0.00  0.00    +0.000 A 
ATOM     28  C   UNL     1       1.834   8.069  19.298  0.00  0.00    +0.000 A 
ATOM     29  H   UNL     1       1.788  10.659  17.432  0.00  0.00    +0.000 HD
ENDBRANCH  18  20
ENDBRANCH  17  18
ENDBRANCH   1  17
TORSDOF 6
ENDMDL
MODEL 7
REMARK VINA RESULT:      -7.7      4.074      9.207
REMARK  Name = 
REMARK  10 active torsions:
REMARK  status: ('A' for Active; 'I' for Inactive)
REMARK    1  A    between atoms: C_1  and  C_2
REMARK    2  A    between atoms: C_4  and  C_5
REMARK    3  A    between atoms: C_6  and  S_7
REMARK    4  A    between atoms: S_7  and  N_10
REMARK    5  A    between atoms: N_10  and  C_11
REMARK    6  A    between atoms: C_11  and  C_12
REMARK    7  A    between atoms: C_11  and  C_13
REMARK    8  A    between atoms: C_13  and  N_14
REMARK    9  A    between atoms: N_14  and  C_15
REMARK   10  A    between atoms: C_24  and  C_25
REMARK                            x       y       z     vdW  Elec       q    Type
REMARK                         _______ _______ _______ _____ _____    ______ ____
ROOT
ATOM      1  C   UNL     1       1.208   8.720  20.627  0.00  0.00    +0.000 C 
ATOM      2  C   UNL     1       0.097   8.253  21.550  0.00  0.00    +0.000 C 
ENDROOT
BRANCH   1   3
ATOM      3  N   UNL     1       0.754   9.751  19.662  0.00  0.00    +0.000 NA
ATOM      4  H   UNL     1       0.967   9.507  18.700  0.00  0.00    +0.000 HD
BRANCH   3   5
ATOM      5  S   UNL     1       0.846  11.412  19.951  0.00  0.00    +0.000 S 
ATOM      6  O   UNL     1       1.556  12.041  18.858  0.00  0.00    +0.000 OA
ATOM      7  O   UNL     1       1.339  11.565  21.298  0.00  0.00    +0.000 OA
BRANCH   5  13
ATOM      8  C   UNL     1      -5.108  12.862  20.031  0.00  0.00    +0.000 C 
ATOM      9  C   UNL     1      -3.643  12.555  19.979  0.00  0.00    +0.000 A 
ATOM     10  C   UNL     1      -3.112  11.750  18.976  0.00  0.00    +0.000 A 
ATOM     11  C   UNL     1      -1.743  11.417  18.942  0.00  0.00    +0.000 A 
ATOM     12  C   UNL     1      -1.317  10.507  17.817  0.00  0.00    +0.000 C 
ATOM     13  C   UNL     1      -0.883  11.936  19.952  0.00  0.00    +0.000 A 
ATOM     14  C   UNL     1      -1.406  12.779  20.968  0.00  0.00    +0.000 A 
ATOM     15  C   UNL     1      -0.660  13.382  22.132  0.00  0.00    +0.000 C 
ATOM     16  C   UNL     1      -2.793  13.053  20.964  0.00  0.00    +0.000 A 
ENDBRANCH   5  13
ENDBRANCH   3   5
ENDBRANCH   1   3
BRANCH   1  17
ATOM     17  C   UNL     1       1.959   7.565  19.934  0.00  0.00    +0.000 C 
BRANCH  17  18
ATOM     18  N   UNL     1       2.143   6.445  20.859  0.00  0.00    +0.000 N 
ATOM     19  H   UNL     1       1.700   6.593  21.765  0.00  0.00    +0.000 HD
BRANCH  18  20
ATOM     20  C   UNL     1       2.188   5.124  20.426  0.00  0.00    +0.000 A 
ATOM     21  C   UNL     1       1.054   4.285  20.471  0.00  0.00    +0.000 A 
ATOM     22  C   UNL     1       1.064   2.966  20.015  0.00  0.00    +0.000 A 
ATOM     23  C   UNL     1       2.209   2.416  19.451  0.00  0.00    +0.000 A 
ATOM     24  C   UNL     1       3.328   3.245  19.370  0.00  0.00    +0.000 A 
ATOM     25  N   UNL     1       4.573   3.019  18.846  0.00  0.00    +0.000 N 
ATOM     26  N   UNL     1       5.415   4.059  18.955  0.00  0.00    +0.000 NA
ATOM     27  C   UNL     1       4.664   4.995  19.545  0.00  0.00    +0.000 A 
ATOM     28  C   UNL     1       3.348   4.558  19.838  0.00  0.00    +0.000 A 
ATOM     29  H   UNL     1       4.908   2.174  18.398  0.00  0.00    +0.000 HD
ENDBRANCH  18  20
ENDBRANCH  17  18
ENDBRANCH   1  17
TORSDOF 6
ENDMDL
MODEL 8
REMARK VINA RESULT:      -7.7      1.053      1.955
REMARK  Name = 
REMARK  10 active torsions:
REMARK  status: ('A' for Active; 'I' for Inactive)
REMARK    1  A    between atoms: C_1  and  C_2
REMARK    2  A    between atoms: C_4  and  C_5
REMARK    3  A    between atoms: C_6  and  S_7
REMARK    4  A    between atoms: S_7  and  N_10
REMARK    5  A    between atoms: N_10  and  C_11
REMARK    6  A    between atoms: C_11  and  C_12
REMARK    7  A    between atoms: C_11  and  C_13
REMARK    8  A    between atoms: C_13  and  N_14
REMARK    9  A    between atoms: N_14  and  C_15
REMARK   10  A    between atoms: C_24  and  C_25
REMARK                            x       y       z     vdW  Elec       q    Type
REMARK                         _______ _______ _______ _____ _____    ______ ____
ROOT
ATOM      1  C   UNL     1       2.194   5.278  19.668  0.00  0.00    +0.000 C 
ATOM      2  C   UNL     1       2.116   4.805  21.108  0.00  0.00    +0.000 C 
ENDROOT
BRANCH   1   3
ATOM      3  N   UNL     1       3.105   4.449  18.842  0.00  0.00    +0.000 NA
ATOM      4  H   UNL     1       2.663   3.600  18.504  0.00  0.00    +0.000 HD
BRANCH   3   5
ATOM      5  S   UNL     1       4.748   4.244  19.174  0.00  0.00    +0.000 S 
ATOM      6  O   UNL     1       4.952   2.931  19.745  0.00  0.00    +0.000 OA
ATOM      7  O   UNL     1       5.163   5.412  19.912  0.00  0.00    +0.000 OA
BRANCH   5  13
ATOM      8  C   UNL     1       7.144   4.812  13.561  0.00  0.00    +0.000 C 
ATOM      9  C   UNL     1       6.582   4.620  14.937  0.00  0.00    +0.000 A 
ATOM     10  C   UNL     1       5.321   4.065  15.128  0.00  0.00    +0.000 A 
ATOM     11  C   UNL     1       4.764   3.922  16.414  0.00  0.00    +0.000 A 
ATOM     12  C   UNL     1       3.374   3.336  16.464  0.00  0.00    +0.000 C 
ATOM     13  C   UNL     1       5.523   4.339  17.544  0.00  0.00    +0.000 A 
ATOM     14  C   UNL     1       6.821   4.886  17.367  0.00  0.00    +0.000 A 
ATOM     15  C   UNL     1       7.747   5.415  18.434  0.00  0.00    +0.000 C 
ATOM     16  C   UNL     1       7.314   5.030  16.049  0.00  0.00    +0.000 A 
ENDBRANCH   5  13
ENDBRANCH   3   5
ENDBRANCH   1   3
BRANCH   1  17
ATOM     17  C   UNL     1       2.494   6.785  19.530  0.00  0.00    +0.000 C 
BRANCH  17  18
ATOM     18  N   UNL     1       1.851   7.536  20.611  0.00  0.00    +0.000 N 
ATOM     19  H   UNL     1       2.333   7.448  21.505  0.00  0.00    +0.000 HD
BRANCH  18  20
ATOM     20  C   UNL     1       1.216   8.754  20.392  0.00  0.00    +0.000 A 
ATOM     21  C   UNL     1       1.082   9.304  19.100  0.00  0.00    +0.000 A 
ATOM     22  C   UNL     1       0.422  10.508  18.850  0.00  0.00    +0.000 A 
ATOM     23  C   UNL     1      -0.176  11.221  19.881  0.00  0.00    +0.000 A 
ATOM     24  C   UNL     1      -0.079  10.673  21.160  0.00  0.00    +0.000 A 
ATOM     25  N   UNL     1      -0.582  11.102  22.360  0.00  0.00    +0.000 N 
ATOM     26  N   UNL     1      -0.275  10.314  23.402  0.00  0.00    +0.000 NA
ATOM     27  C   UNL     1       0.426   9.325  22.836  0.00  0.00    +0.000 A 
ATOM     28  C   UNL     1       0.592   9.482  21.438  0.00  0.00    +0.000 A 
ATOM     29  H   UNL     1      -1.145  11.928  22.530  0.00  0.00    +0.000 HD
ENDBRANCH  18  20
ENDBRANCH  17  18
ENDBRANCH   1  17
TORSDOF 6
ENDMDL
MODEL 9
REMARK VINA RESULT:      -7.6      1.243      2.575
REMARK  Name = 
REMARK  10 active torsions:
REMARK  status: ('A' for Active; 'I' for Inactive)
REMARK    1  A    between atoms: C_1  and  C_2
REMARK    2  A    between atoms: C_4  and  C_5
REMARK    3  A    between atoms: C_6  and  S_7
REMARK    4  A    between atoms: S_7  and  N_10
REMARK    5  A    between atoms: N_10  and  C_11
REMARK    6  A    between atoms: C_11  and  C_12
REMARK    7  A    between atoms: C_11  and  C_13
REMARK    8  A    between atoms: C_13  and  N_14
REMARK    9  A    between atoms: N_14  and  C_15
REMARK   10  A    between atoms: C_24  and  C_25
REMARK                            x       y       z     vdW  Elec       q    Type
REMARK                         _______ _______ _______ _____ _____    ______ ____
ROOT
ATOM      1  C   UNL     1       3.229   6.548  19.201  0.00  0.00    +0.000 C 
ATOM      2  C   UNL     1       3.321   7.160  17.815  0.00  0.00    +0.000 C 
ENDROOT
BRANCH   1   3
ATOM      3  N   UNL     1       3.445   5.081  19.194  0.00  0.00    +0.000 NA
ATOM      4  H   UNL     1       2.738   4.579  19.723  0.00  0.00    +0.000 HD
BRANCH   3   5
ATOM      5  S   UNL     1       4.967   4.355  19.283  0.00  0.00    +0.000 S 
ATOM      6  O   UNL     1       4.826   3.036  19.860  0.00  0.00    +0.000 OA
ATOM      7  O   UNL     1       5.840   5.316  19.912  0.00  0.00    +0.000 OA
BRANCH   5  13
ATOM      8  C   UNL     1       6.479   4.185  13.346  0.00  0.00    +0.000 C 
ATOM      9  C   UNL     1       6.127   4.172  14.802  0.00  0.00    +0.000 A 
ATOM     10  C   UNL     1       4.849   3.823  15.229  0.00  0.00    +0.000 A 
ATOM     11  C   UNL     1       4.493   3.851  16.592  0.00  0.00    +0.000 A 
ATOM     12  C   UNL     1       3.063   3.483  16.903  0.00  0.00    +0.000 C 
ATOM     13  C   UNL     1       5.474   4.225  17.553  0.00  0.00    +0.000 A 
ATOM     14  C   UNL     1       6.789   4.560  17.135  0.00  0.00    +0.000 A 
ATOM     15  C   UNL     1       7.938   5.016  18.000  0.00  0.00    +0.000 C 
ATOM     16  C   UNL     1       7.077   4.541  15.751  0.00  0.00    +0.000 A 
ENDBRANCH   5  13
ENDBRANCH   3   5
ENDBRANCH   1   3
BRANCH   1  17
ATOM     17  C   UNL     1       1.949   6.944  19.966  0.00  0.00    +0.000 C 
BRANCH  17  18
ATOM     18  N   UNL     1       1.725   8.388  19.876  0.00  0.00    +0.000 N 
ATOM     19  H   UNL     1       1.684   8.731  18.918  0.00  0.00    +0.000 HD
BRANCH  18  20
ATOM     20  C   UNL     1       0.932   9.074  20.790  0.00  0.00    +0.000 A 
ATOM     21  C   UNL     1       1.015   8.833  22.178  0.00  0.00    +0.000 A 
ATOM     22  C   UNL     1       0.253   9.529  23.118  0.00  0.00    +0.000 A 
ATOM     23  C   UNL     1      -0.618  10.537  22.725  0.00  0.00    +0.000 A 
ATOM     24  C   UNL     1      -0.686  10.808  21.358  0.00  0.00    +0.000 A 
ATOM     25  N   UNL     1      -1.405  11.746  20.666  0.00  0.00    +0.000 N 
ATOM     26  N   UNL     1      -1.227  11.709  19.337  0.00  0.00    +0.000 NA
ATOM     27  C   UNL     1      -0.334  10.725  19.179  0.00  0.00    +0.000 A 
ATOM     28  C   UNL     1       0.050  10.114  20.399  0.00  0.00    +0.000 A 
ATOM     29  H   UNL     1      -2.034  12.443  21.047  0.00  0.00    +0.000 HD
ENDBRANCH  18  20
ENDBRANCH  17  18
ENDBRANCH   1  17
TORSDOF 6
ENDMDL
