MODEL 1
REMARK VINA RESULT:      -6.3      0.000      0.000
REMARK  Name = 
REMARK  7 active torsions:
REMARK  status: ('A' for Active; 'I' for Inactive)
REMARK    1  A    between atoms: C_1  and  C_2
REMARK    2  A    between atoms: C_2  and  N_3
REMARK    3  A    between atoms: N_3  and  C_4
REMARK    4  A    between atoms: N_3  and  C_6
REMARK    5  A    between atoms: C_4  and  C_5
REMARK    6  A    between atoms: C_9  and  N_10
REMARK    7  A    between atoms: C_11  and  C_13
REMARK                            x       y       z     vdW  Elec       q    Type
REMARK                         _______ _______ _______ _____ _____    ______ ____
ROOT
ATOM      1  C   UNL     1       6.579   5.328  17.239  0.00  0.00    +0.000 A 
ATOM      2  C   UNL     1       7.354   5.116  18.385  0.00  0.00    +0.000 A 
ATOM      3  C   UNL     1       8.092   6.144  18.979  0.00  0.00    +0.000 A 
ATOM      4  C   UNL     1       8.083   7.424  18.440  0.00  0.00    +0.000 A 
ATOM      5  C   UNL     1       7.295   7.669  17.310  0.00  0.00    +0.000 A 
ATOM      6  C   UNL     1       6.564   6.627  16.715  0.00  0.00    +0.000 A 
ENDROOT
BRANCH   4   7
ATOM      7  N   UNL     1       8.833   8.489  18.976  0.00  0.00    +0.000 N 
ATOM      8  C   UNL     1       8.788   9.819  18.579  0.00  0.00    +0.000 C 
ATOM      9  O   UNL     1       8.061  10.253  17.689  0.00  0.00    +0.000 OA
ATOM     10  H   UNL     1       9.405   8.289  19.788  0.00  0.00    +0.000 HD
BRANCH   8  11
ATOM     11  C   UNL     1       9.650  10.727  19.329  0.00  0.00    +0.000 A 
ATOM     12  C   UNL     1      10.873  11.218  18.905  0.00  0.00    +0.000 A 
ATOM     13  C   UNL     1      11.476  12.088  19.854  0.00  0.00    +0.000 A 
ATOM     14  C   UNL     1      10.697  12.232  20.979  0.00  0.00    +0.000 A 
ATOM     15  S   UNL     1       9.250  11.326  20.883  0.00  0.00    +0.000 S 
ENDBRANCH   8  11
ENDBRANCH   4   7
BRANCH   1  16
ATOM     16  N   UNL     1       5.830   4.297  16.644  0.00  0.00    +0.000 N 
BRANCH  16  18
ATOM     17  C   UNL     1       5.541   4.129  14.170  0.00  0.00    +0.000 C 
ATOM     18  C   UNL     1       6.367   3.748  15.388  0.00  0.00    +0.000 C 
ENDBRANCH  16  18
BRANCH  16  19
ATOM     19  C   UNL     1       4.365   4.405  16.796  0.00  0.00    +0.000 C 
ATOM     20  C   UNL     1       3.870   4.132  18.214  0.00  0.00    +0.000 C 
ENDBRANCH  16  19
ENDBRANCH   1  16
TORSDOF 5
ENDMDL
MODEL 2
REMARK VINA RESULT:      -6.3      0.252      1.124
REMARK  Name = 
REMARK  7 active torsions:
REMARK  status: ('A' for Active; 'I' for Inactive)
REMARK    1  A    between atoms: C_1  and  C_2
REMARK    2  A    between atoms: C_2  and  N_3
REMARK    3  A    between atoms: N_3  and  C_4
REMARK    4  A    between atoms: N_3  and  C_6
REMARK    5  A    between atoms: C_4  and  C_5
REMARK    6  A    between atoms: C_9  and  N_10
REMARK    7  A    between atoms: C_11  and  C_13
REMARK                            x       y       z     vdW  Elec       q    Type
REMARK                         _______ _______ _______ _____ _____    ______ ____
ROOT
ATOM      1  C   UNL     1       6.330   5.394  17.330  0.00  0.00    +0.000 A 
ATOM      2  C   UNL     1       6.260   6.686  16.795  0.00  0.00    +0.000 A 
ATOM      3  C   UNL     1       7.057   7.730  17.273  0.00  0.00    +0.000 A 
ATOM      4  C   UNL     1       7.952   7.516  18.314  0.00  0.00    +0.000 A 
ATOM      5  C   UNL     1       8.061   6.228  18.849  0.00  0.00    +0.000 A 
ATOM      6  C   UNL     1       7.249   5.188  18.367  0.00  0.00    +0.000 A 
ENDROOT
BRANCH   4   7
ATOM      7  N   UNL     1       8.755   8.538  18.858  0.00  0.00    +0.000 N 
ATOM      8  C   UNL     1       8.750   9.879  18.496  0.00  0.00    +0.000 C 
ATOM      9  O   UNL     1       8.020  10.362  17.635  0.00  0.00    +0.000 OA
ATOM     10  H   UNL     1       9.337   8.295  19.650  0.00  0.00    +0.000 HD
BRANCH   8  11
ATOM     11  C   UNL     1       9.664  10.733  19.248  0.00  0.00    +0.000 A 
ATOM     12  C   UNL     1      10.909  11.161  18.820  0.00  0.00    +0.000 A 
ATOM     13  C   UNL     1      11.563  11.991  19.772  0.00  0.00    +0.000 A 
ATOM     14  C   UNL     1      10.799  12.168  20.902  0.00  0.00    +0.000 A 
ATOM     15  S   UNL     1       9.305  11.342  20.808  0.00  0.00    +0.000 S 
ENDBRANCH   8  11
ENDBRANCH   4   7
BRANCH   1  16
ATOM     16  N   UNL     1       5.535   4.341  16.845  0.00  0.00    +0.000 N 
BRANCH  16  18
ATOM     17  C   UNL     1       5.552   4.216  14.353  0.00  0.00    +0.000 C 
ATOM     18  C   UNL     1       6.050   3.630  15.664  0.00  0.00    +0.000 C 
ENDBRANCH  16  18
BRANCH  16  19
ATOM     19  C   UNL     1       4.076   4.535  16.971  0.00  0.00    +0.000 C 
ATOM     20  C   UNL     1       3.571   4.506  18.410  0.00  0.00    +0.000 C 
ENDBRANCH  16  19
ENDBRANCH   1  16
TORSDOF 5
ENDMDL
MODEL 3
REMARK VINA RESULT:      -6.3      5.038      6.563
REMARK  Name = 
REMARK  7 active torsions:
REMARK  status: ('A' for Active; 'I' for Inactive)
REMARK    1  A    between atoms: C_1  and  C_2
REMARK    2  A    between atoms: C_2  and  N_3
REMARK    3  A    between atoms: N_3  and  C_4
REMARK    4  A    between atoms: N_3  and  C_6
REMARK    5  A    between atoms: C_4  and  C_5
REMARK    6  A    between atoms: C_9  and  N_10
REMARK    7  A    between atoms: C_11  and  C_13
REMARK                            x       y       z     vdW  Elec       q    Type
REMARK                         _______ _______ _______ _____ _____    ______ ____
ROOT
ATOM      1  C   UNL     1       4.865   5.255  16.579  0.00  0.00    +0.000 A 
ATOM      2  C   UNL     1       3.895   4.684  17.412  0.00  0.00    +0.000 A 
ATOM      3  C   UNL     1       3.031   5.465  18.185  0.00  0.00    +0.000 A 
ATOM      4  C   UNL     1       3.113   6.852  18.154  0.00  0.00    +0.000 A 
ATOM      5  C   UNL     1       4.056   7.448  17.310  0.00  0.00    +0.000 A 
ATOM      6  C   UNL     1       4.926   6.655  16.545  0.00  0.00    +0.000 A 
ENDROOT
BRANCH   4   7
ATOM      7  N   UNL     1       2.292   7.687  18.937  0.00  0.00    +0.000 N 
ATOM      8  C   UNL     1       1.758   8.914  18.562  0.00  0.00    +0.000 C 
ATOM      9  O   UNL     1       1.932   9.440  17.466  0.00  0.00    +0.000 OA
ATOM     10  H   UNL     1       1.988   7.327  19.833  0.00  0.00    +0.000 HD
BRANCH   8  11
ATOM     11  C   UNL     1       0.909   9.558  19.559  0.00  0.00    +0.000 A 
ATOM     12  C   UNL     1       0.715   9.124  20.858  0.00  0.00    +0.000 A 
ATOM     13  C   UNL     1      -0.165   9.965  21.595  0.00  0.00    +0.000 A 
ATOM     14  C   UNL     1      -0.620  11.015  20.832  0.00  0.00    +0.000 A 
ATOM     15  S   UNL     1       0.014  10.984  19.244  0.00  0.00    +0.000 S 
ENDBRANCH   8  11
ENDBRANCH   4   7
BRANCH   1  16
ATOM     16  N   UNL     1       5.731   4.472  15.796  0.00  0.00    +0.000 N 
BRANCH  16  18
ATOM     17  C   UNL     1       7.429   4.597  17.620  0.00  0.00    +0.000 C 
ATOM     18  C   UNL     1       7.163   4.561  16.124  0.00  0.00    +0.000 C 
ENDBRANCH  16  18
BRANCH  16  19
ATOM     19  C   UNL     1       5.341   4.315  14.380  0.00  0.00    +0.000 C 
ATOM     20  C   UNL     1       6.522   4.126  13.432  0.00  0.00    +0.000 C 
ENDBRANCH  16  19
ENDBRANCH   1  16
TORSDOF 5
ENDMDL
MODEL 4
REMARK VINA RESULT:      -6.2      6.152      8.447
REMARK  Name = 
REMARK  7 active torsions:
REMARK  status: ('A' for Active; 'I' for Inactive)
REMARK    1  A    between atoms: C_1  and  C_2
REMARK    2  A    between atoms: C_2  and  N_3
REMARK    3  A    between atoms: N_3  and  C_4
REMARK    4  A    between atoms: N_3  and  C_6
REMARK    5  A    between atoms: C_4  and  C_5
REMARK    6  A    between atoms: C_9  and  N_10
REMARK    7  A    between atoms: C_11  and  C_13
REMARK                            x       y       z     vdW  Elec       q    Type
REMARK                         _______ _______ _______ _____ _____    ______ ____
ROOT
ATOM      1  C   UNL     1       0.582   9.482  19.708  0.00  0.00    +0.000 A 
ATOM      2  C   UNL     1       0.953   9.659  18.369  0.00  0.00    +0.000 A 
ATOM      3  C   UNL     1       1.932   8.869  17.762  0.00  0.00    +0.000 A 
ATOM      4  C   UNL     1       2.582   7.872  18.480  0.00  0.00    +0.000 A 
ATOM      5  C   UNL     1       2.212   7.656  19.811  0.00  0.00    +0.000 A 
ATOM      6  C   UNL     1       1.233   8.463  20.416  0.00  0.00    +0.000 A 
ENDROOT
BRANCH   4   7
ATOM      7  N   UNL     1       3.600   7.069  17.930  0.00  0.00    +0.000 N 
ATOM      8  C   UNL     1       3.542   5.701  17.693  0.00  0.00    +0.000 C 
ATOM      9  O   UNL     1       2.564   4.997  17.932  0.00  0.00    +0.000 OA
ATOM     10  H   UNL     1       4.431   7.541  17.595  0.00  0.00    +0.000 HD
BRANCH   8  11
ATOM     11  C   UNL     1       4.732   5.120  17.080  0.00  0.00    +0.000 A 
ATOM     12  C   UNL     1       4.747   4.256  16.000  0.00  0.00    +0.000 A 
ATOM     13  C   UNL     1       6.062   3.865  15.625  0.00  0.00    +0.000 A 
ATOM     14  C   UNL     1       7.013   4.440  16.434  0.00  0.00    +0.000 A 
ATOM     15  S   UNL     1       6.321   5.444  17.633  0.00  0.00    +0.000 S 
ENDBRANCH   8  11
ENDBRANCH   4   7
BRANCH   1  16
ATOM     16  N   UNL     1      -0.408  10.271  20.319  0.00  0.00    +0.000 N 
BRANCH  16  18
ATOM     17  C   UNL     1      -1.247  12.502  19.576  0.00  0.00    +0.000 C 
ATOM     18  C   UNL     1      -1.315  10.992  19.410  0.00  0.00    +0.000 C 
ENDBRANCH  16  18
BRANCH  16  19
ATOM     19  C   UNL     1      -0.012  10.923  21.583  0.00  0.00    +0.000 C 
ATOM     20  C   UNL     1      -0.752  10.395  22.808  0.00  0.00    +0.000 C 
ENDBRANCH  16  19
ENDBRANCH   1  16
TORSDOF 5
ENDMDL
MODEL 5
REMARK VINA RESULT:      -6.2      0.959      1.604
REMARK  Name = 
REMARK  7 active torsions:
REMARK  status: ('A' for Active; 'I' for Inactive)
REMARK    1  A    between atoms: C_1  and  C_2
REMARK    2  A    between atoms: C_2  and  N_3
REMARK    3  A    between atoms: N_3  and  C_4
REMARK    4  A    between atoms: N_3  and  C_6
REMARK    5  A    between atoms: C_4  and  C_5
REMARK    6  A    between atoms: C_9  and  N_10
REMARK    7  A    between atoms: C_11  and  C_13
REMARK                            x       y       z     vdW  Elec       q    Type
REMARK                         _______ _______ _______ _____ _____    ______ ____
ROOT
ATOM      1  C   UNL     1       6.299   5.348  17.596  0.00  0.00    +0.000 A 
ATOM      2  C   UNL     1       6.201   6.605  16.987  0.00  0.00    +0.000 A 
ATOM      3  C   UNL     1       7.026   7.672  17.354  0.00  0.00    +0.000 A 
ATOM      4  C   UNL     1       7.980   7.517  18.352  0.00  0.00    +0.000 A 
ATOM      5  C   UNL     1       8.117   6.264  18.959  0.00  0.00    +0.000 A 
ATOM      6  C   UNL     1       7.276   5.201  18.590  0.00  0.00    +0.000 A 
ENDROOT
BRANCH   4   7
ATOM      7  N   UNL     1       8.815   8.565  18.786  0.00  0.00    +0.000 N 
ATOM      8  C   UNL     1       8.708   9.907  18.444  0.00  0.00    +0.000 C 
ATOM      9  O   UNL     1       7.842  10.368  17.705  0.00  0.00    +0.000 OA
ATOM     10  H   UNL     1       9.515   8.340  19.482  0.00  0.00    +0.000 HD
BRANCH   8  11
ATOM     11  C   UNL     1       9.689  10.792  19.065  0.00  0.00    +0.000 A 
ATOM     12  C   UNL     1       9.767  11.094  20.413  0.00  0.00    +0.000 A 
ATOM     13  C   UNL     1      10.836  11.982  20.717  0.00  0.00    +0.000 A 
ATOM     14  C   UNL     1      11.540  12.335  19.590  0.00  0.00    +0.000 A 
ATOM     15  S   UNL     1      10.915  11.597  18.180  0.00  0.00    +0.000 S 
ENDBRANCH   8  11
ENDBRANCH   4   7
BRANCH   1  16
ATOM     16  N   UNL     1       5.475   4.272  17.224  0.00  0.00    +0.000 N 
BRANCH  16  18
ATOM     17  C   UNL     1       6.424   3.955  14.937  0.00  0.00    +0.000 C 
ATOM     18  C   UNL     1       5.178   4.148  15.787  0.00  0.00    +0.000 C 
ENDBRANCH  16  18
BRANCH  16  19
ATOM     19  C   UNL     1       4.421   3.912  18.194  0.00  0.00    +0.000 C 
ATOM     20  C   UNL     1       3.455   2.845  17.688  0.00  0.00    +0.000 C 
ENDBRANCH  16  19
ENDBRANCH   1  16
TORSDOF 5
ENDMDL
MODEL 6
REMARK VINA RESULT:      -6.2      6.342      7.726
REMARK  Name = 
REMARK  7 active torsions:
REMARK  status: ('A' for Active; 'I' for Inactive)
REMARK    1  A    between atoms: C_1  and  C_2
REMARK    2  A    between atoms: C_2  and  N_3
REMARK    3  A    between atoms: N_3  and  C_4
REMARK    4  A    between atoms: N_3  and  C_6
REMARK    5  A    between atoms: C_4  and  C_5
REMARK    6  A    between atoms: C_9  and  N_10
REMARK    7  A    between atoms: C_11  and  C_13
REMARK                            x       y       z     vdW  Elec       q    Type
REMARK                         _______ _______ _______ _____ _____    ______ ____
ROOT
ATOM      1  C   UNL     1       2.929   5.422  18.973  0.00  0.00    +0.000 A 
ATOM      2  C   UNL     1       2.357   5.416  20.250  0.00  0.00    +0.000 A 
ATOM      3  C   UNL     1       1.760   6.555  20.800  0.00  0.00    +0.000 A 
ATOM      4  C   UNL     1       1.721   7.747  20.087  0.00  0.00    +0.000 A 
ATOM      5  C   UNL     1       2.262   7.773  18.797  0.00  0.00    +0.000 A 
ATOM      6  C   UNL     1       2.868   6.626  18.257  0.00  0.00    +0.000 A 
ENDROOT
BRANCH   4   7
ATOM      7  N   UNL     1       1.164   8.933  20.603  0.00  0.00    +0.000 N 
ATOM      8  C   UNL     1      -0.006   9.046  21.344  0.00  0.00    +0.000 C 
ATOM      9  O   UNL     1      -0.722   8.100  21.660  0.00  0.00    +0.000 OA
ATOM     10  H   UNL     1       1.707   9.781  20.499  0.00  0.00    +0.000 HD
BRANCH   8  11
ATOM     11  C   UNL     1      -0.338  10.397  21.785  0.00  0.00    +0.000 A 
ATOM     12  C   UNL     1      -1.086  10.722  22.904  0.00  0.00    +0.000 A 
ATOM     13  C   UNL     1      -1.234  12.126  23.078  0.00  0.00    +0.000 A 
ATOM     14  C   UNL     1      -0.599  12.832  22.084  0.00  0.00    +0.000 A 
ATOM     15  S   UNL     1       0.172  11.805  20.954  0.00  0.00    +0.000 S 
ENDBRANCH   8  11
ENDBRANCH   4   7
BRANCH   1  16
ATOM     16  N   UNL     1       3.523   4.277  18.415  0.00  0.00    +0.000 N 
BRANCH  16  18
ATOM     17  C   UNL     1       3.284   1.816  18.070  0.00  0.00    +0.000 C 
ATOM     18  C   UNL     1       3.150   2.990  19.026  0.00  0.00    +0.000 C 
ENDBRANCH  16  18
BRANCH  16  19
ATOM     19  C   UNL     1       4.906   4.450  17.927  0.00  0.00    +0.000 C 
ATOM     20  C   UNL     1       5.899   4.852  19.013  0.00  0.00    +0.000 C 
ENDBRANCH  16  19
ENDBRANCH   1  16
TORSDOF 5
ENDMDL
MODEL 7
REMARK VINA RESULT:      -6.1      6.212      7.637
REMARK  Name = 
REMARK  7 active torsions:
REMARK  status: ('A' for Active; 'I' for Inactive)
REMARK    1  A    between atoms: C_1  and  C_2
REMARK    2  A    between atoms: C_2  and  N_3
REMARK    3  A    between atoms: N_3  and  C_4
REMARK    4  A    between atoms: N_3  and  C_6
REMARK    5  A    between atoms: C_4  and  C_5
REMARK    6  A    between atoms: C_9  and  N_10
REMARK    7  A    between atoms: C_11  and  C_13
REMARK                            x       y       z     vdW  Elec       q    Type
REMARK                         _______ _______ _______ _____ _____    ______ ____
ROOT
ATOM      1  C   UNL     1       3.266   5.836  18.710  0.00  0.00    +0.000 A 
ATOM      2  C   UNL     1       3.121   7.060  18.047  0.00  0.00    +0.000 A 
ATOM      3  C   UNL     1       2.338   8.095  18.566  0.00  0.00    +0.000 A 
ATOM      4  C   UNL     1       1.664   7.936  19.771  0.00  0.00    +0.000 A 
ATOM      5  C   UNL     1       1.813   6.731  20.467  0.00  0.00    +0.000 A 
ATOM      6  C   UNL     1       2.595   5.694  19.932  0.00  0.00    +0.000 A 
ENDROOT
BRANCH   4   7
ATOM      7  N   UNL     1       0.835   8.930  20.325  0.00  0.00    +0.000 N 
ATOM      8  C   UNL     1       0.964   9.516  21.578  0.00  0.00    +0.000 C 
ATOM      9  O   UNL     1       1.848   9.241  22.384  0.00  0.00    +0.000 OA
ATOM     10  H   UNL     1       0.120   9.322  19.725  0.00  0.00    +0.000 HD
BRANCH   8  11
ATOM     11  C   UNL     1      -0.017  10.551  21.889  0.00  0.00    +0.000 A 
ATOM     12  C   UNL     1      -0.837  10.579  23.003  0.00  0.00    +0.000 A 
ATOM     13  C   UNL     1      -1.685  11.721  23.034  0.00  0.00    +0.000 A 
ATOM     14  C   UNL     1      -1.490  12.529  21.938  0.00  0.00    +0.000 A 
ATOM     15  S   UNL     1      -0.290  11.913  20.887  0.00  0.00    +0.000 S 
ENDBRANCH   8  11
ENDBRANCH   4   7
BRANCH   1  16
ATOM     16  N   UNL     1       4.059   4.796  18.193  0.00  0.00    +0.000 N 
BRANCH  16  18
ATOM     17  C   UNL     1       6.222   5.408  19.277  0.00  0.00    +0.000 C 
ATOM     18  C   UNL     1       5.482   5.109  17.984  0.00  0.00    +0.000 C 
ENDBRANCH  16  18
BRANCH  16  19
ATOM     19  C   UNL     1       3.386   3.900  17.231  0.00  0.00    +0.000 C 
ATOM     20  C   UNL     1       2.991   2.548  17.820  0.00  0.00    +0.000 C 
ENDBRANCH  16  19
ENDBRANCH   1  16
TORSDOF 5
ENDMDL
MODEL 8
REMARK VINA RESULT:      -6.1      6.492      7.314
REMARK  Name = 
REMARK  7 active torsions:
REMARK  status: ('A' for Active; 'I' for Inactive)
REMARK    1  A    between atoms: C_1  and  C_2
REMARK    2  A    between atoms: C_2  and  N_3
REMARK    3  A    between atoms: N_3  and  C_4
REMARK    4  A    between atoms: N_3  and  C_6
REMARK    5  A    between atoms: C_4  and  C_5
REMARK    6  A    between atoms: C_9  and  N_10
REMARK    7  A    between atoms: C_11  and  C_13
REMARK                            x       y       z     vdW  Elec       q    Type
REMARK                         _______ _______ _______ _____ _____    ______ ____
ROOT
ATOM      1  C   UNL     1       2.214   5.534  19.439  0.00  0.00    +0.000 A 
ATOM      2  C   UNL     1       2.470   6.217  18.244  0.00  0.00    +0.000 A 
ATOM      3  C   UNL     1       2.307   7.600  18.132  0.00  0.00    +0.000 A 
ATOM      4  C   UNL     1       1.875   8.352  19.218  0.00  0.00    +0.000 A 
ATOM      5  C   UNL     1       1.638   7.698  20.432  0.00  0.00    +0.000 A 
ATOM      6  C   UNL     1       1.794   6.306  20.531  0.00  0.00    +0.000 A 
ENDROOT
BRANCH   4   7
ATOM      7  N   UNL     1       1.661   9.743  19.153  0.00  0.00    +0.000 N 
ATOM      8  C   UNL     1       0.591  10.391  18.550  0.00  0.00    +0.000 C 
ATOM      9  O   UNL     1      -0.338   9.818  17.986  0.00  0.00    +0.000 OA
ATOM     10  H   UNL     1       2.304  10.333  19.666  0.00  0.00    +0.000 HD
BRANCH   8  11
ATOM     11  C   UNL     1       0.599  11.846  18.659  0.00  0.00    +0.000 A 
ATOM     12  C   UNL     1      -0.514  12.667  18.610  0.00  0.00    +0.000 A 
ATOM     13  C   UNL     1      -0.189  14.045  18.752  0.00  0.00    +0.000 A 
ATOM     14  C   UNL     1       1.165  14.235  18.901  0.00  0.00    +0.000 A 
ATOM     15  S   UNL     1       2.031  12.761  18.873  0.00  0.00    +0.000 S 
ENDBRANCH   8  11
ENDBRANCH   4   7
BRANCH   1  16
ATOM     16  N   UNL     1       2.383   4.144  19.556  0.00  0.00    +0.000 N 
BRANCH  16  18
ATOM     17  C   UNL     1       2.482   2.308  17.868  0.00  0.00    +0.000 C 
ATOM     18  C   UNL     1       3.184   3.497  18.503  0.00  0.00    +0.000 C 
ENDBRANCH  16  18
BRANCH  16  19
ATOM     19  C   UNL     1       1.234   3.407  20.120  0.00  0.00    +0.000 C 
ATOM     20  C   UNL     1       1.526   2.741  21.461  0.00  0.00    +0.000 C 
ENDBRANCH  16  19
ENDBRANCH   1  16
TORSDOF 5
ENDMDL
MODEL 9
REMARK VINA RESULT:      -6.0      5.347      6.985
REMARK  Name = 
REMARK  7 active torsions:
REMARK  status: ('A' for Active; 'I' for Inactive)
REMARK    1  A    between atoms: C_1  and  C_2
REMARK    2  A    between atoms: C_2  and  N_3
REMARK    3  A    between atoms: N_3  and  C_4
REMARK    4  A    between atoms: N_3  and  C_6
REMARK    5  A    between atoms: C_4  and  C_5
REMARK    6  A    between atoms: C_9  and  N_10
REMARK    7  A    between atoms: C_11  and  C_13
REMARK                            x       y       z     vdW  Elec       q    Type
REMARK                         _______ _______ _______ _____ _____    ______ ____
ROOT
ATOM      1  C   UNL     1       4.332   5.631  17.686  0.00  0.00    +0.000 A 
ATOM      2  C   UNL     1       3.813   5.070  18.859  0.00  0.00    +0.000 A 
ATOM      3  C   UNL     1       2.992   5.795  19.727  0.00  0.00    +0.000 A 
ATOM      4  C   UNL     1       2.666   7.118  19.452  0.00  0.00    +0.000 A 
ATOM      5  C   UNL     1       3.149   7.695  18.273  0.00  0.00    +0.000 A 
ATOM      6  C   UNL     1       3.981   6.961  17.412  0.00  0.00    +0.000 A 
ENDROOT
BRANCH   4   7
ATOM      7  N   UNL     1       1.872   7.907  20.307  0.00  0.00    +0.000 N 
ATOM      8  C   UNL     1       1.101   9.005  19.946  0.00  0.00    +0.000 C 
ATOM      9  O   UNL     1       1.004   9.437  18.801  0.00  0.00    +0.000 OA
ATOM     10  H   UNL     1       1.783   7.600  21.268  0.00  0.00    +0.000 HD
BRANCH   8  11
ATOM     11  C   UNL     1       0.346   9.623  21.031  0.00  0.00    +0.000 A 
ATOM     12  C   UNL     1       0.157   9.088  22.293  0.00  0.00    +0.000 A 
ATOM     13  C   UNL     1      -0.620   9.928  23.137  0.00  0.00    +0.000 A 
ATOM     14  C   UNL     1      -1.006  11.080  22.492  0.00  0.00    +0.000 A 
ATOM     15  S   UNL     1      -0.430  11.143  20.883  0.00  0.00    +0.000 S 
ENDBRANCH   8  11
ENDBRANCH   4   7
BRANCH   1  16
ATOM     16  N   UNL     1       5.151   4.902  16.808  0.00  0.00    +0.000 N 
BRANCH  16  18
ATOM     17  C   UNL     1       7.397   5.326  17.810  0.00  0.00    +0.000 C 
ATOM     18  C   UNL     1       6.357   4.297  17.397  0.00  0.00    +0.000 C 
ENDBRANCH  16  18
BRANCH  16  19
ATOM     19  C   UNL     1       5.226   5.421  15.427  0.00  0.00    +0.000 C 
ATOM     20  C   UNL     1       5.680   4.386  14.402  0.00  0.00    +0.000 C 
ENDBRANCH  16  19
ENDBRANCH   1  16
TORSDOF 5
ENDMDL
