MODEL 1
REMARK VINA RESULT:      -8.1      0.000      0.000
REMARK  Name = 
REMARK  7 active torsions:
REMARK  status: ('A' for Active; 'I' for Inactive)
REMARK    1  A    between atoms: C_1  and  C_2
REMARK    2  A    between atoms: C_4  and  C_5
REMARK    3  A    between atoms: C_6  and  C_7
REMARK    4  A    between atoms: C_16  and  N_17
REMARK    5  A    between atoms: C_19  and  C_20
REMARK    6  A    between atoms: C_19  and  C_21
REMARK    7  A    between atoms: N_22  and  C_23
REMARK                            x       y       z     vdW  Elec       q    Type
REMARK                         _______ _______ _______ _____ _____    ______ ____
ROOT
ATOM      1  C   UNL     1      11.410  12.219  20.440  0.00  0.00    +0.000 C 
ATOM      2  C   UNL     1      10.365  12.057  19.372  0.00  0.00    +0.000 A 
ATOM      3  C   UNL     1       9.852  10.771  19.109  0.00  0.00    +0.000 A 
ATOM      4  C   UNL     1       8.805  10.595  18.212  0.00  0.00    +0.000 A 
ATOM      5  C   UNL     1       8.283  11.739  17.630  0.00  0.00    +0.000 A 
ATOM      6  N   UNL     1       8.731  13.004  17.873  0.00  0.00    +0.000 NA
ATOM      7  C   UNL     1       9.805  13.147  18.692  0.00  0.00    +0.000 A 
ENDROOT
BRANCH   7   8
ATOM      8  N   UNL     1      10.304  14.448  18.871  0.00  0.00    +0.000 N 
ATOM      9  C   UNL     1       9.718  15.397  19.786  0.00  0.00    +0.000 C 
ATOM     10  C   UNL     1      10.073  16.769  19.178  0.00  0.00    +0.000 C 
ATOM     11  C   UNL     1      10.388  17.818  20.249  0.00  0.00    +0.000 C 
ATOM     12  C   UNL     1       8.901  17.246  18.306  0.00  0.00    +0.000 C 
ATOM     13  N   UNL     1      11.254  16.441  18.377  0.00  0.00    +0.000 N 
ATOM     14  C   UNL     1      12.002  17.405  17.599  0.00  0.00    +0.000 C 
ATOM     15  C   UNL     1      11.232  15.074  18.025  0.00  0.00    +0.000 C 
ATOM     16  O   UNL     1      11.878  14.585  17.112  0.00  0.00    +0.000 OA
ENDBRANCH   7   8
BRANCH   4  17
ATOM     17  C   UNL     1       8.291   9.283  17.931  0.00  0.00    +0.000 C 
ATOM     18  C   UNL     1       7.824   8.193  17.711  0.00  0.00    +0.000 C 
BRANCH  18  19
ATOM     19  C   UNL     1       7.241   6.901  17.478  0.00  0.00    +0.000 A 
ATOM     20  C   UNL     1       7.587   5.812  18.287  0.00  0.00    +0.000 A 
ATOM     21  C   UNL     1       7.043   4.544  18.043  0.00  0.00    +0.000 A 
ATOM     22  C   UNL     1       6.147   4.366  16.989  0.00  0.00    +0.000 A 
ATOM     23  C   UNL     1       5.800   5.455  16.197  0.00  0.00    +0.000 A 
ATOM     24  F   UNL     1       4.939   5.278  15.185  0.00  0.00    +0.000 F 
ATOM     25  C   UNL     1       6.336   6.717  16.430  0.00  0.00    +0.000 A 
ENDBRANCH  18  19
ENDBRANCH   4  17
TORSDOF 3
ENDMDL
MODEL 2
REMARK VINA RESULT:      -7.9      8.998     10.269
REMARK  Name = 
REMARK  7 active torsions:
REMARK  status: ('A' for Active; 'I' for Inactive)
REMARK    1  A    between atoms: C_1  and  C_2
REMARK    2  A    between atoms: C_4  and  C_5
REMARK    3  A    between atoms: C_6  and  C_7
REMARK    4  A    between atoms: C_16  and  N_17
REMARK    5  A    between atoms: C_19  and  C_20
REMARK    6  A    between atoms: C_19  and  C_21
REMARK    7  A    between atoms: N_22  and  C_23
REMARK                            x       y       z     vdW  Elec       q    Type
REMARK                         _______ _______ _______ _____ _____    ______ ____
ROOT
ATOM      1  C   UNL     1      -1.085  11.816  19.832  0.00  0.00    +0.000 C 
ATOM      2  C   UNL     1      -0.394  10.805  20.703  0.00  0.00    +0.000 A 
ATOM      3  C   UNL     1       0.293   9.736  20.093  0.00  0.00    +0.000 A 
ATOM      4  C   UNL     1       1.040   8.847  20.857  0.00  0.00    +0.000 A 
ATOM      5  C   UNL     1       1.096   9.089  22.220  0.00  0.00    +0.000 A 
ATOM      6  N   UNL     1       0.469  10.123  22.848  0.00  0.00    +0.000 NA
ATOM      7  C   UNL     1      -0.319  10.935  22.096  0.00  0.00    +0.000 A 
ENDROOT
BRANCH   7   8
ATOM      8  N   UNL     1      -1.020  11.948  22.770  0.00  0.00    +0.000 N 
ATOM      9  C   UNL     1      -2.358  11.773  23.281  0.00  0.00    +0.000 C 
ATOM     10  C   UNL     1      -2.949  13.198  23.276  0.00  0.00    +0.000 C 
ATOM     11  C   UNL     1      -3.862  13.456  24.478  0.00  0.00    +0.000 C 
ATOM     12  C   UNL     1      -3.731  13.407  21.968  0.00  0.00    +0.000 C 
ATOM     13  N   UNL     1      -1.738  14.020  23.328  0.00  0.00    +0.000 N 
ATOM     14  C   UNL     1      -1.739  15.467  23.359  0.00  0.00    +0.000 C 
ATOM     15  C   UNL     1      -0.644  13.300  22.801  0.00  0.00    +0.000 C 
ATOM     16  O   UNL     1       0.394  13.808  22.410  0.00  0.00    +0.000 OA
ENDBRANCH   7   8
BRANCH   4  17
ATOM     17  C   UNL     1       1.727   7.746  20.240  0.00  0.00    +0.000 C 
ATOM     18  C   UNL     1       2.297   6.840  19.685  0.00  0.00    +0.000 C 
BRANCH  18  19
ATOM     19  C   UNL     1       2.955   5.768  18.990  0.00  0.00    +0.000 A 
ATOM     20  C   UNL     1       2.229   4.921  18.144  0.00  0.00    +0.000 A 
ATOM     21  C   UNL     1       2.864   3.857  17.490  0.00  0.00    +0.000 A 
ATOM     22  C   UNL     1       4.228   3.641  17.680  0.00  0.00    +0.000 A 
ATOM     23  C   UNL     1       4.944   4.493  18.513  0.00  0.00    +0.000 A 
ATOM     24  F   UNL     1       6.255   4.281  18.693  0.00  0.00    +0.000 F 
ATOM     25  C   UNL     1       4.324   5.552  19.169  0.00  0.00    +0.000 A 
ENDBRANCH  18  19
ENDBRANCH   4  17
TORSDOF 3
ENDMDL
MODEL 3
REMARK VINA RESULT:      -7.9      7.975      9.398
REMARK  Name = 
REMARK  7 active torsions:
REMARK  status: ('A' for Active; 'I' for Inactive)
REMARK    1  A    between atoms: C_1  and  C_2
REMARK    2  A    between atoms: C_4  and  C_5
REMARK    3  A    between atoms: C_6  and  C_7
REMARK    4  A    between atoms: C_16  and  N_17
REMARK    5  A    between atoms: C_19  and  C_20
REMARK    6  A    between atoms: C_19  and  C_21
REMARK    7  A    between atoms: N_22  and  C_23
REMARK                            x       y       z     vdW  Elec       q    Type
REMARK                         _______ _______ _______ _____ _____    ______ ____
ROOT
ATOM      1  C   UNL     1       0.125   8.613  21.395  0.00  0.00    +0.000 C 
ATOM      2  C   UNL     1       0.914   9.092  20.210  0.00  0.00    +0.000 A 
ATOM      3  C   UNL     1       1.804   8.200  19.579  0.00  0.00    +0.000 A 
ATOM      4  C   UNL     1       2.465   8.567  18.412  0.00  0.00    +0.000 A 
ATOM      5  C   UNL     1       2.177   9.821  17.899  0.00  0.00    +0.000 A 
ATOM      6  N   UNL     1       1.305  10.705  18.462  0.00  0.00    +0.000 NA
ATOM      7  C   UNL     1       0.729  10.360  19.642  0.00  0.00    +0.000 A 
ENDROOT
BRANCH   7   8
ATOM      8  N   UNL     1      -0.106  11.313  20.249  0.00  0.00    +0.000 N 
ATOM      9  C   UNL     1       0.238  11.995  21.473  0.00  0.00    +0.000 C 
ATOM     10  C   UNL     1      -1.126  12.346  22.101  0.00  0.00    +0.000 C 
ATOM     11  C   UNL     1      -1.113  13.707  22.802  0.00  0.00    +0.000 C 
ATOM     12  C   UNL     1      -1.512  11.244  23.102  0.00  0.00    +0.000 C 
ATOM     13  N   UNL     1      -2.000  12.349  20.926  0.00  0.00    +0.000 N 
ATOM     14  C   UNL     1      -3.416  12.644  20.967  0.00  0.00    +0.000 C 
ATOM     15  C   UNL     1      -1.452  11.528  19.916  0.00  0.00    +0.000 C 
ATOM     16  O   UNL     1      -2.084  11.072  18.977  0.00  0.00    +0.000 OA
ENDBRANCH   7   8
BRANCH   4  17
ATOM     17  C   UNL     1       3.386   7.666  17.776  0.00  0.00    +0.000 C 
ATOM     18  C   UNL     1       4.186   6.917  17.272  0.00  0.00    +0.000 C 
BRANCH  18  19
ATOM     19  C   UNL     1       5.169   6.045  16.692  0.00  0.00    +0.000 A 
ATOM     20  C   UNL     1       5.081   5.676  15.344  0.00  0.00    +0.000 A 
ATOM     21  C   UNL     1       6.021   4.801  14.784  0.00  0.00    +0.000 A 
ATOM     22  C   UNL     1       7.054   4.295  15.573  0.00  0.00    +0.000 A 
ATOM     23  C   UNL     1       7.139   4.674  16.908  0.00  0.00    +0.000 A 
ATOM     24  F   UNL     1       8.133   4.185  17.663  0.00  0.00    +0.000 F 
ATOM     25  C   UNL     1       6.211   5.541  17.474  0.00  0.00    +0.000 A 
ENDBRANCH  18  19
ENDBRANCH   4  17
TORSDOF 3
ENDMDL
MODEL 4
REMARK VINA RESULT:      -7.8      1.125      1.361
REMARK  Name = 
REMARK  7 active torsions:
REMARK  status: ('A' for Active; 'I' for Inactive)
REMARK    1  A    between atoms: C_1  and  C_2
REMARK    2  A    between atoms: C_4  and  C_5
REMARK    3  A    between atoms: C_6  and  C_7
REMARK    4  A    between atoms: C_16  and  N_17
REMARK    5  A    between atoms: C_19  and  C_20
REMARK    6  A    between atoms: C_19  and  C_21
REMARK    7  A    between atoms: N_22  and  C_23
REMARK                            x       y       z     vdW  Elec       q    Type
REMARK                         _______ _______ _______ _____ _____    ______ ____
ROOT
ATOM      1  C   UNL     1      10.790  11.735  20.775  0.00  0.00    +0.000 C 
ATOM      2  C   UNL     1       9.962  11.529  19.538  0.00  0.00    +0.000 A 
ATOM      3  C   UNL     1       9.439  10.247  19.274  0.00  0.00    +0.000 A 
ATOM      4  C   UNL     1       8.575  10.042  18.204  0.00  0.00    +0.000 A 
ATOM      5  C   UNL     1       8.238  11.156  17.451  0.00  0.00    +0.000 A 
ATOM      6  N   UNL     1       8.700  12.416  17.686  0.00  0.00    +0.000 NA
ATOM      7  C   UNL     1       9.603  12.583  18.686  0.00  0.00    +0.000 A 
ENDROOT
BRANCH   7   8
ATOM      8  N   UNL     1      10.129  13.873  18.866  0.00  0.00    +0.000 N 
ATOM      9  C   UNL     1       9.437  14.911  19.590  0.00  0.00    +0.000 C 
ATOM     10  C   UNL     1       9.970  16.218  18.967  0.00  0.00    +0.000 C 
ATOM     11  C   UNL     1      10.140  17.332  20.004  0.00  0.00    +0.000 C 
ATOM     12  C   UNL     1       9.002  16.673  17.862  0.00  0.00    +0.000 C 
ATOM     13  N   UNL     1      11.258  15.783  18.423  0.00  0.00    +0.000 N 
ATOM     14  C   UNL     1      12.184  16.654  17.732  0.00  0.00    +0.000 C 
ATOM     15  C   UNL     1      11.227  14.395  18.165  0.00  0.00    +0.000 C 
ATOM     16  O   UNL     1      12.002  13.812  17.423  0.00  0.00    +0.000 OA
ENDBRANCH   7   8
BRANCH   4  17
ATOM     17  C   UNL     1       8.054   8.734  17.922  0.00  0.00    +0.000 C 
ATOM     18  C   UNL     1       7.583   7.653  17.667  0.00  0.00    +0.000 C 
BRANCH  18  19
ATOM     19  C   UNL     1       6.987   6.382  17.361  0.00  0.00    +0.000 A 
ATOM     20  C   UNL     1       7.014   5.882  16.053  0.00  0.00    +0.000 A 
ATOM     21  C   UNL     1       6.407   4.658  15.748  0.00  0.00    +0.000 A 
ATOM     22  C   UNL     1       5.772   3.929  16.753  0.00  0.00    +0.000 A 
ATOM     23  C   UNL     1       5.758   4.427  18.051  0.00  0.00    +0.000 A 
ATOM     24  F   UNL     1       5.146   3.723  19.014  0.00  0.00    +0.000 F 
ATOM     25  C   UNL     1       6.357   5.642  18.365  0.00  0.00    +0.000 A 
ENDBRANCH  18  19
ENDBRANCH   4  17
TORSDOF 3
ENDMDL
MODEL 5
REMARK VINA RESULT:      -7.7      9.380     10.547
REMARK  Name = 
REMARK  7 active torsions:
REMARK  status: ('A' for Active; 'I' for Inactive)
REMARK    1  A    between atoms: C_1  and  C_2
REMARK    2  A    between atoms: C_4  and  C_5
REMARK    3  A    between atoms: C_6  and  C_7
REMARK    4  A    between atoms: C_16  and  N_17
REMARK    5  A    between atoms: C_19  and  C_20
REMARK    6  A    between atoms: C_19  and  C_21
REMARK    7  A    between atoms: N_22  and  C_23
REMARK                            x       y       z     vdW  Elec       q    Type
REMARK                         _______ _______ _______ _____ _____    ______ ____
ROOT
ATOM      1  C   UNL     1      -1.191  11.886  19.931  0.00  0.00    +0.000 C 
ATOM      2  C   UNL     1      -0.661  10.909  20.942  0.00  0.00    +0.000 A 
ATOM      3  C   UNL     1      -0.061   9.718  20.488  0.00  0.00    +0.000 A 
ATOM      4  C   UNL     1       0.544   8.844  21.385  0.00  0.00    +0.000 A 
ATOM      5  C   UNL     1       0.551   9.222  22.718  0.00  0.00    +0.000 A 
ATOM      6  N   UNL     1       0.006  10.376  23.196  0.00  0.00    +0.000 NA
ATOM      7  C   UNL     1      -0.648  11.179  22.317  0.00  0.00    +0.000 A 
ENDROOT
BRANCH   7   8
ATOM      8  N   UNL     1      -1.273  12.323  22.839  0.00  0.00    +0.000 N 
ATOM      9  C   UNL     1      -2.666  12.358  23.215  0.00  0.00    +0.000 C 
ATOM     10  C   UNL     1      -3.061  13.839  23.046  0.00  0.00    +0.000 C 
ATOM     11  C   UNL     1      -4.045  14.307  24.122  0.00  0.00    +0.000 C 
ATOM     12  C   UNL     1      -3.677  14.034  21.650  0.00  0.00    +0.000 C 
ATOM     13  N   UNL     1      -1.763  14.507  23.169  0.00  0.00    +0.000 N 
ATOM     14  C   UNL     1      -1.577  15.940  23.099  0.00  0.00    +0.000 C 
ATOM     15  C   UNL     1      -0.728  13.616  22.815  0.00  0.00    +0.000 C 
ATOM     16  O   UNL     1       0.402  13.958  22.503  0.00  0.00    +0.000 OA
ENDBRANCH   7   8
BRANCH   4  17
ATOM     17  C   UNL     1       1.142   7.620  20.927  0.00  0.00    +0.000 C 
ATOM     18  C   UNL     1       1.675   6.599  20.570  0.00  0.00    +0.000 C 
BRANCH  18  19
ATOM     19  C   UNL     1       2.345   5.397  20.158  0.00  0.00    +0.000 A 
ATOM     20  C   UNL     1       3.662   5.446  19.682  0.00  0.00    +0.000 A 
ATOM     21  C   UNL     1       4.306   4.280  19.252  0.00  0.00    +0.000 A 
ATOM     22  C   UNL     1       3.633   3.059  19.299  0.00  0.00    +0.000 A 
ATOM     23  C   UNL     1       2.330   3.016  19.782  0.00  0.00    +0.000 A 
ATOM     24  F   UNL     1       1.688   1.840  19.825  0.00  0.00    +0.000 F 
ATOM     25  C   UNL     1       1.681   4.169  20.211  0.00  0.00    +0.000 A 
ENDBRANCH  18  19
ENDBRANCH   4  17
TORSDOF 3
ENDMDL
MODEL 6
REMARK VINA RESULT:      -7.6      8.889     10.190
REMARK  Name = 
REMARK  7 active torsions:
REMARK  status: ('A' for Active; 'I' for Inactive)
REMARK    1  A    between atoms: C_1  and  C_2
REMARK    2  A    between atoms: C_4  and  C_5
REMARK    3  A    between atoms: C_6  and  C_7
REMARK    4  A    between atoms: C_16  and  N_17
REMARK    5  A    between atoms: C_19  and  C_20
REMARK    6  A    between atoms: C_19  and  C_21
REMARK    7  A    between atoms: N_22  and  C_23
REMARK                            x       y       z     vdW  Elec       q    Type
REMARK                         _______ _______ _______ _____ _____    ______ ____
ROOT
ATOM      1  C   UNL     1      -1.340  11.984  19.700  0.00  0.00    +0.000 C 
ATOM      2  C   UNL     1      -0.488  10.963  20.400  0.00  0.00    +0.000 A 
ATOM      3  C   UNL     1       0.214  10.016  19.628  0.00  0.00    +0.000 A 
ATOM      4  C   UNL     1       1.101   9.130  20.229  0.00  0.00    +0.000 A 
ATOM      5  C   UNL     1       1.277   9.255  21.598  0.00  0.00    +0.000 A 
ATOM      6  N   UNL     1       0.640  10.172  22.379  0.00  0.00    +0.000 NA
ATOM      7  C   UNL     1      -0.281  10.976  21.787  0.00  0.00    +0.000 A 
ENDROOT
BRANCH   7   8
ATOM      8  N   UNL     1      -0.986  11.862  22.618  0.00  0.00    +0.000 N 
ATOM      9  C   UNL     1      -2.300  11.573  23.142  0.00  0.00    +0.000 C 
ATOM     10  C   UNL     1      -2.930  12.964  23.355  0.00  0.00    +0.000 C 
ATOM     11  C   UNL     1      -3.806  13.022  24.610  0.00  0.00    +0.000 C 
ATOM     12  C   UNL     1      -3.764  13.328  22.115  0.00  0.00    +0.000 C 
ATOM     13  N   UNL     1      -1.742  13.811  23.483  0.00  0.00    +0.000 N 
ATOM     14  C   UNL     1      -1.783  15.238  23.717  0.00  0.00    +0.000 C 
ATOM     15  C   UNL     1      -0.648  13.208  22.826  0.00  0.00    +0.000 C 
ATOM     16  O   UNL     1       0.361  13.800  22.477  0.00  0.00    +0.000 OA
ENDBRANCH   7   8
BRANCH   4  17
ATOM     17  C   UNL     1       1.805   8.152  19.447  0.00  0.00    +0.000 C 
ATOM     18  C   UNL     1       2.429   7.337  18.814  0.00  0.00    +0.000 C 
BRANCH  18  19
ATOM     19  C   UNL     1       3.207   6.385  18.071  0.00  0.00    +0.000 A 
ATOM     20  C   UNL     1       4.314   6.804  17.322  0.00  0.00    +0.000 A 
ATOM     21  C   UNL     1       5.055   5.881  16.573  0.00  0.00    +0.000 A 
ATOM     22  C   UNL     1       4.690   4.535  16.574  0.00  0.00    +0.000 A 
ATOM     23  C   UNL     1       3.597   4.125  17.328  0.00  0.00    +0.000 A 
ATOM     24  F   UNL     1       3.250   2.830  17.326  0.00  0.00    +0.000 F 
ATOM     25  C   UNL     1       2.853   5.033  18.075  0.00  0.00    +0.000 A 
ENDBRANCH  18  19
ENDBRANCH   4  17
TORSDOF 3
ENDMDL
MODEL 7
REMARK VINA RESULT:      -7.6      9.508     10.556
REMARK  Name = 
REMARK  7 active torsions:
REMARK  status: ('A' for Active; 'I' for Inactive)
REMARK    1  A    between atoms: C_1  and  C_2
REMARK    2  A    between atoms: C_4  and  C_5
REMARK    3  A    between atoms: C_6  and  C_7
REMARK    4  A    between atoms: C_16  and  N_17
REMARK    5  A    between atoms: C_19  and  C_20
REMARK    6  A    between atoms: C_19  and  C_21
REMARK    7  A    between atoms: N_22  and  C_23
REMARK                            x       y       z     vdW  Elec       q    Type
REMARK                         _______ _______ _______ _____ _____    ______ ____
ROOT
ATOM      1  C   UNL     1      -1.255  11.906  19.965  0.00  0.00    +0.000 C 
ATOM      2  C   UNL     1      -0.746  10.925  20.983  0.00  0.00    +0.000 A 
ATOM      3  C   UNL     1      -0.127   9.740  20.537  0.00  0.00    +0.000 A 
ATOM      4  C   UNL     1       0.459   8.863  21.443  0.00  0.00    +0.000 A 
ATOM      5  C   UNL     1       0.429   9.232  22.778  0.00  0.00    +0.000 A 
ATOM      6  N   UNL     1      -0.136  10.379  23.250  0.00  0.00    +0.000 NA
ATOM      7  C   UNL     1      -0.771  11.184  22.360  0.00  0.00    +0.000 A 
ENDROOT
BRANCH   7   8
ATOM      8  N   UNL     1      -1.417  12.322  22.873  0.00  0.00    +0.000 N 
ATOM      9  C   UNL     1      -2.823  12.352  23.194  0.00  0.00    +0.000 C 
ATOM     10  C   UNL     1      -3.211  13.835  23.030  0.00  0.00    +0.000 C 
ATOM     11  C   UNL     1      -4.237  14.289  24.073  0.00  0.00    +0.000 C 
ATOM     12  C   UNL     1      -3.772  14.050  21.615  0.00  0.00    +0.000 C 
ATOM     13  N   UNL     1      -1.920  14.501  23.215  0.00  0.00    +0.000 N 
ATOM     14  C   UNL     1      -1.731  15.935  23.172  0.00  0.00    +0.000 C 
ATOM     15  C   UNL     1      -0.871  13.614  22.889  0.00  0.00    +0.000 C 
ATOM     16  O   UNL     1       0.271  13.960  22.627  0.00  0.00    +0.000 OA
ENDBRANCH   7   8
BRANCH   4  17
ATOM     17  C   UNL     1       1.076   7.646  20.993  0.00  0.00    +0.000 C 
ATOM     18  C   UNL     1       1.611   6.646  20.583  0.00  0.00    +0.000 C 
BRANCH  18  19
ATOM     19  C   UNL     1       2.250   5.471  20.059  0.00  0.00    +0.000 A 
ATOM     20  C   UNL     1       2.381   4.323  20.850  0.00  0.00    +0.000 A 
ATOM     21  C   UNL     1       3.031   3.187  20.352  0.00  0.00    +0.000 A 
ATOM     22  C   UNL     1       3.549   3.197  19.057  0.00  0.00    +0.000 A 
ATOM     23  C   UNL     1       3.406   4.337  18.274  0.00  0.00    +0.000 A 
ATOM     24  F   UNL     1       3.906   4.342  17.030  0.00  0.00    +0.000 F 
ATOM     25  C   UNL     1       2.764   5.471  18.760  0.00  0.00    +0.000 A 
ENDBRANCH  18  19
ENDBRANCH   4  17
TORSDOF 3
ENDMDL
MODEL 8
REMARK VINA RESULT:      -7.6      1.136      1.713
REMARK  Name = 
REMARK  7 active torsions:
REMARK  status: ('A' for Active; 'I' for Inactive)
REMARK    1  A    between atoms: C_1  and  C_2
REMARK    2  A    between atoms: C_4  and  C_5
REMARK    3  A    between atoms: C_6  and  C_7
REMARK    4  A    between atoms: C_16  and  N_17
REMARK    5  A    between atoms: C_19  and  C_20
REMARK    6  A    between atoms: C_19  and  C_21
REMARK    7  A    between atoms: N_22  and  C_23
REMARK                            x       y       z     vdW  Elec       q    Type
REMARK                         _______ _______ _______ _____ _____    ______ ____
ROOT
ATOM      1  C   UNL     1       7.689  14.839  17.668  0.00  0.00    +0.000 C 
ATOM      2  C   UNL     1       8.608  13.712  18.045  0.00  0.00    +0.000 A 
ATOM      3  C   UNL     1       8.151  12.386  17.914  0.00  0.00    +0.000 A 
ATOM      4  C   UNL     1       9.008  11.315  18.142  0.00  0.00    +0.000 A 
ATOM      5  C   UNL     1      10.320  11.623  18.466  0.00  0.00    +0.000 A 
ATOM      6  N   UNL     1      10.811  12.890  18.579  0.00  0.00    +0.000 NA
ATOM      7  C   UNL     1       9.940  13.921  18.429  0.00  0.00    +0.000 A 
ENDROOT
BRANCH   7   8
ATOM      8  N   UNL     1      10.444  15.218  18.627  0.00  0.00    +0.000 N 
ATOM      9  C   UNL     1      10.286  15.943  19.864  0.00  0.00    +0.000 C 
ATOM     10  C   UNL     1      10.325  17.424  19.435  0.00  0.00    +0.000 C 
ATOM     11  C   UNL     1      11.047  18.309  20.455  0.00  0.00    +0.000 C 
ATOM     12  C   UNL     1       8.884  17.922  19.234  0.00  0.00    +0.000 C 
ATOM     13  N   UNL     1      11.059  17.346  18.170  0.00  0.00    +0.000 N 
ATOM     14  C   UNL     1      11.386  18.492  17.348  0.00  0.00    +0.000 C 
ATOM     15  C   UNL     1      10.913  16.060  17.607  0.00  0.00    +0.000 C 
ATOM     16  O   UNL     1      11.117  15.791  16.434  0.00  0.00    +0.000 OA
ENDBRANCH   7   8
BRANCH   4  17
ATOM     17  C   UNL     1       8.540   9.962  18.025  0.00  0.00    +0.000 C 
ATOM     18  C   UNL     1       8.184   8.812  17.940  0.00  0.00    +0.000 C 
BRANCH  18  19
ATOM     19  C   UNL     1       7.798   7.433  17.837  0.00  0.00    +0.000 A 
ATOM     20  C   UNL     1       8.097   6.534  18.869  0.00  0.00    +0.000 A 
ATOM     21  C   UNL     1       7.748   5.182  18.757  0.00  0.00    +0.000 A 
ATOM     22  C   UNL     1       7.097   4.727  17.611  0.00  0.00    +0.000 A 
ATOM     23  C   UNL     1       6.795   5.627  16.596  0.00  0.00    +0.000 A 
ATOM     24  F   UNL     1       6.169   5.185  15.496  0.00  0.00    +0.000 F 
ATOM     25  C   UNL     1       7.137   6.972  16.696  0.00  0.00    +0.000 A 
ENDBRANCH  18  19
ENDBRANCH   4  17
TORSDOF 3
ENDMDL
MODEL 9
REMARK VINA RESULT:      -7.5      8.936     10.050
REMARK  Name = 
REMARK  7 active torsions:
REMARK  status: ('A' for Active; 'I' for Inactive)
REMARK    1  A    between atoms: C_1  and  C_2
REMARK    2  A    between atoms: C_4  and  C_5
REMARK    3  A    between atoms: C_6  and  C_7
REMARK    4  A    between atoms: C_16  and  N_17
REMARK    5  A    between atoms: C_19  and  C_20
REMARK    6  A    between atoms: C_19  and  C_21
REMARK    7  A    between atoms: N_22  and  C_23
REMARK                            x       y       z     vdW  Elec       q    Type
REMARK                         _______ _______ _______ _____ _____    ______ ____
ROOT
ATOM      1  C   UNL     1      -0.813  11.969  19.565  0.00  0.00    +0.000 C 
ATOM      2  C   UNL     1      -0.237  10.954  20.511  0.00  0.00    +0.000 A 
ATOM      3  C   UNL     1       0.440   9.837  19.982  0.00  0.00    +0.000 A 
ATOM      4  C   UNL     1       1.086   8.937  20.823  0.00  0.00    +0.000 A 
ATOM      5  C   UNL     1       1.054   9.217  22.180  0.00  0.00    +0.000 A 
ATOM      6  N   UNL     1       0.434  10.298  22.732  0.00  0.00    +0.000 NA
ATOM      7  C   UNL     1      -0.257  11.122  21.903  0.00  0.00    +0.000 A 
ENDROOT
BRANCH   7   8
ATOM      8  N   UNL     1      -0.956  12.187  22.496  0.00  0.00    +0.000 N 
ATOM      9  C   UNL     1      -2.352  12.108  22.855  0.00  0.00    +0.000 C 
ATOM     10  C   UNL     1      -2.837  13.571  22.786  0.00  0.00    +0.000 C 
ATOM     11  C   UNL     1      -3.857  13.900  23.880  0.00  0.00    +0.000 C 
ATOM     12  C   UNL     1      -3.453  13.825  21.400  0.00  0.00    +0.000 C 
ATOM     13  N   UNL     1      -1.585  14.307  22.972  0.00  0.00    +0.000 N 
ATOM     14  C   UNL     1      -1.488  15.750  23.004  0.00  0.00    +0.000 C 
ATOM     15  C   UNL     1      -0.493  13.509  22.569  0.00  0.00    +0.000 C 
ATOM     16  O   UNL     1       0.616  13.941  22.296  0.00  0.00    +0.000 OA
ENDBRANCH   7   8
BRANCH   4  17
ATOM     17  C   UNL     1       1.763   7.789  20.288  0.00  0.00    +0.000 C 
ATOM     18  C   UNL     1       2.320   6.836  19.800  0.00  0.00    +0.000 C 
BRANCH  18  19
ATOM     19  C   UNL     1       2.959   5.705  19.188  0.00  0.00    +0.000 A 
ATOM     20  C   UNL     1       4.234   5.301  19.603  0.00  0.00    +0.000 A 
ATOM     21  C   UNL     1       4.872   4.218  18.986  0.00  0.00    +0.000 A 
ATOM     22  C   UNL     1       4.233   3.533  17.953  0.00  0.00    +0.000 A 
ATOM     23  C   UNL     1       2.963   3.934  17.553  0.00  0.00    +0.000 A 
ATOM     24  F   UNL     1       2.352   3.274  16.559  0.00  0.00    +0.000 F 
ATOM     25  C   UNL     1       2.321   5.010  18.158  0.00  0.00    +0.000 A 
ENDBRANCH  18  19
ENDBRANCH   4  17
TORSDOF 3
ENDMDL
