MODEL 1
REMARK VINA RESULT:      -8.6      0.000      0.000
REMARK  Name = 
REMARK  10 active torsions:
REMARK  status: ('A' for Active; 'I' for Inactive)
REMARK    1  A    between atoms: N_1  and  C_2
REMARK    2  A    between atoms: C_5  and  C_6
REMARK    3  A    between atoms: C_6  and  N_7
REMARK    4  A    between atoms: C_8  and  C_10
REMARK    5  A    between atoms: N_17  and  C_18
REMARK    6  A    between atoms: C_18  and  C_19
REMARK    7  A    between atoms: C_18  and  C_27
REMARK    8  A    between atoms: C_19  and  S_20
REMARK    9  A    between atoms: S_20  and  C_21
REMARK   10  A    between atoms: C_27  and  O_29
REMARK                            x       y       z     vdW  Elec       q    Type
REMARK                         _______ _______ _______ _____ _____    ______ ____
ROOT
ATOM      1  C   UNL     1       1.921   5.671  19.381  0.00  0.00    +0.000 C 
ATOM      2  C   UNL     1       0.953   4.927  20.258  0.00  0.00    +0.000 C 
ATOM      3  C   UNL     1       1.219   3.720  20.785  0.00  0.00    +0.000 C 
ATOM      4  C   UNL     1       2.497   2.994  20.520  0.00  0.00    +0.000 C 
ATOM      5  N   UNL     1       3.545   3.895  20.107  0.00  0.00    +0.000 N 
ATOM      6  C   UNL     1       4.814   3.503  19.653  0.00  0.00    +0.000 A 
ATOM      7  O   UNL     1       5.261   2.367  19.648  0.00  0.00    +0.000 OA
ATOM      8  N   UNL     1       5.393   4.620  19.078  0.00  0.00    +0.000 N 
ATOM      9  C   UNL     1       4.351   5.435  18.709  0.00  0.00    +0.000 A 
ATOM     10  O   UNL     1       4.337   6.231  17.780  0.00  0.00    +0.000 OA
ATOM     11  N   UNL     1       3.269   5.139  19.520  0.00  0.00    +0.000 N 
ENDROOT
BRANCH   1  13
ATOM     12  N   UNL     1       1.507   7.473  21.050  0.00  0.00    +0.000 N 
ATOM     13  C   UNL     1       1.952   7.186  19.769  0.00  0.00    +0.000 C 
ATOM     14  O   UNL     1       2.389   8.069  19.035  0.00  0.00    +0.000 OA
ATOM     15  H   UNL     1       1.087   6.723  21.603  0.00  0.00    +0.000 HD
BRANCH  12  16
ATOM     16  C   UNL     1       1.360   8.837  21.503  0.00  0.00    +0.000 C 
BRANCH  16  20
ATOM     17  C   UNL     1      -0.095  12.039  20.236  0.00  0.00    +0.000 C 
ATOM     18  C   UNL     1       0.345  11.817  21.690  0.00  0.00    +0.000 C 
ATOM     19  C   UNL     1      -0.312  10.596  22.336  0.00  0.00    +0.000 C 
ATOM     20  C   UNL     1      -0.103   9.315  21.512  0.00  0.00    +0.000 C 
ATOM     21  C   UNL     1      -0.612   9.533  20.076  0.00  0.00    +0.000 C 
ATOM     22  C   UNL     1       0.029  10.752  19.406  0.00  0.00    +0.000 C 
BRANCH  17  23
ATOM     23  N   UNL     1      -1.467  12.544  20.178  0.00  0.00    +0.000 NA
ATOM     24  H   UNL     1      -1.587  13.108  19.337  0.00  0.00    +0.000 HD
ATOM     25  H   UNL     1      -1.656  13.164  20.963  0.00  0.00    +0.000 HD
ENDBRANCH  17  23
ENDBRANCH  16  20
ENDBRANCH  12  16
ENDBRANCH   1  13
BRANCH   8  26
ATOM     26  C   UNL     1       6.715   4.687  18.438  0.00  0.00    +0.000 C 
BRANCH  26  27
ATOM     27  C   UNL     1       7.535   5.826  19.051  0.00  0.00    +0.000 C 
ATOM     28  O   UNL     1       7.839   6.850  18.454  0.00  0.00    +0.000 OA
BRANCH  27  29
ATOM     29  O   UNL     1       7.945   5.590  20.321  0.00  0.00    +0.000 OA
ATOM     30  H   UNL     1       7.961   4.653  20.598  0.00  0.00    +0.000 HD
ENDBRANCH  27  29
ENDBRANCH  26  27
BRANCH  26  31
ATOM     31  C   UNL     1       6.553   5.019  16.930  0.00  0.00    +0.000 C 
BRANCH  31  32
ATOM     32  S   UNL     1       5.738   3.719  15.932  0.00  0.00    +0.000 S 
BRANCH  32  33
ATOM     33  C   UNL     1       6.352   4.090  14.284  0.00  0.00    +0.000 A 
ATOM     34  C   UNL     1       7.330   5.084  14.154  0.00  0.00    +0.000 A 
ATOM     35  C   UNL     1       7.899   5.370  12.908  0.00  0.00    +0.000 A 
ATOM     36  C   UNL     1       7.498   4.663  11.776  0.00  0.00    +0.000 A 
ATOM     37  C   UNL     1       6.522   3.675  11.892  0.00  0.00    +0.000 A 
ATOM     38  C   UNL     1       5.955   3.387  13.138  0.00  0.00    +0.000 A 
ENDBRANCH  32  33
ENDBRANCH  31  32
ENDBRANCH  26  31
ENDBRANCH   8  26
TORSDOF 10
ENDMDL
MODEL 2
REMARK VINA RESULT:      -8.6      1.258      1.818
REMARK  Name = 
REMARK  10 active torsions:
REMARK  status: ('A' for Active; 'I' for Inactive)
REMARK    1  A    between atoms: N_1  and  C_2
REMARK    2  A    between atoms: C_5  and  C_6
REMARK    3  A    between atoms: C_6  and  N_7
REMARK    4  A    between atoms: C_8  and  C_10
REMARK    5  A    between atoms: N_17  and  C_18
REMARK    6  A    between atoms: C_18  and  C_19
REMARK    7  A    between atoms: C_18  and  C_27
REMARK    8  A    between atoms: C_19  and  S_20
REMARK    9  A    between atoms: S_20  and  C_21
REMARK   10  A    between atoms: C_27  and  O_29
REMARK                            x       y       z     vdW  Elec       q    Type
REMARK                         _______ _______ _______ _____ _____    ______ ____
ROOT
ATOM      1  C   UNL     1       1.814   5.395  19.650  0.00  0.00    +0.000 C 
ATOM      2  C   UNL     1       0.919   4.566  20.529  0.00  0.00    +0.000 C 
ATOM      3  C   UNL     1       1.255   3.342  20.970  0.00  0.00    +0.000 C 
ATOM      4  C   UNL     1       2.543   2.682  20.600  0.00  0.00    +0.000 C 
ATOM      5  N   UNL     1       3.535   3.645  20.190  0.00  0.00    +0.000 N 
ATOM      6  C   UNL     1       4.793   3.329  19.652  0.00  0.00    +0.000 A 
ATOM      7  O   UNL     1       5.279   2.213  19.559  0.00  0.00    +0.000 OA
ATOM      8  N   UNL     1       5.302   4.499  19.116  0.00  0.00    +0.000 N 
ATOM      9  C   UNL     1       4.214   5.292  18.847  0.00  0.00    +0.000 A 
ATOM     10  O   UNL     1       4.124   6.139  17.968  0.00  0.00    +0.000 OA
ATOM     11  N   UNL     1       3.186   4.909  19.692  0.00  0.00    +0.000 N 
ENDROOT
BRANCH   1  13
ATOM     12  N   UNL     1       1.669   7.824  19.114  0.00  0.00    +0.000 N 
ATOM     13  C   UNL     1       1.810   6.886  20.124  0.00  0.00    +0.000 C 
ATOM     14  O   UNL     1       1.866   7.225  21.304  0.00  0.00    +0.000 OA
ATOM     15  H   UNL     1       1.696   7.507  18.142  0.00  0.00    +0.000 HD
BRANCH  12  16
ATOM     16  C   UNL     1       1.774   9.239  19.387  0.00  0.00    +0.000 C 
BRANCH  16  20
ATOM     17  C   UNL     1      -0.762  11.954  18.971  0.00  0.00    +0.000 C 
ATOM     18  C   UNL     1      -1.010  10.488  18.588  0.00  0.00    +0.000 C 
ATOM     19  C   UNL     1       0.041   9.933  17.626  0.00  0.00    +0.000 C 
ATOM     20  C   UNL     1       1.473  10.113  18.156  0.00  0.00    +0.000 C 
ATOM     21  C   UNL     1       1.727  11.598  18.470  0.00  0.00    +0.000 C 
ATOM     22  C   UNL     1       0.687  12.180  19.431  0.00  0.00    +0.000 C 
BRANCH  17  23
ATOM     23  N   UNL     1      -1.079  12.845  17.854  0.00  0.00    +0.000 NA
ATOM     24  H   UNL     1      -1.729  12.379  17.221  0.00  0.00    +0.000 HD
ATOM     25  H   UNL     1      -0.245  13.043  17.304  0.00  0.00    +0.000 HD
ENDBRANCH  17  23
ENDBRANCH  16  20
ENDBRANCH  12  16
ENDBRANCH   1  13
BRANCH   8  26
ATOM     26  C   UNL     1       6.586   4.653  18.417  0.00  0.00    +0.000 C 
BRANCH  26  27
ATOM     27  C   UNL     1       7.403   5.772  19.068  0.00  0.00    +0.000 C 
ATOM     28  O   UNL     1       7.742   6.798  18.492  0.00  0.00    +0.000 OA
BRANCH  27  29
ATOM     29  O   UNL     1       7.771   5.515  20.347  0.00  0.00    +0.000 OA
ATOM     30  H   UNL     1       8.690   5.747  20.582  0.00  0.00    +0.000 HD
ENDBRANCH  27  29
ENDBRANCH  26  27
BRANCH  26  31
ATOM     31  C   UNL     1       6.335   5.084  16.946  0.00  0.00    +0.000 C 
BRANCH  31  32
ATOM     32  S   UNL     1       5.520   3.826  15.896  0.00  0.00    +0.000 S 
BRANCH  32  33
ATOM     33  C   UNL     1       6.320   4.104  14.311  0.00  0.00    +0.000 A 
ATOM     34  C   UNL     1       5.837   3.403  13.199  0.00  0.00    +0.000 A 
ATOM     35  C   UNL     1       6.371   3.627  11.924  0.00  0.00    +0.000 A 
ATOM     36  C   UNL     1       7.394   4.558  11.747  0.00  0.00    +0.000 A 
ATOM     37  C   UNL     1       7.885   5.257  12.848  0.00  0.00    +0.000 A 
ATOM     38  C   UNL     1       7.351   5.035  14.121  0.00  0.00    +0.000 A 
ENDBRANCH  32  33
ENDBRANCH  31  32
ENDBRANCH  26  31
ENDBRANCH   8  26
TORSDOF 10
ENDMDL
MODEL 3
REMARK VINA RESULT:      -8.4      1.278      1.727
REMARK  Name = 
REMARK  10 active torsions:
REMARK  status: ('A' for Active; 'I' for Inactive)
REMARK    1  A    between atoms: N_1  and  C_2
REMARK    2  A    between atoms: C_5  and  C_6
REMARK    3  A    between atoms: C_6  and  N_7
REMARK    4  A    between atoms: C_8  and  C_10
REMARK    5  A    between atoms: N_17  and  C_18
REMARK    6  A    between atoms: C_18  and  C_19
REMARK    7  A    between atoms: C_18  and  C_27
REMARK    8  A    between atoms: C_19  and  S_20
REMARK    9  A    between atoms: S_20  and  C_21
REMARK   10  A    between atoms: C_27  and  O_29
REMARK                            x       y       z     vdW  Elec       q    Type
REMARK                         _______ _______ _______ _____ _____    ______ ____
ROOT
ATOM      1  C   UNL     1       1.725   5.269  19.618  0.00  0.00    +0.000 C 
ATOM      2  C   UNL     1       0.816   4.440  20.483  0.00  0.00    +0.000 C 
ATOM      3  C   UNL     1       1.143   3.214  20.926  0.00  0.00    +0.000 C 
ATOM      4  C   UNL     1       2.434   2.553  20.573  0.00  0.00    +0.000 C 
ATOM      5  N   UNL     1       3.434   3.514  20.179  0.00  0.00    +0.000 N 
ATOM      6  C   UNL     1       4.698   3.196  19.657  0.00  0.00    +0.000 A 
ATOM      7  O   UNL     1       5.184   2.080  19.569  0.00  0.00    +0.000 OA
ATOM      8  N   UNL     1       5.217   4.366  19.131  0.00  0.00    +0.000 N 
ATOM      9  C   UNL     1       4.135   5.162  18.848  0.00  0.00    +0.000 A 
ATOM     10  O   UNL     1       4.059   6.011  17.971  0.00  0.00    +0.000 OA
ATOM     11  N   UNL     1       3.094   4.779  19.678  0.00  0.00    +0.000 N 
ENDROOT
BRANCH   1  13
ATOM     12  N   UNL     1       1.658   7.701  19.082  0.00  0.00    +0.000 N 
ATOM     13  C   UNL     1       1.717   6.759  20.096  0.00  0.00    +0.000 C 
ATOM     14  O   UNL     1       1.704   7.095  21.278  0.00  0.00    +0.000 OA
ATOM     15  H   UNL     1       1.741   7.385  18.113  0.00  0.00    +0.000 HD
BRANCH  12  16
ATOM     16  C   UNL     1       1.770   9.113  19.364  0.00  0.00    +0.000 C 
BRANCH  16  20
ATOM     17  C   UNL     1      -0.723  11.868  18.951  0.00  0.00    +0.000 C 
ATOM     18  C   UNL     1      -0.991  10.408  18.560  0.00  0.00    +0.000 C 
ATOM     19  C   UNL     1       0.056   9.841  17.600  0.00  0.00    +0.000 C 
ATOM     20  C   UNL     1       1.488   9.998  18.137  0.00  0.00    +0.000 C 
ATOM     21  C   UNL     1       1.763  11.477  18.458  0.00  0.00    +0.000 C 
ATOM     22  C   UNL     1       0.728  12.070  19.418  0.00  0.00    +0.000 C 
BRANCH  17  23
ATOM     23  N   UNL     1      -1.021  12.769  17.837  0.00  0.00    +0.000 NA
ATOM     24  H   UNL     1      -1.476  12.245  17.089  0.00  0.00    +0.000 HD
ATOM     25  H   UNL     1      -0.163  13.143  17.437  0.00  0.00    +0.000 HD
ENDBRANCH  17  23
ENDBRANCH  16  20
ENDBRANCH  12  16
ENDBRANCH   1  13
BRANCH   8  26
ATOM     26  C   UNL     1       6.512   4.518  18.450  0.00  0.00    +0.000 C 
BRANCH  26  27
ATOM     27  C   UNL     1       7.317   5.642  19.108  0.00  0.00    +0.000 C 
ATOM     28  O   UNL     1       7.741   5.600  20.256  0.00  0.00    +0.000 OA
BRANCH  27  29
ATOM     29  O   UNL     1       7.492   6.731  18.320  0.00  0.00    +0.000 OA
ATOM     30  H   UNL     1       8.335   6.770  17.827  0.00  0.00    +0.000 HD
ENDBRANCH  27  29
ENDBRANCH  26  27
BRANCH  26  31
ATOM     31  C   UNL     1       6.282   4.942  16.974  0.00  0.00    +0.000 C 
BRANCH  31  32
ATOM     32  S   UNL     1       5.525   3.661  15.908  0.00  0.00    +0.000 S 
BRANCH  32  33
ATOM     33  C   UNL     1       6.229   4.064  14.304  0.00  0.00    +0.000 A 
ATOM     34  C   UNL     1       7.217   5.055  14.249  0.00  0.00    +0.000 A 
ATOM     35  C   UNL     1       7.854   5.365  13.042  0.00  0.00    +0.000 A 
ATOM     36  C   UNL     1       7.511   4.684  11.874  0.00  0.00    +0.000 A 
ATOM     37  C   UNL     1       6.526   3.699  11.916  0.00  0.00    +0.000 A 
ATOM     38  C   UNL     1       5.891   3.388  13.123  0.00  0.00    +0.000 A 
ENDBRANCH  32  33
ENDBRANCH  31  32
ENDBRANCH  26  31
ENDBRANCH   8  26
TORSDOF 10
ENDMDL
MODEL 4
REMARK VINA RESULT:      -8.4      0.982      1.163
REMARK  Name = 
REMARK  10 active torsions:
REMARK  status: ('A' for Active; 'I' for Inactive)
REMARK    1  A    between atoms: N_1  and  C_2
REMARK    2  A    between atoms: C_5  and  C_6
REMARK    3  A    between atoms: C_6  and  N_7
REMARK    4  A    between atoms: C_8  and  C_10
REMARK    5  A    between atoms: N_17  and  C_18
REMARK    6  A    between atoms: C_18  and  C_19
REMARK    7  A    between atoms: C_18  and  C_27
REMARK    8  A    between atoms: C_19  and  S_20
REMARK    9  A    between atoms: S_20  and  C_21
REMARK   10  A    between atoms: C_27  and  O_29
REMARK                            x       y       z     vdW  Elec       q    Type
REMARK                         _______ _______ _______ _____ _____    ______ ____
ROOT
ATOM      1  C   UNL     1       1.909   5.823  19.380  0.00  0.00    +0.000 C 
ATOM      2  C   UNL     1       0.922   5.098  20.253  0.00  0.00    +0.000 C 
ATOM      3  C   UNL     1       1.161   3.883  20.775  0.00  0.00    +0.000 C 
ATOM      4  C   UNL     1       2.422   3.130  20.510  0.00  0.00    +0.000 C 
ATOM      5  N   UNL     1       3.491   4.008  20.102  0.00  0.00    +0.000 N 
ATOM      6  C   UNL     1       4.751   3.590  19.648  0.00  0.00    +0.000 A 
ATOM      7  O   UNL     1       5.173   2.444  19.641  0.00  0.00    +0.000 OA
ATOM      8  N   UNL     1       5.357   4.696  19.079  0.00  0.00    +0.000 N 
ATOM      9  C   UNL     1       4.334   5.535  18.711  0.00  0.00    +0.000 A 
ATOM     10  O   UNL     1       4.340   6.335  17.786  0.00  0.00    +0.000 OA
ATOM     11  N   UNL     1       3.244   5.261  19.520  0.00  0.00    +0.000 N 
ENDROOT
BRANCH   1  13
ATOM     12  N   UNL     1       1.674   8.223  18.752  0.00  0.00    +0.000 N 
ATOM     13  C   UNL     1       1.973   7.336  19.774  0.00  0.00    +0.000 C 
ATOM     14  O   UNL     1       2.209   7.734  20.913  0.00  0.00    +0.000 OA
ATOM     15  H   UNL     1       1.552   7.857  17.805  0.00  0.00    +0.000 HD
BRANCH  12  16
ATOM     16  C   UNL     1       1.814   9.649  18.934  0.00  0.00    +0.000 C 
BRANCH  16  20
ATOM     17  C   UNL     1      -0.791  12.267  18.354  0.00  0.00    +0.000 C 
ATOM     18  C   UNL     1       0.613  12.565  18.898  0.00  0.00    +0.000 C 
ATOM     19  C   UNL     1       0.962  11.746  20.142  0.00  0.00    +0.000 C 
ATOM     20  C   UNL     1       0.784  10.236  19.916  0.00  0.00    +0.000 C 
ATOM     21  C   UNL     1      -0.649   9.947  19.437  0.00  0.00    +0.000 C 
ATOM     22  C   UNL     1      -1.025  10.756  18.192  0.00  0.00    +0.000 C 
BRANCH  17  23
ATOM     23  N   UNL     1      -1.819  12.844  19.221  0.00  0.00    +0.000 NA
ATOM     24  H   UNL     1      -2.128  12.144  19.894  0.00  0.00    +0.000 HD
ATOM     25  H   UNL     1      -2.644  13.099  18.681  0.00  0.00    +0.000 HD
ENDBRANCH  17  23
ENDBRANCH  16  20
ENDBRANCH  12  16
ENDBRANCH   1  13
BRANCH   8  26
ATOM     26  C   UNL     1       6.681   4.735  18.441  0.00  0.00    +0.000 C 
BRANCH  26  27
ATOM     27  C   UNL     1       7.516   5.868  19.043  0.00  0.00    +0.000 C 
ATOM     28  O   UNL     1       7.858   6.870  18.427  0.00  0.00    +0.000 OA
BRANCH  27  29
ATOM     29  O   UNL     1       7.895   5.655  20.327  0.00  0.00    +0.000 OA
ATOM     30  H   UNL     1       8.626   5.020  20.456  0.00  0.00    +0.000 HD
ENDBRANCH  27  29
ENDBRANCH  26  27
BRANCH  26  31
ATOM     31  C   UNL     1       6.527   5.051  16.929  0.00  0.00    +0.000 C 
BRANCH  31  32
ATOM     32  S   UNL     1       5.677   3.761  15.949  0.00  0.00    +0.000 S 
BRANCH  32  33
ATOM     33  C   UNL     1       6.291   4.101  14.294  0.00  0.00    +0.000 A 
ATOM     34  C   UNL     1       7.305   5.055  14.152  0.00  0.00    +0.000 A 
ATOM     35  C   UNL     1       7.874   5.315  12.900  0.00  0.00    +0.000 A 
ATOM     36  C   UNL     1       7.436   4.619  11.773  0.00  0.00    +0.000 A 
ATOM     37  C   UNL     1       6.424   3.670  11.902  0.00  0.00    +0.000 A 
ATOM     38  C   UNL     1       5.856   3.409  13.154  0.00  0.00    +0.000 A 
ENDBRANCH  32  33
ENDBRANCH  31  32
ENDBRANCH  26  31
ENDBRANCH   8  26
TORSDOF 10
ENDMDL
MODEL 5
REMARK VINA RESULT:      -8.1      3.813      7.310
REMARK  Name = 
REMARK  10 active torsions:
REMARK  status: ('A' for Active; 'I' for Inactive)
REMARK    1  A    between atoms: N_1  and  C_2
REMARK    2  A    between atoms: C_5  and  C_6
REMARK    3  A    between atoms: C_6  and  N_7
REMARK    4  A    between atoms: C_8  and  C_10
REMARK    5  A    between atoms: N_17  and  C_18
REMARK    6  A    between atoms: C_18  and  C_19
REMARK    7  A    between atoms: C_18  and  C_27
REMARK    8  A    between atoms: C_19  and  S_20
REMARK    9  A    between atoms: S_20  and  C_21
REMARK   10  A    between atoms: C_27  and  O_29
REMARK                            x       y       z     vdW  Elec       q    Type
REMARK                         _______ _______ _______ _____ _____    ______ ____
ROOT
ATOM      1  C   UNL     1       7.246   6.022  16.983  0.00  0.00    +0.000 C 
ATOM      2  C   UNL     1       7.488   5.775  15.520  0.00  0.00    +0.000 C 
ATOM      3  C   UNL     1       6.872   4.801  14.829  0.00  0.00    +0.000 C 
ATOM      4  C   UNL     1       5.908   3.854  15.465  0.00  0.00    +0.000 C 
ATOM      5  N   UNL     1       5.353   4.396  16.681  0.00  0.00    +0.000 N 
ATOM      6  C   UNL     1       4.531   3.695  17.576  0.00  0.00    +0.000 A 
ATOM      7  O   UNL     1       4.070   2.576  17.409  0.00  0.00    +0.000 OA
ATOM      8  N   UNL     1       4.471   4.448  18.735  0.00  0.00    +0.000 N 
ATOM      9  C   UNL     1       5.604   5.223  18.738  0.00  0.00    +0.000 A 
ATOM     10  O   UNL     1       6.204   5.640  19.719  0.00  0.00    +0.000 OA
ATOM     11  N   UNL     1       6.014   5.385  17.425  0.00  0.00    +0.000 N 
ENDROOT
BRANCH   1  13
ATOM     12  N   UNL     1       8.228   8.125  17.888  0.00  0.00    +0.000 N 
ATOM     13  C   UNL     1       7.130   7.557  17.263  0.00  0.00    +0.000 C 
ATOM     14  O   UNL     1       6.173   8.243  16.911  0.00  0.00    +0.000 OA
ATOM     15  H   UNL     1       8.972   7.511  18.227  0.00  0.00    +0.000 HD
BRANCH  12  16
ATOM     16  C   UNL     1       8.213   9.503  18.321  0.00  0.00    +0.000 C 
BRANCH  16  20
ATOM     17  C   UNL     1       9.233  12.927  19.422  0.00  0.00    +0.000 C 
ATOM     18  C   UNL     1       9.282  12.448  17.964  0.00  0.00    +0.000 C 
ATOM     19  C   UNL     1      10.092  11.164  17.780  0.00  0.00    +0.000 C 
ATOM     20  C   UNL     1       9.608  10.031  18.700  0.00  0.00    +0.000 C 
ATOM     21  C   UNL     1       9.631  10.505  20.163  0.00  0.00    +0.000 C 
ATOM     22  C   UNL     1       8.828  11.792  20.375  0.00  0.00    +0.000 C 
BRANCH  17  23
ATOM     23  N   UNL     1      10.522  13.489  19.829  0.00  0.00    +0.000 NA
ATOM     24  H   UNL     1      11.005  12.827  20.435  0.00  0.00    +0.000 HD
ATOM     25  H   UNL     1      10.387  14.333  20.383  0.00  0.00    +0.000 HD
ENDBRANCH  17  23
ENDBRANCH  16  20
ENDBRANCH  12  16
ENDBRANCH   1  13
BRANCH   8  26
ATOM     26  C   UNL     1       3.748   4.098  19.967  0.00  0.00    +0.000 C 
BRANCH  26  27
ATOM     27  C   UNL     1       3.769   2.581  20.171  0.00  0.00    +0.000 C 
ATOM     28  O   UNL     1       4.739   1.958  20.584  0.00  0.00    +0.000 OA
BRANCH  27  29
ATOM     29  O   UNL     1       2.620   1.959  19.810  0.00  0.00    +0.000 OA
ATOM     30  H   UNL     1       2.356   2.059  18.875  0.00  0.00    +0.000 HD
ENDBRANCH  27  29
ENDBRANCH  26  27
BRANCH  26  31
ATOM     31  C   UNL     1       2.256   4.508  19.835  0.00  0.00    +0.000 C 
BRANCH  31  32
ATOM     32  S   UNL     1       1.746   5.926  20.874  0.00  0.00    +0.000 S 
BRANCH  32  33
ATOM     33  C   UNL     1       1.817   7.282  19.697  0.00  0.00    +0.000 A 
ATOM     34  C   UNL     1       1.257   8.509  20.072  0.00  0.00    +0.000 A 
ATOM     35  C   UNL     1       1.342   9.624  19.229  0.00  0.00    +0.000 A 
ATOM     36  C   UNL     1       1.992   9.523  18.000  0.00  0.00    +0.000 A 
ATOM     37  C   UNL     1       2.550   8.306  17.614  0.00  0.00    +0.000 A 
ATOM     38  C   UNL     1       2.467   7.193  18.457  0.00  0.00    +0.000 A 
ENDBRANCH  32  33
ENDBRANCH  31  32
ENDBRANCH  26  31
ENDBRANCH   8  26
TORSDOF 10
ENDMDL
MODEL 6
REMARK VINA RESULT:      -7.7      1.016      1.513
REMARK  Name = 
REMARK  10 active torsions:
REMARK  status: ('A' for Active; 'I' for Inactive)
REMARK    1  A    between atoms: N_1  and  C_2
REMARK    2  A    between atoms: C_5  and  C_6
REMARK    3  A    between atoms: C_6  and  N_7
REMARK    4  A    between atoms: C_8  and  C_10
REMARK    5  A    between atoms: N_17  and  C_18
REMARK    6  A    between atoms: C_18  and  C_19
REMARK    7  A    between atoms: C_18  and  C_27
REMARK    8  A    between atoms: C_19  and  S_20
REMARK    9  A    between atoms: S_20  and  C_21
REMARK   10  A    between atoms: C_27  and  O_29
REMARK                            x       y       z     vdW  Elec       q    Type
REMARK                         _______ _______ _______ _____ _____    ______ ____
ROOT
ATOM      1  C   UNL     1       1.802   5.728  19.429  0.00  0.00    +0.000 C 
ATOM      2  C   UNL     1       0.900   4.939  20.337  0.00  0.00    +0.000 C 
ATOM      3  C   UNL     1       1.222   3.725  20.816  0.00  0.00    +0.000 C 
ATOM      4  C   UNL     1       2.499   3.038  20.463  0.00  0.00    +0.000 C 
ATOM      5  N   UNL     1       3.502   3.974  20.019  0.00  0.00    +0.000 N 
ATOM      6  C   UNL     1       4.753   3.625  19.486  0.00  0.00    +0.000 A 
ATOM      7  O   UNL     1       5.225   2.500  19.428  0.00  0.00    +0.000 OA
ATOM      8  N   UNL     1       5.275   4.770  18.912  0.00  0.00    +0.000 N 
ATOM      9  C   UNL     1       4.197   5.568  18.621  0.00  0.00    +0.000 A 
ATOM     10  O   UNL     1       4.114   6.387  17.716  0.00  0.00    +0.000 OA
ATOM     11  N   UNL     1       3.167   5.226  19.481  0.00  0.00    +0.000 N 
ENDROOT
BRANCH   1  13
ATOM     12  N   UNL     1       1.797   8.141  18.809  0.00  0.00    +0.000 N 
ATOM     13  C   UNL     1       1.819   7.233  19.856  0.00  0.00    +0.000 C 
ATOM     14  O   UNL     1       1.793   7.610  21.025  0.00  0.00    +0.000 OA
ATOM     15  H   UNL     1       1.889   7.790  17.853  0.00  0.00    +0.000 HD
BRANCH  12  16
ATOM     16  C   UNL     1       1.935   9.559  19.045  0.00  0.00    +0.000 C 
BRANCH  16  20
ATOM     17  C   UNL     1      -0.005  11.967  21.146  0.00  0.00    +0.000 C 
ATOM     18  C   UNL     1      -0.333  10.471  21.038  0.00  0.00    +0.000 C 
ATOM     19  C   UNL     1      -0.531  10.003  19.596  0.00  0.00    +0.000 C 
ATOM     20  C   UNL     1       0.665  10.355  18.697  0.00  0.00    +0.000 C 
ATOM     21  C   UNL     1       0.936  11.868  18.763  0.00  0.00    +0.000 C 
ATOM     22  C   UNL     1       1.137  12.365  20.198  0.00  0.00    +0.000 C 
BRANCH  17  23
ATOM     23  N   UNL     1      -1.190  12.781  20.873  0.00  0.00    +0.000 NA
ATOM     24  H   UNL     1      -1.897  12.209  20.412  0.00  0.00    +0.000 HD
ATOM     25  H   UNL     1      -0.969  13.533  20.224  0.00  0.00    +0.000 HD
ENDBRANCH  17  23
ENDBRANCH  16  20
ENDBRANCH  12  16
ENDBRANCH   1  13
BRANCH   8  26
ATOM     26  C   UNL     1       6.559   4.885  18.203  0.00  0.00    +0.000 C 
BRANCH  26  27
ATOM     27  C   UNL     1       7.468   5.879  18.930  0.00  0.00    +0.000 C 
ATOM     28  O   UNL     1       7.877   6.922  18.435  0.00  0.00    +0.000 OA
BRANCH  27  29
ATOM     29  O   UNL     1       7.830   5.489  20.176  0.00  0.00    +0.000 OA
ATOM     30  H   UNL     1       7.102   5.390  20.821  0.00  0.00    +0.000 HD
ENDBRANCH  27  29
ENDBRANCH  26  27
BRANCH  26  31
ATOM     31  C   UNL     1       6.323   5.456  16.779  0.00  0.00    +0.000 C 
BRANCH  31  32
ATOM     32  S   UNL     1       7.689   5.176  15.594  0.00  0.00    +0.000 S 
BRANCH  32  33
ATOM     33  C   UNL     1       6.805   4.531  14.168  0.00  0.00    +0.000 A 
ATOM     34  C   UNL     1       7.506   4.402  12.963  0.00  0.00    +0.000 A 
ATOM     35  C   UNL     1       6.895   3.841  11.835  0.00  0.00    +0.000 A 
ATOM     36  C   UNL     1       5.574   3.400  11.901  0.00  0.00    +0.000 A 
ATOM     37  C   UNL     1       4.866   3.528  13.094  0.00  0.00    +0.000 A 
ATOM     38  C   UNL     1       5.477   4.086  14.222  0.00  0.00    +0.000 A 
ENDBRANCH  32  33
ENDBRANCH  31  32
ENDBRANCH  26  31
ENDBRANCH   8  26
TORSDOF 10
ENDMDL
MODEL 7
REMARK VINA RESULT:      -7.7      6.470     10.707
REMARK  Name = 
REMARK  10 active torsions:
REMARK  status: ('A' for Active; 'I' for Inactive)
REMARK    1  A    between atoms: N_1  and  C_2
REMARK    2  A    between atoms: C_5  and  C_6
REMARK    3  A    between atoms: C_6  and  N_7
REMARK    4  A    between atoms: C_8  and  C_10
REMARK    5  A    between atoms: N_17  and  C_18
REMARK    6  A    between atoms: C_18  and  C_19
REMARK    7  A    between atoms: C_18  and  C_27
REMARK    8  A    between atoms: C_19  and  S_20
REMARK    9  A    between atoms: S_20  and  C_21
REMARK   10  A    between atoms: C_27  and  O_29
REMARK                            x       y       z     vdW  Elec       q    Type
REMARK                         _______ _______ _______ _____ _____    ______ ____
ROOT
ATOM      1  C   UNL     1       9.962  11.322  17.865  0.00  0.00    +0.000 C 
ATOM      2  C   UNL     1      11.369  11.220  18.386  0.00  0.00    +0.000 C 
ATOM      3  C   UNL     1      12.087  12.288  18.773  0.00  0.00    +0.000 C 
ATOM      4  C   UNL     1      11.556  13.682  18.692  0.00  0.00    +0.000 C 
ATOM      5  N   UNL     1      10.114  13.701  18.660  0.00  0.00    +0.000 N 
ATOM      6  C   UNL     1       9.327  14.843  18.445  0.00  0.00    +0.000 A 
ATOM      7  O   UNL     1       9.728  15.994  18.371  0.00  0.00    +0.000 OA
ATOM      8  N   UNL     1       8.043  14.398  18.186  0.00  0.00    +0.000 N 
ATOM      9  C   UNL     1       8.178  13.113  17.720  0.00  0.00    +0.000 A 
ATOM     10  O   UNL     1       7.434  12.534  16.941  0.00  0.00    +0.000 OA
ATOM     11  N   UNL     1       9.364  12.601  18.219  0.00  0.00    +0.000 N 
ENDROOT
BRANCH   1  13
ATOM     12  N   UNL     1       8.318   9.477  17.552  0.00  0.00    +0.000 N 
ATOM     13  C   UNL     1       9.075  10.184  18.472  0.00  0.00    +0.000 C 
ATOM     14  O   UNL     1       9.078   9.880  19.662  0.00  0.00    +0.000 OA
ATOM     15  H   UNL     1       8.289   9.804  16.584  0.00  0.00    +0.000 HD
BRANCH  12  16
ATOM     16  C   UNL     1       7.359   8.484  17.979  0.00  0.00    +0.000 C 
BRANCH  16  20
ATOM     17  C   UNL     1       5.459   5.297  18.436  0.00  0.00    +0.000 C 
ATOM     18  C   UNL     1       6.607   5.746  19.351  0.00  0.00    +0.000 C 
ATOM     19  C   UNL     1       7.898   6.051  18.590  0.00  0.00    +0.000 C 
ATOM     20  C   UNL     1       7.683   7.072  17.460  0.00  0.00    +0.000 C 
ATOM     21  C   UNL     1       6.577   6.573  16.514  0.00  0.00    +0.000 C 
ATOM     22  C   UNL     1       5.272   6.258  17.252  0.00  0.00    +0.000 C 
BRANCH  17  23
ATOM     23  N   UNL     1       5.684   3.936  17.948  0.00  0.00    +0.000 NA
ATOM     24  H   UNL     1       4.795   3.438  17.908  0.00  0.00    +0.000 HD
ATOM     25  H   UNL     1       6.270   3.413  18.595  0.00  0.00    +0.000 HD
ENDBRANCH  17  23
ENDBRANCH  16  20
ENDBRANCH  12  16
ENDBRANCH   1  13
BRANCH   8  26
ATOM     26  C   UNL     1       6.875  15.235  17.871  0.00  0.00    +0.000 C 
BRANCH  26  27
ATOM     27  C   UNL     1       6.751  16.363  18.899  0.00  0.00    +0.000 C 
ATOM     28  O   UNL     1       6.366  16.203  20.050  0.00  0.00    +0.000 OA
BRANCH  27  29
ATOM     29  O   UNL     1       7.064  17.589  18.414  0.00  0.00    +0.000 OA
ATOM     30  H   UNL     1       7.894  17.647  17.901  0.00  0.00    +0.000 HD
ENDBRANCH  27  29
ENDBRANCH  26  27
BRANCH  26  31
ATOM     31  C   UNL     1       5.578  14.389  17.981  0.00  0.00    +0.000 C 
BRANCH  31  32
ATOM     32  S   UNL     1       4.020  15.325  17.766  0.00  0.00    +0.000 S 
BRANCH  32  33
ATOM     33  C   UNL     1       2.849  14.286  18.649  0.00  0.00    +0.000 A 
ATOM     34  C   UNL     1       2.558  13.023  18.117  0.00  0.00    +0.000 A 
ATOM     35  C   UNL     1       1.709  12.139  18.793  0.00  0.00    +0.000 A 
ATOM     36  C   UNL     1       1.142  12.508  20.012  0.00  0.00    +0.000 A 
ATOM     37  C   UNL     1       1.421  13.763  20.549  0.00  0.00    +0.000 A 
ATOM     38  C   UNL     1       2.271  14.646  19.874  0.00  0.00    +0.000 A 
ENDBRANCH  32  33
ENDBRANCH  31  32
ENDBRANCH  26  31
ENDBRANCH   8  26
TORSDOF 10
ENDMDL
MODEL 8
REMARK VINA RESULT:      -7.7      1.374      1.834
REMARK  Name = 
REMARK  10 active torsions:
REMARK  status: ('A' for Active; 'I' for Inactive)
REMARK    1  A    between atoms: N_1  and  C_2
REMARK    2  A    between atoms: C_5  and  C_6
REMARK    3  A    between atoms: C_6  and  N_7
REMARK    4  A    between atoms: C_8  and  C_10
REMARK    5  A    between atoms: N_17  and  C_18
REMARK    6  A    between atoms: C_18  and  C_19
REMARK    7  A    between atoms: C_18  and  C_27
REMARK    8  A    between atoms: C_19  and  S_20
REMARK    9  A    between atoms: S_20  and  C_21
REMARK   10  A    between atoms: C_27  and  O_29
REMARK                            x       y       z     vdW  Elec       q    Type
REMARK                         _______ _______ _______ _____ _____    ______ ____
ROOT
ATOM      1  C   UNL     1       2.191   6.552  18.423  0.00  0.00    +0.000 C 
ATOM      2  C   UNL     1       1.292   5.985  19.487  0.00  0.00    +0.000 C 
ATOM      3  C   UNL     1       1.682   5.021  20.338  0.00  0.00    +0.000 C 
ATOM      4  C   UNL     1       3.041   4.406  20.284  0.00  0.00    +0.000 C 
ATOM      5  N   UNL     1       3.989   5.266  19.619  0.00  0.00    +0.000 N 
ATOM      6  C   UNL     1       5.306   4.913  19.287  0.00  0.00    +0.000 A 
ATOM      7  O   UNL     1       5.881   3.885  19.609  0.00  0.00    +0.000 OA
ATOM      8  N   UNL     1       5.767   5.877  18.409  0.00  0.00    +0.000 N 
ATOM      9  C   UNL     1       4.649   6.421  17.828  0.00  0.00    +0.000 A 
ATOM     10  O   UNL     1       4.567   6.908  16.709  0.00  0.00    +0.000 OA
ATOM     11  N   UNL     1       3.587   6.247  18.700  0.00  0.00    +0.000 N 
ENDROOT
BRANCH   1  13
ATOM     12  N   UNL     1       1.629   8.709  19.535  0.00  0.00    +0.000 N 
ATOM     13  C   UNL     1       2.036   8.108  18.356  0.00  0.00    +0.000 C 
ATOM     14  O   UNL     1       2.307   8.777  17.361  0.00  0.00    +0.000 OA
ATOM     15  H   UNL     1       1.347   8.115  20.318  0.00  0.00    +0.000 HD
BRANCH  12  16
ATOM     16  C   UNL     1       1.323  10.120  19.589  0.00  0.00    +0.000 C 
BRANCH  16  20
ATOM     17  C   UNL     1      -1.520  12.012  18.067  0.00  0.00    +0.000 C 
ATOM     18  C   UNL     1      -0.476  12.642  19.000  0.00  0.00    +0.000 C 
ATOM     19  C   UNL     1      -0.351  11.915  20.339  0.00  0.00    +0.000 C 
ATOM     20  C   UNL     1      -0.075  10.412  20.165  0.00  0.00    +0.000 C 
ATOM     21  C   UNL     1      -1.168   9.783  19.284  0.00  0.00    +0.000 C 
ATOM     22  C   UNL     1      -1.316  10.494  17.936  0.00  0.00    +0.000 C 
BRANCH  17  23
ATOM     23  N   UNL     1      -2.877  12.297  18.534  0.00  0.00    +0.000 NA
ATOM     24  H   UNL     1      -2.834  12.767  19.438  0.00  0.00    +0.000 HD
ATOM     25  H   UNL     1      -3.393  11.434  18.690  0.00  0.00    +0.000 HD
ENDBRANCH  17  23
ENDBRANCH  16  20
ENDBRANCH  12  16
ENDBRANCH   1  13
BRANCH   8  26
ATOM     26  C   UNL     1       7.090   5.912  17.766  0.00  0.00    +0.000 C 
BRANCH  26  27
ATOM     27  C   UNL     1       7.707   7.304  17.919  0.00  0.00    +0.000 C 
ATOM     28  O   UNL     1       7.512   8.230  17.141  0.00  0.00    +0.000 OA
BRANCH  27  29
ATOM     29  O   UNL     1       8.541   7.425  18.980  0.00  0.00    +0.000 OA
ATOM     30  H   UNL     1       9.456   7.701  18.776  0.00  0.00    +0.000 HD
ENDBRANCH  27  29
ENDBRANCH  26  27
BRANCH  26  31
ATOM     31  C   UNL     1       6.939   5.657  16.241  0.00  0.00    +0.000 C 
BRANCH  31  32
ATOM     32  S   UNL     1       6.248   4.023  15.791  0.00  0.00    +0.000 S 
BRANCH  32  33
ATOM     33  C   UNL     1       6.498   4.002  14.011  0.00  0.00    +0.000 A 
ATOM     34  C   UNL     1       5.668   3.179  13.240  0.00  0.00    +0.000 A 
ATOM     35  C   UNL     1       5.765   3.171  11.844  0.00  0.00    +0.000 A 
ATOM     36  C   UNL     1       6.694   3.990  11.202  0.00  0.00    +0.000 A 
ATOM     37  C   UNL     1       7.528   4.809  11.959  0.00  0.00    +0.000 A 
ATOM     38  C   UNL     1       7.430   4.819  13.355  0.00  0.00    +0.000 A 
ENDBRANCH  32  33
ENDBRANCH  31  32
ENDBRANCH  26  31
ENDBRANCH   8  26
TORSDOF 10
ENDMDL
MODEL 9
REMARK VINA RESULT:      -7.6      1.403      1.865
REMARK  Name = 
REMARK  10 active torsions:
REMARK  status: ('A' for Active; 'I' for Inactive)
REMARK    1  A    between atoms: N_1  and  C_2
REMARK    2  A    between atoms: C_5  and  C_6
REMARK    3  A    between atoms: C_6  and  N_7
REMARK    4  A    between atoms: C_8  and  C_10
REMARK    5  A    between atoms: N_17  and  C_18
REMARK    6  A    between atoms: C_18  and  C_19
REMARK    7  A    between atoms: C_18  and  C_27
REMARK    8  A    between atoms: C_19  and  S_20
REMARK    9  A    between atoms: S_20  and  C_21
REMARK   10  A    between atoms: C_27  and  O_29
REMARK                            x       y       z     vdW  Elec       q    Type
REMARK                         _______ _______ _______ _____ _____    ______ ____
ROOT
ATOM      1  C   UNL     1       1.926   6.078  19.310  0.00  0.00    +0.000 C 
ATOM      2  C   UNL     1       1.192   5.334  20.391  0.00  0.00    +0.000 C 
ATOM      3  C   UNL     1       1.641   4.186  20.926  0.00  0.00    +0.000 C 
ATOM      4  C   UNL     1       2.902   3.530  20.470  0.00  0.00    +0.000 C 
ATOM      5  N   UNL     1       3.786   4.467  19.822  0.00  0.00    +0.000 N 
ATOM      6  C   UNL     1       4.979   4.130  19.164  0.00  0.00    +0.000 A 
ATOM      7  O   UNL     1       5.505   3.028  19.141  0.00  0.00    +0.000 OA
ATOM      8  N   UNL     1       5.358   5.241  18.432  0.00  0.00    +0.000 N 
ATOM      9  C   UNL     1       4.207   5.958  18.216  0.00  0.00    +0.000 A 
ATOM     10  O   UNL     1       3.964   6.686  17.263  0.00  0.00    +0.000 OA
ATOM     11  N   UNL     1       3.314   5.647  19.228  0.00  0.00    +0.000 N 
ENDROOT
BRANCH   1  13
ATOM     12  N   UNL     1       1.596   8.416  18.515  0.00  0.00    +0.000 N 
ATOM     13  C   UNL     1       1.908   7.616  19.602  0.00  0.00    +0.000 C 
ATOM     14  O   UNL     1       2.095   8.099  20.716  0.00  0.00    +0.000 OA
ATOM     15  H   UNL     1       1.516   7.982  17.593  0.00  0.00    +0.000 HD
BRANCH  12  16
ATOM     16  C   UNL     1       1.664   9.856  18.602  0.00  0.00    +0.000 C 
BRANCH  16  20
ATOM     17  C   UNL     1      -0.993  12.462  18.249  0.00  0.00    +0.000 C 
ATOM     18  C   UNL     1       0.452  12.767  18.667  0.00  0.00    +0.000 C 
ATOM     19  C   UNL     1       0.912  11.952  19.877  0.00  0.00    +0.000 C 
ATOM     20  C   UNL     1       0.722  10.441  19.670  0.00  0.00    +0.000 C 
ATOM     21  C   UNL     1      -0.747  10.145  19.320  0.00  0.00    +0.000 C 
ATOM     22  C   UNL     1      -1.234  10.951  18.112  0.00  0.00    +0.000 C 
BRANCH  17  23
ATOM     23  N   UNL     1      -1.944  13.037  19.202  0.00  0.00    +0.000 NA
ATOM     24  H   UNL     1      -1.658  12.800  20.152  0.00  0.00    +0.000 HD
ATOM     25  H   UNL     1      -2.869  12.632  19.077  0.00  0.00    +0.000 HD
ENDBRANCH  17  23
ENDBRANCH  16  20
ENDBRANCH  12  16
ENDBRANCH   1  13
BRANCH   8  26
ATOM     26  C   UNL     1       6.534   5.351  17.556  0.00  0.00    +0.000 C 
BRANCH  26  27
ATOM     27  C   UNL     1       7.230   6.695  17.785  0.00  0.00    +0.000 C 
ATOM     28  O   UNL     1       8.086   6.887  18.639  0.00  0.00    +0.000 OA
BRANCH  27  29
ATOM     29  O   UNL     1       6.787   7.691  16.980  0.00  0.00    +0.000 OA
ATOM     30  H   UNL     1       6.864   8.597  17.339  0.00  0.00    +0.000 HD
ENDBRANCH  27  29
ENDBRANCH  26  27
BRANCH  26  31
ATOM     31  C   UNL     1       6.086   5.330  16.070  0.00  0.00    +0.000 C 
BRANCH  31  32
ATOM     32  S   UNL     1       7.424   5.019  14.860  0.00  0.00    +0.000 S 
BRANCH  32  33
ATOM     33  C   UNL     1       6.531   4.192  13.537  0.00  0.00    +0.000 A 
ATOM     34  C   UNL     1       7.276   3.601  12.510  0.00  0.00    +0.000 A 
ATOM     35  C   UNL     1       6.645   2.882  11.489  0.00  0.00    +0.000 A 
ATOM     36  C   UNL     1       5.257   2.743  11.485  0.00  0.00    +0.000 A 
ATOM     37  C   UNL     1       4.505   3.330  12.500  0.00  0.00    +0.000 A 
ATOM     38  C   UNL     1       5.136   4.047  13.522  0.00  0.00    +0.000 A 
ENDBRANCH  32  33
ENDBRANCH  31  32
ENDBRANCH  26  31
ENDBRANCH   8  26
TORSDOF 10
ENDMDL
