MODEL 1
REMARK VINA RESULT:      -7.7      0.000      0.000
REMARK  Name = 
REMARK  8 active torsions:
REMARK  status: ('A' for Active; 'I' for Inactive)
REMARK    1  A    between atoms: C_1  and  C_2
REMARK    2  A    between atoms: C_6  and  C_7
REMARK    3  A    between atoms: C_7  and  C_8
REMARK    4  A    between atoms: C_7  and  C_9
REMARK    5  A    between atoms: N_12  and  O_13
REMARK    6  A    between atoms: O_13  and  C_14
REMARK    7  A    between atoms: C_14  and  C_16
REMARK    8  A    between atoms: C_20  and  N_21
REMARK                            x       y       z     vdW  Elec       q    Type
REMARK                         _______ _______ _______ _____ _____    ______ ____
ROOT
ATOM      1  C   UNL     1       1.910   9.038  17.736  0.00  0.00    +0.000 C 
ATOM      2  C   UNL     1       0.959   9.533  18.782  0.00  0.00    +0.000 C 
ATOM      3  C   UNL     1       0.006  10.422  18.463  0.00  0.00    +0.000 C 
ATOM      4  C   UNL     1      -0.906  11.023  19.452  0.00  0.00    +0.000 C 
ATOM      5  O   UNL     1      -1.873  11.675  19.076  0.00  0.00    +0.000 OA
ATOM      6  C   UNL     1      -0.569  10.847  20.888  0.00  0.00    +0.000 C 
ATOM      7  C   UNL     1       0.355   9.923  21.206  0.00  0.00    +0.000 C 
ATOM      8  C   UNL     1       1.080   9.078  20.206  0.00  0.00    +0.000 C 
ATOM      9  N   UNL     1       1.726   8.060  20.694  0.00  0.00    +0.000 NA
ENDROOT
BRANCH   6  10
ATOM     10  C   UNL     1      -1.289  11.757  21.869  0.00  0.00    +0.000 C 
ATOM     11  C   UNL     1      -1.484  11.080  23.228  0.00  0.00    +0.000 C 
ATOM     12  C   UNL     1      -0.621  13.126  22.064  0.00  0.00    +0.000 C 
ENDBRANCH   6  10
BRANCH   9  13
ATOM     13  O   UNL     1       2.378   7.280  19.725  0.00  0.00    +0.000 OA
BRANCH  13  14
ATOM     14  C   UNL     1       2.154   5.952  19.946  0.00  0.00    +0.000 C 
ATOM     15  O   UNL     1       1.390   5.433  20.743  0.00  0.00    +0.000 OA
BRANCH  14  16
ATOM     16  C   UNL     1       2.933   5.156  18.958  0.00  0.00    +0.000 A 
ATOM     17  C   UNL     1       2.233   4.250  18.147  0.00  0.00    +0.000 A 
ATOM     18  C   UNL     1       2.911   3.453  17.220  0.00  0.00    +0.000 A 
ATOM     19  C   UNL     1       4.297   3.547  17.103  0.00  0.00    +0.000 A 
ATOM     20  C   UNL     1       5.000   4.446  17.917  0.00  0.00    +0.000 A 
ATOM     21  C   UNL     1       4.326   5.258  18.845  0.00  0.00    +0.000 A 
BRANCH  20  22
ATOM     22  N   UNL     1       6.463   4.527  17.805  0.00  0.00    +0.000 N 
ATOM     23  O   UNL     1       6.962   4.442  16.674  0.00  0.00    +0.000 OA
ATOM     24  O   UNL     1       7.110   4.680  18.851  0.00  0.00    +0.000 OA
ENDBRANCH  20  22
ENDBRANCH  14  16
ENDBRANCH  13  14
ENDBRANCH   9  13
TORSDOF 5
ENDMDL
MODEL 2
REMARK VINA RESULT:      -7.7      3.754      8.768
REMARK  Name = 
REMARK  8 active torsions:
REMARK  status: ('A' for Active; 'I' for Inactive)
REMARK    1  A    between atoms: C_1  and  C_2
REMARK    2  A    between atoms: C_6  and  C_7
REMARK    3  A    between atoms: C_7  and  C_8
REMARK    4  A    between atoms: C_7  and  C_9
REMARK    5  A    between atoms: N_12  and  O_13
REMARK    6  A    between atoms: O_13  and  C_14
REMARK    7  A    between atoms: C_14  and  C_16
REMARK    8  A    between atoms: C_20  and  N_21
REMARK                            x       y       z     vdW  Elec       q    Type
REMARK                         _______ _______ _______ _____ _____    ______ ____
ROOT
ATOM      1  C   UNL     1       6.696   6.217  16.808  0.00  0.00    +0.000 C 
ATOM      2  C   UNL     1       6.546   5.296  15.636  0.00  0.00    +0.000 C 
ATOM      3  C   UNL     1       7.227   5.526  14.503  0.00  0.00    +0.000 C 
ATOM      4  C   UNL     1       7.064   4.721  13.279  0.00  0.00    +0.000 C 
ATOM      5  O   UNL     1       7.847   4.858  12.347  0.00  0.00    +0.000 OA
ATOM      6  C   UNL     1       5.899   3.801  13.218  0.00  0.00    +0.000 C 
ATOM      7  C   UNL     1       5.247   3.538  14.364  0.00  0.00    +0.000 C 
ATOM      8  C   UNL     1       5.605   4.130  15.692  0.00  0.00    +0.000 C 
ATOM      9  N   UNL     1       5.055   3.563  16.725  0.00  0.00    +0.000 NA
ENDROOT
BRANCH   6  10
ATOM     10  C   UNL     1       5.536   3.260  11.845  0.00  0.00    +0.000 C 
ATOM     11  C   UNL     1       6.045   1.830  11.650  0.00  0.00    +0.000 C 
ATOM     12  C   UNL     1       4.036   3.324  11.520  0.00  0.00    +0.000 C 
ENDBRANCH   6  10
BRANCH   9  13
ATOM     13  O   UNL     1       5.428   4.133  17.954  0.00  0.00    +0.000 OA
BRANCH  13  14
ATOM     14  C   UNL     1       4.747   3.547  18.981  0.00  0.00    +0.000 C 
ATOM     15  O   UNL     1       4.971   2.480  19.531  0.00  0.00    +0.000 OA
BRANCH  14  16
ATOM     16  C   UNL     1       3.686   4.477  19.455  0.00  0.00    +0.000 A 
ATOM     17  C   UNL     1       2.773   4.001  20.408  0.00  0.00    +0.000 A 
ATOM     18  C   UNL     1       1.737   4.816  20.871  0.00  0.00    +0.000 A 
ATOM     19  C   UNL     1       1.596   6.113  20.378  0.00  0.00    +0.000 A 
ATOM     20  C   UNL     1       2.502   6.588  19.420  0.00  0.00    +0.000 A 
ATOM     21  C   UNL     1       3.554   5.780  18.956  0.00  0.00    +0.000 A 
BRANCH  20  22
ATOM     22  N   UNL     1       2.339   7.948  18.886  0.00  0.00    +0.000 N 
ATOM     23  O   UNL     1       1.556   8.709  19.473  0.00  0.00    +0.000 OA
ATOM     24  O   UNL     1       2.999   8.253  17.884  0.00  0.00    +0.000 OA
ENDBRANCH  20  22
ENDBRANCH  14  16
ENDBRANCH  13  14
ENDBRANCH   9  13
TORSDOF 5
ENDMDL
MODEL 3
REMARK VINA RESULT:      -7.7      1.775      2.509
REMARK  Name = 
REMARK  8 active torsions:
REMARK  status: ('A' for Active; 'I' for Inactive)
REMARK    1  A    between atoms: C_1  and  C_2
REMARK    2  A    between atoms: C_6  and  C_7
REMARK    3  A    between atoms: C_7  and  C_8
REMARK    4  A    between atoms: C_7  and  C_9
REMARK    5  A    between atoms: N_12  and  O_13
REMARK    6  A    between atoms: O_13  and  C_14
REMARK    7  A    between atoms: C_14  and  C_16
REMARK    8  A    between atoms: C_20  and  N_21
REMARK                            x       y       z     vdW  Elec       q    Type
REMARK                         _______ _______ _______ _____ _____    ______ ____
ROOT
ATOM      1  C   UNL     1       2.959   8.120  17.453  0.00  0.00    +0.000 C 
ATOM      2  C   UNL     1       1.952   8.470  18.506  0.00  0.00    +0.000 C 
ATOM      3  C   UNL     1       1.163   9.545  18.356  0.00  0.00    +0.000 C 
ATOM      4  C   UNL     1       0.215  10.005  19.386  0.00  0.00    +0.000 C 
ATOM      5  O   UNL     1      -0.609  10.870  19.116  0.00  0.00    +0.000 OA
ATOM      6  C   UNL     1       0.346   9.420  20.745  0.00  0.00    +0.000 C 
ATOM      7  C   UNL     1       1.102   8.316  20.882  0.00  0.00    +0.000 C 
ATOM      8  C   UNL     1       1.837   7.654  19.759  0.00  0.00    +0.000 C 
ATOM      9  N   UNL     1       2.286   6.459  20.009  0.00  0.00    +0.000 NA
ENDROOT
BRANCH   6  10
ATOM     10  C   UNL     1      -0.375  10.148  21.868  0.00  0.00    +0.000 C 
ATOM     11  C   UNL     1      -0.097   9.503  23.228  0.00  0.00    +0.000 C 
ATOM     12  C   UNL     1      -0.074  11.652  21.937  0.00  0.00    +0.000 C 
ENDBRANCH   6  10
BRANCH   9  13
ATOM     13  O   UNL     1       2.955   5.863  18.927  0.00  0.00    +0.000 OA
BRANCH  13  14
ATOM     14  C   UNL     1       3.791   4.877  19.364  0.00  0.00    +0.000 C 
ATOM     15  O   UNL     1       3.550   3.963  20.136  0.00  0.00    +0.000 OA
BRANCH  14  16
ATOM     16  C   UNL     1       5.096   4.998  18.657  0.00  0.00    +0.000 A 
ATOM     17  C   UNL     1       6.215   5.391  19.407  0.00  0.00    +0.000 A 
ATOM     18  C   UNL     1       7.461   5.549  18.796  0.00  0.00    +0.000 A 
ATOM     19  C   UNL     1       7.600   5.328  17.426  0.00  0.00    +0.000 A 
ATOM     20  C   UNL     1       6.482   4.943  16.674  0.00  0.00    +0.000 A 
ATOM     21  C   UNL     1       5.227   4.770  17.281  0.00  0.00    +0.000 A 
BRANCH  20  22
ATOM     22  N   UNL     1       6.627   4.730  15.226  0.00  0.00    +0.000 N 
ATOM     23  O   UNL     1       5.781   4.025  14.658  0.00  0.00    +0.000 OA
ATOM     24  O   UNL     1       7.585   5.275  14.661  0.00  0.00    +0.000 OA
ENDBRANCH  20  22
ENDBRANCH  14  16
ENDBRANCH  13  14
ENDBRANCH   9  13
TORSDOF 5
ENDMDL
MODEL 4
REMARK VINA RESULT:      -7.7      0.874      1.022
REMARK  Name = 
REMARK  8 active torsions:
REMARK  status: ('A' for Active; 'I' for Inactive)
REMARK    1  A    between atoms: C_1  and  C_2
REMARK    2  A    between atoms: C_6  and  C_7
REMARK    3  A    between atoms: C_7  and  C_8
REMARK    4  A    between atoms: C_7  and  C_9
REMARK    5  A    between atoms: N_12  and  O_13
REMARK    6  A    between atoms: O_13  and  C_14
REMARK    7  A    between atoms: C_14  and  C_16
REMARK    8  A    between atoms: C_20  and  N_21
REMARK                            x       y       z     vdW  Elec       q    Type
REMARK                         _______ _______ _______ _____ _____    ______ ____
ROOT
ATOM      1  C   UNL     1       2.281   9.077  17.579  0.00  0.00    +0.000 C 
ATOM      2  C   UNL     1       1.297   9.423  18.654  0.00  0.00    +0.000 C 
ATOM      3  C   UNL     1       0.373  10.374  18.445  0.00  0.00    +0.000 C 
ATOM      4  C   UNL     1      -0.568  10.833  19.482  0.00  0.00    +0.000 C 
ATOM      5  O   UNL     1      -1.506  11.560  19.178  0.00  0.00    +0.000 OA
ATOM      6  C   UNL     1      -0.293  10.424  20.883  0.00  0.00    +0.000 C 
ATOM      7  C   UNL     1       0.601   9.440  21.085  0.00  0.00    +0.000 C 
ATOM      8  C   UNL     1       1.350   8.746  19.991  0.00  0.00    +0.000 C 
ATOM      9  N   UNL     1       1.957   7.648  20.336  0.00  0.00    +0.000 NA
ENDROOT
BRANCH   6  10
ATOM     10  C   UNL     1      -1.037  11.185  21.969  0.00  0.00    +0.000 C 
ATOM     11  C   UNL     1      -1.098  10.388  23.274  0.00  0.00    +0.000 C 
ATOM     12  C   UNL     1      -0.482  12.590  22.245  0.00  0.00    +0.000 C 
ENDBRANCH   6  10
BRANCH   9  13
ATOM     13  O   UNL     1       2.636   7.016  19.280  0.00  0.00    +0.000 OA
BRANCH  13  14
ATOM     14  C   UNL     1       3.058   5.774  19.656  0.00  0.00    +0.000 C 
ATOM     15  O   UNL     1       2.829   5.175  20.695  0.00  0.00    +0.000 OA
BRANCH  14  16
ATOM     16  C   UNL     1       3.799   5.149  18.526  0.00  0.00    +0.000 A 
ATOM     17  C   UNL     1       3.123   4.204  17.740  0.00  0.00    +0.000 A 
ATOM     18  C   UNL     1       3.773   3.562  16.683  0.00  0.00    +0.000 A 
ATOM     19  C   UNL     1       5.109   3.850  16.407  0.00  0.00    +0.000 A 
ATOM     20  C   UNL     1       5.789   4.788  17.196  0.00  0.00    +0.000 A 
ATOM     21  C   UNL     1       5.141   5.447  18.254  0.00  0.00    +0.000 A 
BRANCH  20  22
ATOM     22  N   UNL     1       7.204   5.074  16.916  0.00  0.00    +0.000 N 
ATOM     23  O   UNL     1       8.047   4.252  17.301  0.00  0.00    +0.000 OA
ATOM     24  O   UNL     1       7.466   6.119  16.305  0.00  0.00    +0.000 OA
ENDBRANCH  20  22
ENDBRANCH  14  16
ENDBRANCH  13  14
ENDBRANCH   9  13
TORSDOF 5
ENDMDL
MODEL 5
REMARK VINA RESULT:      -7.6      2.247      3.315
REMARK  Name = 
REMARK  8 active torsions:
REMARK  status: ('A' for Active; 'I' for Inactive)
REMARK    1  A    between atoms: C_1  and  C_2
REMARK    2  A    between atoms: C_6  and  C_7
REMARK    3  A    between atoms: C_7  and  C_8
REMARK    4  A    between atoms: C_7  and  C_9
REMARK    5  A    between atoms: N_12  and  O_13
REMARK    6  A    between atoms: O_13  and  C_14
REMARK    7  A    between atoms: C_14  and  C_16
REMARK    8  A    between atoms: C_20  and  N_21
REMARK                            x       y       z     vdW  Elec       q    Type
REMARK                         _______ _______ _______ _____ _____    ______ ____
ROOT
ATOM      1  C   UNL     1       1.833   7.200  20.862  0.00  0.00    +0.000 C 
ATOM      2  C   UNL     1       1.222   8.429  20.261  0.00  0.00    +0.000 C 
ATOM      3  C   UNL     1       0.388   9.192  20.984  0.00  0.00    +0.000 C 
ATOM      4  C   UNL     1      -0.323  10.361  20.436  0.00  0.00    +0.000 C 
ATOM      5  O   UNL     1      -0.914  11.125  21.189  0.00  0.00    +0.000 OA
ATOM      6  C   UNL     1      -0.329  10.527  18.960  0.00  0.00    +0.000 C 
ATOM      7  C   UNL     1       0.540   9.792  18.243  0.00  0.00    +0.000 C 
ATOM      8  C   UNL     1       1.496   8.804  18.835  0.00  0.00    +0.000 C 
ATOM      9  N   UNL     1       2.439   8.391  18.041  0.00  0.00    +0.000 NA
ENDROOT
BRANCH   6  10
ATOM     10  C   UNL     1      -1.347  11.503  18.393  0.00  0.00    +0.000 C 
ATOM     11  C   UNL     1      -0.708  12.853  18.060  0.00  0.00    +0.000 C 
ATOM     12  C   UNL     1      -2.109  10.975  17.169  0.00  0.00    +0.000 C 
ENDBRANCH   6  10
BRANCH   9  13
ATOM     13  O   UNL     1       3.327   7.479  18.635  0.00  0.00    +0.000 OA
BRANCH  13  14
ATOM     14  C   UNL     1       3.646   6.480  17.761  0.00  0.00    +0.000 C 
ATOM     15  O   UNL     1       4.348   6.539  16.764  0.00  0.00    +0.000 OA
BRANCH  14  16
ATOM     16  C   UNL     1       3.080   5.197  18.259  0.00  0.00    +0.000 A 
ATOM     17  C   UNL     1       1.845   4.779  17.740  0.00  0.00    +0.000 A 
ATOM     18  C   UNL     1       1.247   3.598  18.188  0.00  0.00    +0.000 A 
ATOM     19  C   UNL     1       1.872   2.829  19.169  0.00  0.00    +0.000 A 
ATOM     20  C   UNL     1       3.102   3.249  19.696  0.00  0.00    +0.000 A 
ATOM     21  C   UNL     1       3.716   4.429  19.243  0.00  0.00    +0.000 A 
BRANCH  20  22
ATOM     22  N   UNL     1       3.748   2.447  20.745  0.00  0.00    +0.000 N 
ATOM     23  O   UNL     1       4.863   1.965  20.499  0.00  0.00    +0.000 OA
ATOM     24  O   UNL     1       3.139   2.306  21.814  0.00  0.00    +0.000 OA
ENDBRANCH  20  22
ENDBRANCH  14  16
ENDBRANCH  13  14
ENDBRANCH   9  13
TORSDOF 5
ENDMDL
MODEL 6
REMARK VINA RESULT:      -7.6      2.464      7.794
REMARK  Name = 
REMARK  8 active torsions:
REMARK  status: ('A' for Active; 'I' for Inactive)
REMARK    1  A    between atoms: C_1  and  C_2
REMARK    2  A    between atoms: C_6  and  C_7
REMARK    3  A    between atoms: C_7  and  C_8
REMARK    4  A    between atoms: C_7  and  C_9
REMARK    5  A    between atoms: N_12  and  O_13
REMARK    6  A    between atoms: O_13  and  C_14
REMARK    7  A    between atoms: C_14  and  C_16
REMARK    8  A    between atoms: C_20  and  N_21
REMARK                            x       y       z     vdW  Elec       q    Type
REMARK                         _______ _______ _______ _____ _____    ______ ____
ROOT
ATOM      1  C   UNL     1       2.408   8.520  17.904  0.00  0.00    +0.000 C 
ATOM      2  C   UNL     1       2.526   7.213  18.625  0.00  0.00    +0.000 C 
ATOM      3  C   UNL     1       3.161   6.179  18.052  0.00  0.00    +0.000 C 
ATOM      4  C   UNL     1       3.239   4.838  18.657  0.00  0.00    +0.000 C 
ATOM      5  O   UNL     1       3.990   3.995  18.183  0.00  0.00    +0.000 OA
ATOM      6  C   UNL     1       2.342   4.554  19.807  0.00  0.00    +0.000 C 
ATOM      7  C   UNL     1       1.742   5.598  20.406  0.00  0.00    +0.000 C 
ATOM      8  C   UNL     1       1.904   7.023  19.976  0.00  0.00    +0.000 C 
ATOM      9  N   UNL     1       1.481   7.916  20.822  0.00  0.00    +0.000 NA
ENDROOT
BRANCH   6  10
ATOM     10  C   UNL     1       2.165   3.092  20.183  0.00  0.00    +0.000 C 
ATOM     11  C   UNL     1       1.710   2.935  21.636  0.00  0.00    +0.000 C 
ATOM     12  C   UNL     1       1.218   2.315  19.257  0.00  0.00    +0.000 C 
ENDBRANCH   6  10
BRANCH   9  13
ATOM     13  O   UNL     1       1.665   9.241  20.392  0.00  0.00    +0.000 OA
BRANCH  13  14
ATOM     14  C   UNL     1       0.771  10.072  21.004  0.00  0.00    +0.000 C 
ATOM     15  O   UNL     1       0.654  10.319  22.193  0.00  0.00    +0.000 OA
BRANCH  14  16
ATOM     16  C   UNL     1      -0.034  10.770  19.964  0.00  0.00    +0.000 A 
ATOM     17  C   UNL     1       0.117  12.160  19.840  0.00  0.00    +0.000 A 
ATOM     18  C   UNL     1      -0.631  12.876  18.902  0.00  0.00    +0.000 A 
ATOM     19  C   UNL     1      -1.546  12.212  18.086  0.00  0.00    +0.000 A 
ATOM     20  C   UNL     1      -1.704  10.825  18.214  0.00  0.00    +0.000 A 
ATOM     21  C   UNL     1      -0.949  10.095  19.146  0.00  0.00    +0.000 A 
BRANCH  20  22
ATOM     22  N   UNL     1      -2.685  10.132  17.366  0.00  0.00    +0.000 N 
ATOM     23  O   UNL     1      -3.845  10.029  17.790  0.00  0.00    +0.000 OA
ATOM     24  O   UNL     1      -2.292   9.696  16.275  0.00  0.00    +0.000 OA
ENDBRANCH  20  22
ENDBRANCH  14  16
ENDBRANCH  13  14
ENDBRANCH   9  13
TORSDOF 5
ENDMDL
MODEL 7
REMARK VINA RESULT:      -7.6      4.111      8.507
REMARK  Name = 
REMARK  8 active torsions:
REMARK  status: ('A' for Active; 'I' for Inactive)
REMARK    1  A    between atoms: C_1  and  C_2
REMARK    2  A    between atoms: C_6  and  C_7
REMARK    3  A    between atoms: C_7  and  C_8
REMARK    4  A    between atoms: C_7  and  C_9
REMARK    5  A    between atoms: N_12  and  O_13
REMARK    6  A    between atoms: O_13  and  C_14
REMARK    7  A    between atoms: C_14  and  C_16
REMARK    8  A    between atoms: C_20  and  N_21
REMARK                            x       y       z     vdW  Elec       q    Type
REMARK                         _______ _______ _______ _____ _____    ______ ____
ROOT
ATOM      1  C   UNL     1       6.557   6.023  17.963  0.00  0.00    +0.000 C 
ATOM      2  C   UNL     1       6.546   5.298  16.652  0.00  0.00    +0.000 C 
ATOM      3  C   UNL     1       7.279   5.750  15.623  0.00  0.00    +0.000 C 
ATOM      4  C   UNL     1       7.249   5.147  14.279  0.00  0.00    +0.000 C 
ATOM      5  O   UNL     1       8.078   5.480  13.440  0.00  0.00    +0.000 OA
ATOM      6  C   UNL     1       6.158   4.182  13.987  0.00  0.00    +0.000 C 
ATOM      7  C   UNL     1       5.455   3.698  15.026  0.00  0.00    +0.000 C 
ATOM      8  C   UNL     1       5.687   4.085  16.453  0.00  0.00    +0.000 C 
ATOM      9  N   UNL     1       5.115   3.326  17.341  0.00  0.00    +0.000 NA
ENDROOT
BRANCH   6  10
ATOM     10  C   UNL     1       5.920   3.852  12.522  0.00  0.00    +0.000 C 
ATOM     11  C   UNL     1       6.890   2.777  12.023  0.00  0.00    +0.000 C 
ATOM     12  C   UNL     1       4.477   3.439  12.197  0.00  0.00    +0.000 C 
ENDBRANCH   6  10
BRANCH   9  13
ATOM     13  O   UNL     1       5.369   3.709  18.668  0.00  0.00    +0.000 OA
BRANCH  13  14
ATOM     14  C   UNL     1       4.620   2.966  19.534  0.00  0.00    +0.000 C 
ATOM     15  O   UNL     1       4.893   1.894  20.049  0.00  0.00    +0.000 OA
BRANCH  14  16
ATOM     16  C   UNL     1       3.385   3.722  19.881  0.00  0.00    +0.000 A 
ATOM     17  C   UNL     1       2.249   2.989  20.256  0.00  0.00    +0.000 A 
ATOM     18  C   UNL     1       1.052   3.639  20.566  0.00  0.00    +0.000 A 
ATOM     19  C   UNL     1       0.974   5.029  20.493  0.00  0.00    +0.000 A 
ATOM     20  C   UNL     1       2.105   5.764  20.110  0.00  0.00    +0.000 A 
ATOM     21  C   UNL     1       3.316   5.120  19.808  0.00  0.00    +0.000 A 
BRANCH  20  22
ATOM     22  N   UNL     1       2.014   7.228  20.014  0.00  0.00    +0.000 N 
ATOM     23  O   UNL     1       2.424   7.765  18.976  0.00  0.00    +0.000 OA
ATOM     24  O   UNL     1       1.526   7.835  20.978  0.00  0.00    +0.000 OA
ENDBRANCH  20  22
ENDBRANCH  14  16
ENDBRANCH  13  14
ENDBRANCH   9  13
TORSDOF 5
ENDMDL
MODEL 8
REMARK VINA RESULT:      -7.6      1.870      2.841
REMARK  Name = 
REMARK  8 active torsions:
REMARK  status: ('A' for Active; 'I' for Inactive)
REMARK    1  A    between atoms: C_1  and  C_2
REMARK    2  A    between atoms: C_6  and  C_7
REMARK    3  A    between atoms: C_7  and  C_8
REMARK    4  A    between atoms: C_7  and  C_9
REMARK    5  A    between atoms: N_12  and  O_13
REMARK    6  A    between atoms: O_13  and  C_14
REMARK    7  A    between atoms: C_14  and  C_16
REMARK    8  A    between atoms: C_20  and  N_21
REMARK                            x       y       z     vdW  Elec       q    Type
REMARK                         _______ _______ _______ _____ _____    ______ ____
ROOT
ATOM      1  C   UNL     1       3.382   7.434  17.312  0.00  0.00    +0.000 C 
ATOM      2  C   UNL     1       2.443   8.004  18.331  0.00  0.00    +0.000 C 
ATOM      3  C   UNL     1       1.924   9.230  18.162  0.00  0.00    +0.000 C 
ATOM      4  C   UNL     1       1.067   9.894  19.161  0.00  0.00    +0.000 C 
ATOM      5  O   UNL     1       0.471  10.923  18.868  0.00  0.00    +0.000 OA
ATOM      6  C   UNL     1       1.013   9.295  20.519  0.00  0.00    +0.000 C 
ATOM      7  C   UNL     1       1.495   8.049  20.675  0.00  0.00    +0.000 C 
ATOM      8  C   UNL     1       2.101   7.237  19.573  0.00  0.00    +0.000 C 
ATOM      9  N   UNL     1       2.259   5.972  19.831  0.00  0.00    +0.000 NA
ENDROOT
BRANCH   6  10
ATOM     10  C   UNL     1       0.436  10.169  21.621  0.00  0.00    +0.000 C 
ATOM     11  C   UNL     1      -0.940  10.721  21.239  0.00  0.00    +0.000 C 
ATOM     12  C   UNL     1       0.356   9.481  22.992  0.00  0.00    +0.000 C 
ENDBRANCH   6  10
BRANCH   9  13
ATOM     13  O   UNL     1       2.814   5.239  18.769  0.00  0.00    +0.000 OA
BRANCH  13  14
ATOM     14  C   UNL     1       3.755   4.364  19.229  0.00  0.00    +0.000 C 
ATOM     15  O   UNL     1       3.605   3.406  19.970  0.00  0.00    +0.000 OA
BRANCH  14  16
ATOM     16  C   UNL     1       5.064   4.679  18.592  0.00  0.00    +0.000 A 
ATOM     17  C   UNL     1       6.053   5.279  19.386  0.00  0.00    +0.000 A 
ATOM     18  C   UNL     1       7.292   5.624  18.841  0.00  0.00    +0.000 A 
ATOM     19  C   UNL     1       7.551   5.384  17.492  0.00  0.00    +0.000 A 
ATOM     20  C   UNL     1       6.561   4.792  16.694  0.00  0.00    +0.000 A 
ATOM     21  C   UNL     1       5.316   4.431  17.237  0.00  0.00    +0.000 A 
BRANCH  20  22
ATOM     22  N   UNL     1       6.830   4.559  15.268  0.00  0.00    +0.000 N 
ATOM     23  O   UNL     1       7.664   5.287  14.711  0.00  0.00    +0.000 OA
ATOM     24  O   UNL     1       6.209   3.644  14.711  0.00  0.00    +0.000 OA
ENDBRANCH  20  22
ENDBRANCH  14  16
ENDBRANCH  13  14
ENDBRANCH   9  13
TORSDOF 5
ENDMDL
MODEL 9
REMARK VINA RESULT:      -7.6      1.070      1.176
REMARK  Name = 
REMARK  8 active torsions:
REMARK  status: ('A' for Active; 'I' for Inactive)
REMARK    1  A    between atoms: C_1  and  C_2
REMARK    2  A    between atoms: C_6  and  C_7
REMARK    3  A    between atoms: C_7  and  C_8
REMARK    4  A    between atoms: C_7  and  C_9
REMARK    5  A    between atoms: N_12  and  O_13
REMARK    6  A    between atoms: O_13  and  C_14
REMARK    7  A    between atoms: C_14  and  C_16
REMARK    8  A    between atoms: C_20  and  N_21
REMARK                            x       y       z     vdW  Elec       q    Type
REMARK                         _______ _______ _______ _____ _____    ______ ____
ROOT
ATOM      1  C   UNL     1       1.957   9.494  17.771  0.00  0.00    +0.000 C 
ATOM      2  C   UNL     1       0.967   9.889  18.824  0.00  0.00    +0.000 C 
ATOM      3  C   UNL     1       0.044  10.828  18.566  0.00  0.00    +0.000 C 
ATOM      4  C   UNL     1      -0.903  11.333  19.575  0.00  0.00    +0.000 C 
ATOM      5  O   UNL     1      -1.841  12.044  19.233  0.00  0.00    +0.000 OA
ATOM      6  C   UNL     1      -0.634  10.991  20.996  0.00  0.00    +0.000 C 
ATOM      7  C   UNL     1       0.259  10.018  21.247  0.00  0.00    +0.000 C 
ATOM      8  C   UNL     1       1.015   9.275  20.191  0.00  0.00    +0.000 C 
ATOM      9  N   UNL     1       1.622   8.195  20.589  0.00  0.00    +0.000 NA
ENDROOT
BRANCH   6  10
ATOM     10  C   UNL     1      -1.385  11.800  22.041  0.00  0.00    +0.000 C 
ATOM     11  C   UNL     1      -1.602  10.998  23.326  0.00  0.00    +0.000 C 
ATOM     12  C   UNL     1      -0.735  13.150  22.376  0.00  0.00    +0.000 C 
ENDBRANCH   6  10
BRANCH   9  13
ATOM     13  O   UNL     1       2.306   7.516  19.568  0.00  0.00    +0.000 OA
BRANCH  13  14
ATOM     14  C   UNL     1       2.304   6.171  19.801  0.00  0.00    +0.000 C 
ATOM     15  O   UNL     1       1.741   5.555  20.691  0.00  0.00    +0.000 OA
BRANCH  14  16
ATOM     16  C   UNL     1       3.038   5.486  18.701  0.00  0.00    +0.000 A 
ATOM     17  C   UNL     1       2.826   4.110  18.528  0.00  0.00    +0.000 A 
ATOM     18  C   UNL     1       3.506   3.404  17.532  0.00  0.00    +0.000 A 
ATOM     19  C   UNL     1       4.415   4.065  16.706  0.00  0.00    +0.000 A 
ATOM     20  C   UNL     1       4.634   5.438  16.883  0.00  0.00    +0.000 A 
ATOM     21  C   UNL     1       3.947   6.158  17.874  0.00  0.00    +0.000 A 
BRANCH  20  22
ATOM     22  N   UNL     1       5.608   6.128  16.024  0.00  0.00    +0.000 N 
ATOM     23  O   UNL     1       5.171   6.796  15.076  0.00  0.00    +0.000 OA
ATOM     24  O   UNL     1       6.808   6.002  16.305  0.00  0.00    +0.000 OA
ENDBRANCH  20  22
ENDBRANCH  14  16
ENDBRANCH  13  14
ENDBRANCH   9  13
TORSDOF 5
ENDMDL
