MODEL 1
REMARK VINA RESULT:      -7.5      0.000      0.000
REMARK  Name = 
REMARK  12 active torsions:
REMARK  status: ('A' for Active; 'I' for Inactive)
REMARK    1  A    between atoms: C_1  and  C_2
REMARK    2  A    between atoms: C_3  and  C_4
REMARK    3  A    between atoms: C_4  and  C_5
REMARK    4  A    between atoms: C_5  and  C_6
REMARK    5  A    between atoms: C_5  and  C_7
REMARK    6  A    between atoms: C_5  and  C_8
REMARK    7  A    between atoms: C_8  and  O_10
REMARK    8  A    between atoms: N_11  and  C_12
REMARK    9  A    between atoms: C_12  and  C_13
REMARK   10  A    between atoms: C_21  and  C_22
REMARK   11  A    between atoms: C_22  and  C_23
REMARK   12  A    between atoms: C_22  and  C_24
REMARK                            x       y       z     vdW  Elec       q    Type
REMARK                         _______ _______ _______ _____ _____    ______ ____
ROOT
ATOM      1  C   UNL     1       5.079   3.816  15.446  0.00  0.00    +0.000 C 
ATOM      2  C   UNL     1       4.451   4.196  16.747  0.00  0.00    +0.000 A 
ATOM      3  C   UNL     1       4.561   5.381  17.456  0.00  0.00    +0.000 A 
ATOM      4  N   UNL     1       3.817   5.226  18.632  0.00  0.00    +0.000 N 
ATOM      5  C   UNL     1       3.150   3.989  18.640  0.00  0.00    +0.000 A 
ATOM      6  C   UNL     1       2.225   3.349  19.533  0.00  0.00    +0.000 A 
ATOM      7  C   UNL     1       1.793   2.047  19.160  0.00  0.00    +0.000 A 
ATOM      8  C   UNL     1       2.240   1.392  18.025  0.00  0.00    +0.000 A 
ATOM      9  C   UNL     1       3.136   2.029  17.182  0.00  0.00    +0.000 A 
ATOM     10  C   UNL     1       3.580   3.336  17.477  0.00  0.00    +0.000 A 
ENDROOT
BRANCH   6  11
ATOM     11  C   UNL     1       1.629   3.948  20.808  0.00  0.00    +0.000 C 
ATOM     12  C   UNL     1       0.383   4.773  20.470  0.00  0.00    +0.000 C 
ATOM     13  C   UNL     1       1.280   2.926  21.904  0.00  0.00    +0.000 C 
ENDBRANCH   6  11
BRANCH   3  14
ATOM     14  C   UNL     1       5.409   6.605  17.111  0.00  0.00    +0.000 C 
BRANCH  14  15
ATOM     15  C   UNL     1       6.933   6.541  17.473  0.00  0.00    +0.000 C 
ATOM     16  C   UNL     1       7.605   7.915  17.363  0.00  0.00    +0.000 C 
ATOM     17  C   UNL     1       7.156   5.921  18.857  0.00  0.00    +0.000 C 
BRANCH  15  18
ATOM     18  C   UNL     1       7.613   5.606  16.450  0.00  0.00    +0.000 C 
ATOM     19  O   UNL     1       7.733   5.849  15.256  0.00  0.00    +0.000 OA
BRANCH  18  20
ATOM     20  O   UNL     1       8.071   4.444  16.971  0.00  0.00    +0.000 OA
ATOM     21  H   UNL     1       8.657   3.924  16.395  0.00  0.00    +0.000 HD
ENDBRANCH  18  20
ENDBRANCH  15  18
ENDBRANCH  14  15
ENDBRANCH   3  14
BRANCH   4  22
ATOM     22  C   UNL     1       3.693   6.266  19.657  0.00  0.00    +0.000 C 
BRANCH  22  23
ATOM     23  C   UNL     1       2.690   7.368  19.405  0.00  0.00    +0.000 A 
ATOM     24  C   UNL     1       2.477   7.970  18.159  0.00  0.00    +0.000 A 
ATOM     25  C   UNL     1       1.571   9.028  18.029  0.00  0.00    +0.000 A 
ATOM     26  C   UNL     1       0.858   9.479  19.137  0.00  0.00    +0.000 A 
ATOM     27 CL   UNL     1      -0.209  10.819  18.987  0.00  0.00    +0.000 Cl
ATOM     28  C   UNL     1       1.015   8.858  20.372  0.00  0.00    +0.000 A 
ATOM     29  C   UNL     1       1.923   7.806  20.503  0.00  0.00    +0.000 A 
ENDBRANCH  22  23
ENDBRANCH   4  22
TORSDOF 7
ENDMDL
MODEL 2
REMARK VINA RESULT:      -7.3      1.903      5.012
REMARK  Name = 
REMARK  12 active torsions:
REMARK  status: ('A' for Active; 'I' for Inactive)
REMARK    1  A    between atoms: C_1  and  C_2
REMARK    2  A    between atoms: C_3  and  C_4
REMARK    3  A    between atoms: C_4  and  C_5
REMARK    4  A    between atoms: C_5  and  C_6
REMARK    5  A    between atoms: C_5  and  C_7
REMARK    6  A    between atoms: C_5  and  C_8
REMARK    7  A    between atoms: C_8  and  O_10
REMARK    8  A    between atoms: N_11  and  C_12
REMARK    9  A    between atoms: C_12  and  C_13
REMARK   10  A    between atoms: C_21  and  C_22
REMARK   11  A    between atoms: C_22  and  C_23
REMARK   12  A    between atoms: C_22  and  C_24
REMARK                            x       y       z     vdW  Elec       q    Type
REMARK                         _______ _______ _______ _____ _____    ______ ____
ROOT
ATOM      1  C   UNL     1       2.741   2.664  15.908  0.00  0.00    +0.000 C 
ATOM      2  C   UNL     1       3.446   3.729  16.682  0.00  0.00    +0.000 A 
ATOM      3  C   UNL     1       3.025   4.412  17.811  0.00  0.00    +0.000 A 
ATOM      4  N   UNL     1       4.026   5.337  18.128  0.00  0.00    +0.000 N 
ATOM      5  C   UNL     1       5.131   5.190  17.272  0.00  0.00    +0.000 A 
ATOM      6  C   UNL     1       6.425   5.805  17.182  0.00  0.00    +0.000 A 
ATOM      7  C   UNL     1       7.259   5.358  16.121  0.00  0.00    +0.000 A 
ATOM      8  C   UNL     1       6.868   4.409  15.192  0.00  0.00    +0.000 A 
ATOM      9  C   UNL     1       5.613   3.834  15.298  0.00  0.00    +0.000 A 
ATOM     10  C   UNL     1       4.746   4.209  16.348  0.00  0.00    +0.000 A 
ENDROOT
BRANCH   6  11
ATOM     11  C   UNL     1       7.004   6.849  18.139  0.00  0.00    +0.000 C 
ATOM     12  C   UNL     1       7.955   6.180  19.136  0.00  0.00    +0.000 C 
ATOM     13  C   UNL     1       7.727   8.024  17.457  0.00  0.00    +0.000 C 
ENDBRANCH   6  11
BRANCH   3  14
ATOM     14  C   UNL     1       1.686   4.286  18.536  0.00  0.00    +0.000 C 
BRANCH  14  15
ATOM     15  C   UNL     1       1.514   3.067  19.508  0.00  0.00    +0.000 C 
ATOM     16  C   UNL     1       1.123   3.514  20.922  0.00  0.00    +0.000 C 
ATOM     17  C   UNL     1       0.518   2.043  18.953  0.00  0.00    +0.000 C 
BRANCH  15  18
ATOM     18  C   UNL     1       2.879   2.356  19.604  0.00  0.00    +0.000 C 
ATOM     19  O   UNL     1       3.825   2.751  20.274  0.00  0.00    +0.000 OA
BRANCH  18  20
ATOM     20  O   UNL     1       2.980   1.232  18.857  0.00  0.00    +0.000 OA
ATOM     21  H   UNL     1       2.157   0.927  18.437  0.00  0.00    +0.000 HD
ENDBRANCH  18  20
ENDBRANCH  15  18
ENDBRANCH  14  15
ENDBRANCH   3  14
BRANCH   4  22
ATOM     22  C   UNL     1       3.947   6.262  19.262  0.00  0.00    +0.000 C 
BRANCH  22  23
ATOM     23  C   UNL     1       2.922   7.369  19.180  0.00  0.00    +0.000 A 
ATOM     24  C   UNL     1       2.047   7.713  20.218  0.00  0.00    +0.000 A 
ATOM     25  C   UNL     1       1.085   8.712  20.032  0.00  0.00    +0.000 A 
ATOM     26  C   UNL     1       1.002   9.386  18.817  0.00  0.00    +0.000 A 
ATOM     27 CL   UNL     1      -0.220  10.570  18.571  0.00  0.00    +0.000 Cl
ATOM     28  C   UNL     1       1.897   9.097  17.791  0.00  0.00    +0.000 A 
ATOM     29  C   UNL     1       2.853   8.097  17.975  0.00  0.00    +0.000 A 
ENDBRANCH  22  23
ENDBRANCH   4  22
TORSDOF 7
ENDMDL
MODEL 3
REMARK VINA RESULT:      -7.3      0.648      1.124
REMARK  Name = 
REMARK  12 active torsions:
REMARK  status: ('A' for Active; 'I' for Inactive)
REMARK    1  A    between atoms: C_1  and  C_2
REMARK    2  A    between atoms: C_3  and  C_4
REMARK    3  A    between atoms: C_4  and  C_5
REMARK    4  A    between atoms: C_5  and  C_6
REMARK    5  A    between atoms: C_5  and  C_7
REMARK    6  A    between atoms: C_5  and  C_8
REMARK    7  A    between atoms: C_8  and  O_10
REMARK    8  A    between atoms: N_11  and  C_12
REMARK    9  A    between atoms: C_12  and  C_13
REMARK   10  A    between atoms: C_21  and  C_22
REMARK   11  A    between atoms: C_22  and  C_23
REMARK   12  A    between atoms: C_22  and  C_24
REMARK                            x       y       z     vdW  Elec       q    Type
REMARK                         _______ _______ _______ _____ _____    ______ ____
ROOT
ATOM      1  C   UNL     1       5.273   3.876  15.483  0.00  0.00    +0.000 C 
ATOM      2  C   UNL     1       4.603   4.245  16.766  0.00  0.00    +0.000 A 
ATOM      3  C   UNL     1       4.664   5.435  17.472  0.00  0.00    +0.000 A 
ATOM      4  N   UNL     1       3.895   5.266  18.629  0.00  0.00    +0.000 N 
ATOM      5  C   UNL     1       3.261   4.011  18.627  0.00  0.00    +0.000 A 
ATOM      6  C   UNL     1       2.331   3.350  19.499  0.00  0.00    +0.000 A 
ATOM      7  C   UNL     1       1.942   2.036  19.121  0.00  0.00    +0.000 A 
ATOM      8  C   UNL     1       2.435   1.388  18.001  0.00  0.00    +0.000 A 
ATOM      9  C   UNL     1       3.334   2.045  17.179  0.00  0.00    +0.000 A 
ATOM     10  C   UNL     1       3.737   3.365  17.478  0.00  0.00    +0.000 A 
ENDROOT
BRANCH   6  11
ATOM     11  C   UNL     1       1.687   3.939  20.756  0.00  0.00    +0.000 C 
ATOM     12  C   UNL     1       0.405   4.692  20.389  0.00  0.00    +0.000 C 
ATOM     13  C   UNL     1       1.378   2.918  21.866  0.00  0.00    +0.000 C 
ENDBRANCH   6  11
BRANCH   3  14
ATOM     14  C   UNL     1       5.488   6.679  17.142  0.00  0.00    +0.000 C 
BRANCH  14  15
ATOM     15  C   UNL     1       7.048   6.540  17.214  0.00  0.00    +0.000 C 
ATOM     16  C   UNL     1       7.631   5.962  15.918  0.00  0.00    +0.000 C 
ATOM     17  C   UNL     1       7.714   7.871  17.579  0.00  0.00    +0.000 C 
BRANCH  15  18
ATOM     18  C   UNL     1       7.373   5.551  18.353  0.00  0.00    +0.000 C 
ATOM     19  O   UNL     1       7.240   5.793  19.546  0.00  0.00    +0.000 OA
BRANCH  18  20
ATOM     20  O   UNL     1       7.853   4.356  17.938  0.00  0.00    +0.000 OA
ATOM     21  H   UNL     1       7.446   3.993  17.132  0.00  0.00    +0.000 HD
ENDBRANCH  18  20
ENDBRANCH  15  18
ENDBRANCH  14  15
ENDBRANCH   3  14
BRANCH   4  22
ATOM     22  C   UNL     1       3.718   6.305  19.647  0.00  0.00    +0.000 C 
BRANCH  22  23
ATOM     23  C   UNL     1       2.685   7.373  19.369  0.00  0.00    +0.000 A 
ATOM     24  C   UNL     1       2.448   7.931  18.107  0.00  0.00    +0.000 A 
ATOM     25  C   UNL     1       1.514   8.962  17.953  0.00  0.00    +0.000 A 
ATOM     26  C   UNL     1       0.798   9.428  19.052  0.00  0.00    +0.000 A 
ATOM     27 CL   UNL     1      -0.304  10.736  18.871  0.00  0.00    +0.000 Cl
ATOM     28  C   UNL     1       0.980   8.850  20.305  0.00  0.00    +0.000 A 
ATOM     29  C   UNL     1       1.915   7.826  20.460  0.00  0.00    +0.000 A 
ENDBRANCH  22  23
ENDBRANCH   4  22
TORSDOF 7
ENDMDL
MODEL 4
REMARK VINA RESULT:      -7.2      1.948      4.917
REMARK  Name = 
REMARK  12 active torsions:
REMARK  status: ('A' for Active; 'I' for Inactive)
REMARK    1  A    between atoms: C_1  and  C_2
REMARK    2  A    between atoms: C_3  and  C_4
REMARK    3  A    between atoms: C_4  and  C_5
REMARK    4  A    between atoms: C_5  and  C_6
REMARK    5  A    between atoms: C_5  and  C_7
REMARK    6  A    between atoms: C_5  and  C_8
REMARK    7  A    between atoms: C_8  and  O_10
REMARK    8  A    between atoms: N_11  and  C_12
REMARK    9  A    between atoms: C_12  and  C_13
REMARK   10  A    between atoms: C_21  and  C_22
REMARK   11  A    between atoms: C_22  and  C_23
REMARK   12  A    between atoms: C_22  and  C_24
REMARK                            x       y       z     vdW  Elec       q    Type
REMARK                         _______ _______ _______ _____ _____    ______ ____
ROOT
ATOM      1  C   UNL     1       2.793   2.645  15.873  0.00  0.00    +0.000 C 
ATOM      2  C   UNL     1       3.480   3.725  16.643  0.00  0.00    +0.000 A 
ATOM      3  C   UNL     1       3.034   4.425  17.753  0.00  0.00    +0.000 A 
ATOM      4  N   UNL     1       4.025   5.359  18.074  0.00  0.00    +0.000 N 
ATOM      5  C   UNL     1       5.146   5.203  17.241  0.00  0.00    +0.000 A 
ATOM      6  C   UNL     1       6.440   5.822  17.165  0.00  0.00    +0.000 A 
ATOM      7  C   UNL     1       7.296   5.362  16.128  0.00  0.00    +0.000 A 
ATOM      8  C   UNL     1       6.926   4.396  15.207  0.00  0.00    +0.000 A 
ATOM      9  C   UNL     1       5.671   3.817  15.299  0.00  0.00    +0.000 A 
ATOM     10  C   UNL     1       4.784   4.205  16.326  0.00  0.00    +0.000 A 
ENDROOT
BRANCH   6  11
ATOM     11  C   UNL     1       6.997   6.884  18.116  0.00  0.00    +0.000 C 
ATOM     12  C   UNL     1       7.961   6.241  19.118  0.00  0.00    +0.000 C 
ATOM     13  C   UNL     1       7.695   8.070  17.427  0.00  0.00    +0.000 C 
ENDBRANCH   6  11
BRANCH   3  14
ATOM     14  C   UNL     1       1.682   4.305  18.455  0.00  0.00    +0.000 C 
BRANCH  14  15
ATOM     15  C   UNL     1       1.511   3.126  19.474  0.00  0.00    +0.000 C 
ATOM     16  C   UNL     1       1.100   3.627  20.864  0.00  0.00    +0.000 C 
ATOM     17  C   UNL     1       0.531   2.069  18.951  0.00  0.00    +0.000 C 
BRANCH  15  18
ATOM     18  C   UNL     1       2.882   2.432  19.615  0.00  0.00    +0.000 C 
ATOM     19  O   UNL     1       3.238   1.454  18.971  0.00  0.00    +0.000 OA
BRANCH  18  20
ATOM     20  O   UNL     1       3.694   2.982  20.547  0.00  0.00    +0.000 OA
ATOM     21  H   UNL     1       3.737   3.954  20.552  0.00  0.00    +0.000 HD
ENDBRANCH  18  20
ENDBRANCH  15  18
ENDBRANCH  14  15
ENDBRANCH   3  14
BRANCH   4  22
ATOM     22  C   UNL     1       3.921   6.302  19.191  0.00  0.00    +0.000 C 
BRANCH  22  23
ATOM     23  C   UNL     1       2.893   7.403  19.071  0.00  0.00    +0.000 A 
ATOM     24  C   UNL     1       2.711   8.191  17.928  0.00  0.00    +0.000 A 
ATOM     25  C   UNL     1       1.776   9.232  17.927  0.00  0.00    +0.000 A 
ATOM     26  C   UNL     1       1.004   9.481  19.059  0.00  0.00    +0.000 A 
ATOM     27 CL   UNL     1      -0.100  10.799  19.076  0.00  0.00    +0.000 Cl
ATOM     28  C   UNL     1       1.131   8.675  20.186  0.00  0.00    +0.000 A 
ATOM     29  C   UNL     1       2.068   7.640  20.189  0.00  0.00    +0.000 A 
ENDBRANCH  22  23
ENDBRANCH   4  22
TORSDOF 7
ENDMDL
MODEL 5
REMARK VINA RESULT:      -7.2      2.503      5.317
REMARK  Name = 
REMARK  12 active torsions:
REMARK  status: ('A' for Active; 'I' for Inactive)
REMARK    1  A    between atoms: C_1  and  C_2
REMARK    2  A    between atoms: C_3  and  C_4
REMARK    3  A    between atoms: C_4  and  C_5
REMARK    4  A    between atoms: C_5  and  C_6
REMARK    5  A    between atoms: C_5  and  C_7
REMARK    6  A    between atoms: C_5  and  C_8
REMARK    7  A    between atoms: C_8  and  O_10
REMARK    8  A    between atoms: N_11  and  C_12
REMARK    9  A    between atoms: C_12  and  C_13
REMARK   10  A    between atoms: C_21  and  C_22
REMARK   11  A    between atoms: C_22  and  C_23
REMARK   12  A    between atoms: C_22  and  C_24
REMARK                            x       y       z     vdW  Elec       q    Type
REMARK                         _______ _______ _______ _____ _____    ______ ____
ROOT
ATOM      1  C   UNL     1       2.881   2.601  15.837  0.00  0.00    +0.000 C 
ATOM      2  C   UNL     1       3.555   3.677  16.623  0.00  0.00    +0.000 A 
ATOM      3  C   UNL     1       3.121   4.324  17.769  0.00  0.00    +0.000 A 
ATOM      4  N   UNL     1       4.090   5.280  18.093  0.00  0.00    +0.000 N 
ATOM      5  C   UNL     1       5.190   5.189  17.222  0.00  0.00    +0.000 A 
ATOM      6  C   UNL     1       6.460   5.854  17.129  0.00  0.00    +0.000 A 
ATOM      7  C   UNL     1       7.298   5.457  16.052  0.00  0.00    +0.000 A 
ATOM      8  C   UNL     1       6.932   4.511  15.110  0.00  0.00    +0.000 A 
ATOM      9  C   UNL     1       5.700   3.888  15.219  0.00  0.00    +0.000 A 
ATOM     10  C   UNL     1       4.832   4.211  16.284  0.00  0.00    +0.000 A 
ENDROOT
BRANCH   6  11
ATOM     11  C   UNL     1       7.011   6.901  18.099  0.00  0.00    +0.000 C 
ATOM     12  C   UNL     1       7.970   6.244  19.096  0.00  0.00    +0.000 C 
ATOM     13  C   UNL     1       7.712   8.098  17.432  0.00  0.00    +0.000 C 
ENDBRANCH   6  11
BRANCH   3  14
ATOM     14  C   UNL     1       1.796   4.135  18.507  0.00  0.00    +0.000 C 
BRANCH  14  15
ATOM     15  C   UNL     1       1.686   2.902  19.469  0.00  0.00    +0.000 C 
ATOM     16  C   UNL     1       0.640   1.889  18.984  0.00  0.00    +0.000 C 
ATOM     17  C   UNL     1       3.048   2.234  19.684  0.00  0.00    +0.000 C 
BRANCH  15  18
ATOM     18  C   UNL     1       1.223   3.427  20.844  0.00  0.00    +0.000 C 
ATOM     19  O   UNL     1       1.465   2.884  21.914  0.00  0.00    +0.000 OA
BRANCH  18  20
ATOM     20  O   UNL     1       0.486   4.560  20.791  0.00  0.00    +0.000 OA
ATOM     21  H   UNL     1       0.748   5.266  21.408  0.00  0.00    +0.000 HD
ENDBRANCH  18  20
ENDBRANCH  15  18
ENDBRANCH  14  15
ENDBRANCH   3  14
BRANCH   4  22
ATOM     22  C   UNL     1       3.991   6.181  19.244  0.00  0.00    +0.000 C 
BRANCH  22  23
ATOM     23  C   UNL     1       2.970   7.293  19.164  0.00  0.00    +0.000 A 
ATOM     24  C   UNL     1       2.108   7.649  20.208  0.00  0.00    +0.000 A 
ATOM     25  C   UNL     1       1.150   8.652  20.024  0.00  0.00    +0.000 A 
ATOM     26  C   UNL     1       1.059   9.318  18.804  0.00  0.00    +0.000 A 
ATOM     27 CL   UNL     1      -0.160  10.506  18.561  0.00  0.00    +0.000 Cl
ATOM     28  C   UNL     1       1.941   9.015  17.772  0.00  0.00    +0.000 A 
ATOM     29  C   UNL     1       2.894   8.012  17.954  0.00  0.00    +0.000 A 
ENDBRANCH  22  23
ENDBRANCH   4  22
TORSDOF 7
ENDMDL
MODEL 6
REMARK VINA RESULT:      -7.1      2.256      5.172
REMARK  Name = 
REMARK  12 active torsions:
REMARK  status: ('A' for Active; 'I' for Inactive)
REMARK    1  A    between atoms: C_1  and  C_2
REMARK    2  A    between atoms: C_3  and  C_4
REMARK    3  A    between atoms: C_4  and  C_5
REMARK    4  A    between atoms: C_5  and  C_6
REMARK    5  A    between atoms: C_5  and  C_7
REMARK    6  A    between atoms: C_5  and  C_8
REMARK    7  A    between atoms: C_8  and  O_10
REMARK    8  A    between atoms: N_11  and  C_12
REMARK    9  A    between atoms: C_12  and  C_13
REMARK   10  A    between atoms: C_21  and  C_22
REMARK   11  A    between atoms: C_22  and  C_23
REMARK   12  A    between atoms: C_22  and  C_24
REMARK                            x       y       z     vdW  Elec       q    Type
REMARK                         _______ _______ _______ _____ _____    ______ ____
ROOT
ATOM      1  C   UNL     1       2.895   2.778  15.943  0.00  0.00    +0.000 C 
ATOM      2  C   UNL     1       3.588   3.875  16.681  0.00  0.00    +0.000 A 
ATOM      3  C   UNL     1       3.158   4.592  17.786  0.00  0.00    +0.000 A 
ATOM      4  N   UNL     1       4.150   5.537  18.073  0.00  0.00    +0.000 N 
ATOM      5  C   UNL     1       5.258   5.370  17.225  0.00  0.00    +0.000 A 
ATOM      6  C   UNL     1       6.547   5.994  17.116  0.00  0.00    +0.000 A 
ATOM      7  C   UNL     1       7.387   5.519  16.073  0.00  0.00    +0.000 A 
ATOM      8  C   UNL     1       7.007   4.535  15.176  0.00  0.00    +0.000 A 
ATOM      9  C   UNL     1       5.757   3.952  15.299  0.00  0.00    +0.000 A 
ATOM     10  C   UNL     1       4.885   4.355  16.334  0.00  0.00    +0.000 A 
ENDROOT
BRANCH   6  11
ATOM     11  C   UNL     1       7.115   7.075  18.038  0.00  0.00    +0.000 C 
ATOM     12  C   UNL     1       8.083   6.452  19.048  0.00  0.00    +0.000 C 
ATOM     13  C   UNL     1       7.812   8.242  17.317  0.00  0.00    +0.000 C 
ENDBRANCH   6  11
BRANCH   3  14
ATOM     14  C   UNL     1       1.819   4.478  18.513  0.00  0.00    +0.000 C 
BRANCH  14  15
ATOM     15  C   UNL     1       1.712   3.399  19.645  0.00  0.00    +0.000 C 
ATOM     16  C   UNL     1       3.077   3.096  20.277  0.00  0.00    +0.000 C 
ATOM     17  C   UNL     1       0.683   3.799  20.707  0.00  0.00    +0.000 C 
BRANCH  15  18
ATOM     18  C   UNL     1       1.201   2.096  18.996  0.00  0.00    +0.000 C 
ATOM     19  O   UNL     1       0.109   1.968  18.457  0.00  0.00    +0.000 OA
BRANCH  18  20
ATOM     20  O   UNL     1       2.060   1.054  19.078  0.00  0.00    +0.000 OA
ATOM     21  H   UNL     1       2.630   1.036  19.866  0.00  0.00    +0.000 HD
ENDBRANCH  18  20
ENDBRANCH  15  18
ENDBRANCH  14  15
ENDBRANCH   3  14
BRANCH   4  22
ATOM     22  C   UNL     1       4.060   6.499  19.175  0.00  0.00    +0.000 C 
BRANCH  22  23
ATOM     23  C   UNL     1       2.951   7.523  19.108  0.00  0.00    +0.000 A 
ATOM     24  C   UNL     1       2.059   7.789  20.154  0.00  0.00    +0.000 A 
ATOM     25  C   UNL     1       1.021   8.711  19.982  0.00  0.00    +0.000 A 
ATOM     26  C   UNL     1       0.878   9.387  18.773  0.00  0.00    +0.000 A 
ATOM     27 CL   UNL     1      -0.435  10.474  18.544  0.00  0.00    +0.000 Cl
ATOM     28  C   UNL     1       1.786   9.177  17.740  0.00  0.00    +0.000 A 
ATOM     29  C   UNL     1       2.819   8.253  17.910  0.00  0.00    +0.000 A 
ENDBRANCH  22  23
ENDBRANCH   4  22
TORSDOF 7
ENDMDL
MODEL 7
REMARK VINA RESULT:      -7.0      2.458      5.179
REMARK  Name = 
REMARK  12 active torsions:
REMARK  status: ('A' for Active; 'I' for Inactive)
REMARK    1  A    between atoms: C_1  and  C_2
REMARK    2  A    between atoms: C_3  and  C_4
REMARK    3  A    between atoms: C_4  and  C_5
REMARK    4  A    between atoms: C_5  and  C_6
REMARK    5  A    between atoms: C_5  and  C_7
REMARK    6  A    between atoms: C_5  and  C_8
REMARK    7  A    between atoms: C_8  and  O_10
REMARK    8  A    between atoms: N_11  and  C_12
REMARK    9  A    between atoms: C_12  and  C_13
REMARK   10  A    between atoms: C_21  and  C_22
REMARK   11  A    between atoms: C_22  and  C_23
REMARK   12  A    between atoms: C_22  and  C_24
REMARK                            x       y       z     vdW  Elec       q    Type
REMARK                         _______ _______ _______ _____ _____    ______ ____
ROOT
ATOM      1  C   UNL     1       2.912   2.612  15.778  0.00  0.00    +0.000 C 
ATOM      2  C   UNL     1       3.567   3.700  16.564  0.00  0.00    +0.000 A 
ATOM      3  C   UNL     1       3.101   4.370  17.683  0.00  0.00    +0.000 A 
ATOM      4  N   UNL     1       4.064   5.328  18.019  0.00  0.00    +0.000 N 
ATOM      5  C   UNL     1       5.190   5.216  17.185  0.00  0.00    +0.000 A 
ATOM      6  C   UNL     1       6.466   5.873  17.120  0.00  0.00    +0.000 A 
ATOM      7  C   UNL     1       7.335   5.452  16.077  0.00  0.00    +0.000 A 
ATOM      8  C   UNL     1       6.993   4.490  15.142  0.00  0.00    +0.000 A 
ATOM      9  C   UNL     1       5.755   3.874  15.224  0.00  0.00    +0.000 A 
ATOM     10  C   UNL     1       4.857   4.222  16.255  0.00  0.00    +0.000 A 
ENDROOT
BRANCH   6  11
ATOM     11  C   UNL     1       6.991   6.936  18.086  0.00  0.00    +0.000 C 
ATOM     12  C   UNL     1       7.965   6.304  19.086  0.00  0.00    +0.000 C 
ATOM     13  C   UNL     1       7.665   8.146  17.416  0.00  0.00    +0.000 C 
ENDBRANCH   6  11
BRANCH   3  14
ATOM     14  C   UNL     1       1.752   4.201  18.382  0.00  0.00    +0.000 C 
BRANCH  14  15
ATOM     15  C   UNL     1       1.628   3.030  19.417  0.00  0.00    +0.000 C 
ATOM     16  C   UNL     1       0.472   2.082  19.072  0.00  0.00    +0.000 C 
ATOM     17  C   UNL     1       2.949   2.267  19.563  0.00  0.00    +0.000 C 
BRANCH  15  18
ATOM     18  C   UNL     1       1.320   3.658  20.793  0.00  0.00    +0.000 C 
ATOM     19  O   UNL     1       0.846   4.774  20.959  0.00  0.00    +0.000 OA
BRANCH  18  20
ATOM     20  O   UNL     1       1.639   2.875  21.850  0.00  0.00    +0.000 OA
ATOM     21  H   UNL     1       1.340   3.194  22.719  0.00  0.00    +0.000 HD
ENDBRANCH  18  20
ENDBRANCH  15  18
ENDBRANCH  14  15
ENDBRANCH   3  14
BRANCH   4  22
ATOM     22  C   UNL     1       3.933   6.251  19.150  0.00  0.00    +0.000 C 
BRANCH  22  23
ATOM     23  C   UNL     1       2.941   7.381  19.006  0.00  0.00    +0.000 A 
ATOM     24  C   UNL     1       2.792   8.158  17.851  0.00  0.00    +0.000 A 
ATOM     25  C   UNL     1       1.890   9.227  17.827  0.00  0.00    +0.000 A 
ATOM     26  C   UNL     1       1.118   9.516  18.949  0.00  0.00    +0.000 A 
ATOM     27 CL   UNL     1       0.055  10.868  18.938  0.00  0.00    +0.000 Cl
ATOM     28  C   UNL     1       1.212   8.723  20.089  0.00  0.00    +0.000 A 
ATOM     29  C   UNL     1       2.115   7.660  20.114  0.00  0.00    +0.000 A 
ENDBRANCH  22  23
ENDBRANCH   4  22
TORSDOF 7
ENDMDL
MODEL 8
REMARK VINA RESULT:      -6.9      0.690      1.442
REMARK  Name = 
REMARK  12 active torsions:
REMARK  status: ('A' for Active; 'I' for Inactive)
REMARK    1  A    between atoms: C_1  and  C_2
REMARK    2  A    between atoms: C_3  and  C_4
REMARK    3  A    between atoms: C_4  and  C_5
REMARK    4  A    between atoms: C_5  and  C_6
REMARK    5  A    between atoms: C_5  and  C_7
REMARK    6  A    between atoms: C_5  and  C_8
REMARK    7  A    between atoms: C_8  and  O_10
REMARK    8  A    between atoms: N_11  and  C_12
REMARK    9  A    between atoms: C_12  and  C_13
REMARK   10  A    between atoms: C_21  and  C_22
REMARK   11  A    between atoms: C_22  and  C_23
REMARK   12  A    between atoms: C_22  and  C_24
REMARK                            x       y       z     vdW  Elec       q    Type
REMARK                         _______ _______ _______ _____ _____    ______ ____
ROOT
ATOM      1  C   UNL     1       5.225   3.990  15.404  0.00  0.00    +0.000 C 
ATOM      2  C   UNL     1       4.582   4.336  16.707  0.00  0.00    +0.000 A 
ATOM      3  C   UNL     1       4.671   5.507  17.441  0.00  0.00    +0.000 A 
ATOM      4  N   UNL     1       3.920   5.319  18.607  0.00  0.00    +0.000 N 
ATOM      5  C   UNL     1       3.268   4.073  18.584  0.00  0.00    +0.000 A 
ATOM      6  C   UNL     1       2.344   3.403  19.456  0.00  0.00    +0.000 A 
ATOM      7  C   UNL     1       1.930   2.105  19.051  0.00  0.00    +0.000 A 
ATOM      8  C   UNL     1       2.395   1.478  17.907  0.00  0.00    +0.000 A 
ATOM      9  C   UNL     1       3.290   2.144  17.086  0.00  0.00    +0.000 A 
ATOM     10  C   UNL     1       3.716   3.450  17.411  0.00  0.00    +0.000 A 
ENDROOT
BRANCH   6  11
ATOM     11  C   UNL     1       1.730   3.968  20.737  0.00  0.00    +0.000 C 
ATOM     12  C   UNL     1       0.439   4.728  20.414  0.00  0.00    +0.000 C 
ATOM     13  C   UNL     1       1.446   2.928  21.835  0.00  0.00    +0.000 C 
ENDBRANCH   6  11
BRANCH   3  14
ATOM     14  C   UNL     1       5.507   6.747  17.129  0.00  0.00    +0.000 C 
BRANCH  14  15
ATOM     15  C   UNL     1       7.066   6.581  17.152  0.00  0.00    +0.000 C 
ATOM     16  C   UNL     1       7.608   6.078  15.807  0.00  0.00    +0.000 C 
ATOM     17  C   UNL     1       7.763   7.875  17.583  0.00  0.00    +0.000 C 
BRANCH  15  18
ATOM     18  C   UNL     1       7.402   5.516  18.217  0.00  0.00    +0.000 C 
ATOM     19  O   UNL     1       7.781   4.379  17.969  0.00  0.00    +0.000 OA
BRANCH  18  20
ATOM     20  O   UNL     1       7.227   5.926  19.494  0.00  0.00    +0.000 OA
ATOM     21  H   UNL     1       7.102   5.221  20.153  0.00  0.00    +0.000 HD
ENDBRANCH  18  20
ENDBRANCH  15  18
ENDBRANCH  14  15
ENDBRANCH   3  14
BRANCH   4  22
ATOM     22  C   UNL     1       3.774   6.334  19.653  0.00  0.00    +0.000 C 
BRANCH  22  23
ATOM     23  C   UNL     1       2.731   7.406  19.433  0.00  0.00    +0.000 A 
ATOM     24  C   UNL     1       1.892   7.907  20.436  0.00  0.00    +0.000 A 
ATOM     25  C   UNL     1       0.910   8.856  20.129  0.00  0.00    +0.000 A 
ATOM     26  C   UNL     1       0.773   9.324  18.824  0.00  0.00    +0.000 A 
ATOM     27 CL   UNL     1      -0.474  10.443  18.438  0.00  0.00    +0.000 Cl
ATOM     28  C   UNL     1       1.631   8.878  17.825  0.00  0.00    +0.000 A 
ATOM     29  C   UNL     1       2.608   7.928  18.130  0.00  0.00    +0.000 A 
ENDBRANCH  22  23
ENDBRANCH   4  22
TORSDOF 7
ENDMDL
MODEL 9
REMARK VINA RESULT:      -6.8      8.018     11.498
REMARK  Name = 
REMARK  12 active torsions:
REMARK  status: ('A' for Active; 'I' for Inactive)
REMARK    1  A    between atoms: C_1  and  C_2
REMARK    2  A    between atoms: C_3  and  C_4
REMARK    3  A    between atoms: C_4  and  C_5
REMARK    4  A    between atoms: C_5  and  C_6
REMARK    5  A    between atoms: C_5  and  C_7
REMARK    6  A    between atoms: C_5  and  C_8
REMARK    7  A    between atoms: C_8  and  O_10
REMARK    8  A    between atoms: N_11  and  C_12
REMARK    9  A    between atoms: C_12  and  C_13
REMARK   10  A    between atoms: C_21  and  C_22
REMARK   11  A    between atoms: C_22  and  C_23
REMARK   12  A    between atoms: C_22  and  C_24
REMARK                            x       y       z     vdW  Elec       q    Type
REMARK                         _______ _______ _______ _____ _____    ______ ____
ROOT
ATOM      1  C   UNL     1      -6.344  13.715  22.204  0.00  0.00    +0.000 C 
ATOM      2  C   UNL     1      -5.293  13.310  21.223  0.00  0.00    +0.000 A 
ATOM      3  C   UNL     1      -3.948  13.641  21.199  0.00  0.00    +0.000 A 
ATOM      4  N   UNL     1      -3.400  13.048  20.056  0.00  0.00    +0.000 N 
ATOM      5  C   UNL     1      -4.357  12.257  19.397  0.00  0.00    +0.000 A 
ATOM      6  C   UNL     1      -4.334  11.394  18.249  0.00  0.00    +0.000 A 
ATOM      7  C   UNL     1      -5.567  10.777  17.905  0.00  0.00    +0.000 A 
ATOM      8  C   UNL     1      -6.748  10.996  18.594  0.00  0.00    +0.000 A 
ATOM      9  C   UNL     1      -6.745  11.836  19.695  0.00  0.00    +0.000 A 
ATOM     10  C   UNL     1      -5.547  12.455  20.111  0.00  0.00    +0.000 A 
ENDROOT
BRANCH   6  11
ATOM     11  C   UNL     1      -3.111  11.042  17.401  0.00  0.00    +0.000 C 
ATOM     12  C   UNL     1      -2.632   9.624  17.730  0.00  0.00    +0.000 C 
ATOM     13  C   UNL     1      -3.316  11.170  15.881  0.00  0.00    +0.000 C 
ENDBRANCH   6  11
BRANCH   3  14
ATOM     14  C   UNL     1      -3.193  14.564  22.155  0.00  0.00    +0.000 C 
BRANCH  14  15
ATOM     15  C   UNL     1      -2.820  13.981  23.562  0.00  0.00    +0.000 C 
ATOM     16  C   UNL     1      -3.286  12.528  23.720  0.00  0.00    +0.000 C 
ATOM     17  C   UNL     1      -1.322  14.119  23.849  0.00  0.00    +0.000 C 
BRANCH  15  18
ATOM     18  C   UNL     1      -3.558  14.824  24.623  0.00  0.00    +0.000 C 
ATOM     19  O   UNL     1      -4.360  15.714  24.371  0.00  0.00    +0.000 OA
BRANCH  18  20
ATOM     20  O   UNL     1      -3.237  14.521  25.902  0.00  0.00    +0.000 OA
ATOM     21  H   UNL     1      -2.451  14.969  26.260  0.00  0.00    +0.000 HD
ENDBRANCH  18  20
ENDBRANCH  15  18
ENDBRANCH  14  15
ENDBRANCH   3  14
BRANCH   4  22
ATOM     22  C   UNL     1      -1.992  13.174  19.671  0.00  0.00    +0.000 C 
BRANCH  22  23
ATOM     23  C   UNL     1      -1.068  12.039  20.048  0.00  0.00    +0.000 A 
ATOM     24  C   UNL     1      -0.034  11.560  19.235  0.00  0.00    +0.000 A 
ATOM     25  C   UNL     1       0.733  10.462  19.638  0.00  0.00    +0.000 A 
ATOM     26  C   UNL     1       0.485   9.846  20.862  0.00  0.00    +0.000 A 
ATOM     27 CL   UNL     1       1.388   8.459  21.327  0.00  0.00    +0.000 Cl
ATOM     28  C   UNL     1      -0.503  10.340  21.708  0.00  0.00    +0.000 A 
ATOM     29  C   UNL     1      -1.271  11.433  21.304  0.00  0.00    +0.000 A 
ENDBRANCH  22  23
ENDBRANCH   4  22
TORSDOF 7
ENDMDL
