MODEL 1
REMARK VINA RESULT:      -7.2      0.000      0.000
REMARK  Name = 
REMARK  3 active torsions:
REMARK  status: ('A' for Active; 'I' for Inactive)
REMARK    1  A    between atoms: C_2  and  C_3
REMARK    2  A    between atoms: C_2  and  C_11
REMARK    3  A    between atoms: C_3  and  C_4
REMARK                            x       y       z     vdW  Elec       q    Type
REMARK                         _______ _______ _______ _____ _____    ______ ____
ROOT
ATOM      1  C   UNL     1       3.622   4.017  18.122  0.00  0.00    +0.000 C 
ATOM      2  C   UNL     1       4.509   4.422  19.304  0.00  0.00    +0.000 C 
ATOM      3  C   UNL     1       5.852   4.880  18.877  0.00  0.00    +0.000 A 
ATOM      4  C   UNL     1       6.894   5.458  19.565  0.00  0.00    +0.000 A 
ATOM      5  N   UNL     1       7.960   5.671  18.740  0.00  0.00    +0.000 NA
ATOM      6  C   UNL     1       7.577   5.235  17.560  0.00  0.00    +0.000 A 
ATOM      7  N   UNL     1       6.293   4.733  17.574  0.00  0.00    +0.000 N 
ATOM      8  C   UNL     1       5.584   4.158  16.507  0.00  0.00    +0.000 C 
ATOM      9  S   UNL     1       6.080   3.946  14.927  0.00  0.00    +0.000 S 
ATOM     10  N   UNL     1       4.345   3.684  16.891  0.00  0.00    +0.000 N 
ATOM     11  H   UNL     1       3.786   3.359  16.107  0.00  0.00    +0.000 HD
ENDROOT
BRANCH   1  13
ATOM     12  O   UNL     1       1.387   4.843  17.687  0.00  0.00    +0.000 OA
ATOM     13  C   UNL     1       2.581   5.111  17.846  0.00  0.00    +0.000 C 
BRANCH  13  14
ATOM     14  C   UNL     1       3.104   6.538  17.749  0.00  0.00    +0.000 C 
BRANCH  14  15
ATOM     15  C   UNL     1       2.323   7.524  18.585  0.00  0.00    +0.000 A 
ATOM     16  C   UNL     1       2.117   7.305  19.956  0.00  0.00    +0.000 A 
ATOM     17  C   UNL     1       1.410   8.234  20.724  0.00  0.00    +0.000 A 
ATOM     18  C   UNL     1       0.901   9.383  20.128  0.00  0.00    +0.000 A 
ATOM     19 BR   UNL     1      -0.058  10.640  21.167  0.00  0.00    +0.000 Br
ATOM     20  C   UNL     1       1.099   9.621  18.770  0.00  0.00    +0.000 A 
ATOM     21  C   UNL     1       1.811   8.694  18.004  0.00  0.00    +0.000 A 
ENDBRANCH  14  15
ENDBRANCH  13  14
ENDBRANCH   1  13
TORSDOF 3
ENDMDL
MODEL 2
REMARK VINA RESULT:      -7.0      1.101      1.421
REMARK  Name = 
REMARK  3 active torsions:
REMARK  status: ('A' for Active; 'I' for Inactive)
REMARK    1  A    between atoms: C_2  and  C_3
REMARK    2  A    between atoms: C_2  and  C_11
REMARK    3  A    between atoms: C_3  and  C_4
REMARK                            x       y       z     vdW  Elec       q    Type
REMARK                         _______ _______ _______ _____ _____    ______ ____
ROOT
ATOM      1  C   UNL     1       4.151   3.231  18.249  0.00  0.00    +0.000 C 
ATOM      2  C   UNL     1       5.109   3.813  19.293  0.00  0.00    +0.000 C 
ATOM      3  C   UNL     1       6.052   4.799  18.715  0.00  0.00    +0.000 A 
ATOM      4  C   UNL     1       6.964   5.654  19.289  0.00  0.00    +0.000 A 
ATOM      5  N   UNL     1       7.641   6.354  18.333  0.00  0.00    +0.000 NA
ATOM      6  C   UNL     1       7.148   5.938  17.187  0.00  0.00    +0.000 A 
ATOM      7  N   UNL     1       6.169   4.980  17.349  0.00  0.00    +0.000 N 
ATOM      8  C   UNL     1       5.461   4.299  16.346  0.00  0.00    +0.000 C 
ATOM      9  S   UNL     1       5.580   4.474  14.690  0.00  0.00    +0.000 S 
ATOM     10  N   UNL     1       4.607   3.343  16.859  0.00  0.00    +0.000 N 
ATOM     11  H   UNL     1       4.017   2.917  16.151  0.00  0.00    +0.000 HD
ENDROOT
BRANCH   1  13
ATOM     12  O   UNL     1       1.890   3.728  17.538  0.00  0.00    +0.000 OA
ATOM     13  C   UNL     1       2.759   3.860  18.403  0.00  0.00    +0.000 C 
BRANCH  13  14
ATOM     14  C   UNL     1       2.522   4.681  19.664  0.00  0.00    +0.000 C 
BRANCH  14  15
ATOM     15  C   UNL     1       2.267   6.145  19.390  0.00  0.00    +0.000 A 
ATOM     16  C   UNL     1       1.707   6.976  20.372  0.00  0.00    +0.000 A 
ATOM     17  C   UNL     1       1.495   8.333  20.115  0.00  0.00    +0.000 A 
ATOM     18  C   UNL     1       1.836   8.866  18.876  0.00  0.00    +0.000 A 
ATOM     19 BR   UNL     1       1.548  10.703  18.527  0.00  0.00    +0.000 Br
ATOM     20  C   UNL     1       2.397   8.059  17.890  0.00  0.00    +0.000 A 
ATOM     21  C   UNL     1       2.614   6.703  18.151  0.00  0.00    +0.000 A 
ENDBRANCH  14  15
ENDBRANCH  13  14
ENDBRANCH   1  13
TORSDOF 3
ENDMDL
MODEL 3
REMARK VINA RESULT:      -7.0      4.262      6.486
REMARK  Name = 
REMARK  3 active torsions:
REMARK  status: ('A' for Active; 'I' for Inactive)
REMARK    1  A    between atoms: C_2  and  C_3
REMARK    2  A    between atoms: C_2  and  C_11
REMARK    3  A    between atoms: C_3  and  C_4
REMARK                            x       y       z     vdW  Elec       q    Type
REMARK                         _______ _______ _______ _____ _____    ______ ____
ROOT
ATOM      1  C   UNL     1       5.626   4.941  19.289  0.00  0.00    +0.000 C 
ATOM      2  C   UNL     1       4.978   3.552  19.257  0.00  0.00    +0.000 C 
ATOM      3  C   UNL     1       3.653   3.557  18.595  0.00  0.00    +0.000 A 
ATOM      4  C   UNL     1       2.802   2.543  18.221  0.00  0.00    +0.000 A 
ATOM      5  N   UNL     1       1.660   3.047  17.670  0.00  0.00    +0.000 NA
ATOM      6  C   UNL     1       1.810   4.353  17.698  0.00  0.00    +0.000 A 
ATOM      7  N   UNL     1       3.011   4.735  18.257  0.00  0.00    +0.000 N 
ATOM      8  C   UNL     1       3.480   6.041  18.476  0.00  0.00    +0.000 C 
ATOM      9  S   UNL     1       2.735   7.487  18.100  0.00  0.00    +0.000 S 
ATOM     10  N   UNL     1       4.695   6.062  19.132  0.00  0.00    +0.000 N 
ATOM     11  H   UNL     1       5.089   6.996  19.204  0.00  0.00    +0.000 HD
ENDROOT
BRANCH   1  13
ATOM     12  O   UNL     1       7.796   4.398  18.361  0.00  0.00    +0.000 OA
ATOM     13  C   UNL     1       6.741   5.025  18.237  0.00  0.00    +0.000 C 
BRANCH  13  14
ATOM     14  C   UNL     1       6.487   5.948  17.052  0.00  0.00    +0.000 C 
BRANCH  14  15
ATOM     15  C   UNL     1       6.328   5.213  15.741  0.00  0.00    +0.000 A 
ATOM     16  C   UNL     1       7.331   5.261  14.761  0.00  0.00    +0.000 A 
ATOM     17  C   UNL     1       7.182   4.561  13.561  0.00  0.00    +0.000 A 
ATOM     18  C   UNL     1       6.030   3.815  13.330  0.00  0.00    +0.000 A 
ATOM     19 BR   UNL     1       5.828   2.869  11.705  0.00  0.00    +0.000 Br
ATOM     20  C   UNL     1       5.026   3.752  14.293  0.00  0.00    +0.000 A 
ATOM     21  C   UNL     1       5.179   4.448  15.495  0.00  0.00    +0.000 A 
ENDBRANCH  14  15
ENDBRANCH  13  14
ENDBRANCH   1  13
TORSDOF 3
ENDMDL
MODEL 4
REMARK VINA RESULT:      -7.0      1.064      1.620
REMARK  Name = 
REMARK  3 active torsions:
REMARK  status: ('A' for Active; 'I' for Inactive)
REMARK    1  A    between atoms: C_2  and  C_3
REMARK    2  A    between atoms: C_2  and  C_11
REMARK    3  A    between atoms: C_3  and  C_4
REMARK                            x       y       z     vdW  Elec       q    Type
REMARK                         _______ _______ _______ _____ _____    ______ ____
ROOT
ATOM      1  C   UNL     1       4.241   3.304  18.331  0.00  0.00    +0.000 C 
ATOM      2  C   UNL     1       5.239   3.878  19.342  0.00  0.00    +0.000 C 
ATOM      3  C   UNL     1       6.173   4.852  18.730  0.00  0.00    +0.000 A 
ATOM      4  C   UNL     1       7.112   5.699  19.273  0.00  0.00    +0.000 A 
ATOM      5  N   UNL     1       7.765   6.389  18.293  0.00  0.00    +0.000 NA
ATOM      6  C   UNL     1       7.231   5.976  17.165  0.00  0.00    +0.000 A 
ATOM      7  N   UNL     1       6.248   5.029  17.361  0.00  0.00    +0.000 N 
ATOM      8  C   UNL     1       5.500   4.353  16.383  0.00  0.00    +0.000 C 
ATOM      9  S   UNL     1       5.568   4.522  14.724  0.00  0.00    +0.000 S 
ATOM     10  N   UNL     1       4.653   3.408  16.927  0.00  0.00    +0.000 N 
ATOM     11  H   UNL     1       4.036   2.986  16.239  0.00  0.00    +0.000 HD
ENDROOT
BRANCH   1  13
ATOM     12  O   UNL     1       1.962   3.818  17.696  0.00  0.00    +0.000 OA
ATOM     13  C   UNL     1       2.862   3.949  18.528  0.00  0.00    +0.000 C 
BRANCH  13  14
ATOM     14  C   UNL     1       2.677   4.782  19.789  0.00  0.00    +0.000 C 
BRANCH  14  15
ATOM     15  C   UNL     1       2.343   6.230  19.511  0.00  0.00    +0.000 A 
ATOM     16  C   UNL     1       2.595   6.798  18.253  0.00  0.00    +0.000 A 
ATOM     17  C   UNL     1       2.263   8.132  17.999  0.00  0.00    +0.000 A 
ATOM     18  C   UNL     1       1.685   8.906  19.000  0.00  0.00    +0.000 A 
ATOM     19 BR   UNL     1       1.238  10.712  18.658  0.00  0.00    +0.000 Br
ATOM     20  C   UNL     1       1.423   8.358  20.254  0.00  0.00    +0.000 A 
ATOM     21  C   UNL     1       1.750   7.022  20.504  0.00  0.00    +0.000 A 
ENDBRANCH  14  15
ENDBRANCH  13  14
ENDBRANCH   1  13
TORSDOF 3
ENDMDL
MODEL 5
REMARK VINA RESULT:      -7.0      4.245      6.439
REMARK  Name = 
REMARK  3 active torsions:
REMARK  status: ('A' for Active; 'I' for Inactive)
REMARK    1  A    between atoms: C_2  and  C_3
REMARK    2  A    between atoms: C_2  and  C_11
REMARK    3  A    between atoms: C_3  and  C_4
REMARK                            x       y       z     vdW  Elec       q    Type
REMARK                         _______ _______ _______ _____ _____    ______ ____
ROOT
ATOM      1  C   UNL     1       5.517   4.991  19.349  0.00  0.00    +0.000 C 
ATOM      2  C   UNL     1       4.873   3.601  19.310  0.00  0.00    +0.000 C 
ATOM      3  C   UNL     1       3.564   3.600  18.614  0.00  0.00    +0.000 A 
ATOM      4  C   UNL     1       2.725   2.582  18.225  0.00  0.00    +0.000 A 
ATOM      5  N   UNL     1       1.596   3.080  17.643  0.00  0.00    +0.000 NA
ATOM      6  C   UNL     1       1.743   4.387  17.668  0.00  0.00    +0.000 A 
ATOM      7  N   UNL     1       2.929   4.774  18.254  0.00  0.00    +0.000 N 
ATOM      8  C   UNL     1       3.389   6.082  18.477  0.00  0.00    +0.000 C 
ATOM      9  S   UNL     1       2.652   7.525  18.075  0.00  0.00    +0.000 S 
ATOM     10  N   UNL     1       4.588   6.110  19.163  0.00  0.00    +0.000 N 
ATOM     11  H   UNL     1       4.978   7.044  19.240  0.00  0.00    +0.000 HD
ENDROOT
BRANCH   1  13
ATOM     12  O   UNL     1       7.716   4.460  18.486  0.00  0.00    +0.000 OA
ATOM     13  C   UNL     1       6.657   5.072  18.325  0.00  0.00    +0.000 C 
BRANCH  13  14
ATOM     14  C   UNL     1       6.424   5.972  17.119  0.00  0.00    +0.000 C 
BRANCH  14  15
ATOM     15  C   UNL     1       6.292   5.213  15.819  0.00  0.00    +0.000 A 
ATOM     16  C   UNL     1       5.178   4.397  15.569  0.00  0.00    +0.000 A 
ATOM     17  C   UNL     1       5.056   3.717  14.355  0.00  0.00    +0.000 A 
ATOM     18  C   UNL     1       6.048   3.842  13.386  0.00  0.00    +0.000 A 
ATOM     19 BR   UNL     1       5.884   2.919  11.743  0.00  0.00    +0.000 Br
ATOM     20  C   UNL     1       7.159   4.651  13.614  0.00  0.00    +0.000 A 
ATOM     21  C   UNL     1       7.276   5.336  14.826  0.00  0.00    +0.000 A 
ENDBRANCH  14  15
ENDBRANCH  13  14
ENDBRANCH   1  13
TORSDOF 3
ENDMDL
MODEL 6
REMARK VINA RESULT:      -6.7      2.878      4.085
REMARK  Name = 
REMARK  3 active torsions:
REMARK  status: ('A' for Active; 'I' for Inactive)
REMARK    1  A    between atoms: C_2  and  C_3
REMARK    2  A    between atoms: C_2  and  C_11
REMARK    3  A    between atoms: C_3  and  C_4
REMARK                            x       y       z     vdW  Elec       q    Type
REMARK                         _______ _______ _______ _____ _____    ______ ____
ROOT
ATOM      1  C   UNL     1       3.643   2.723  17.495  0.00  0.00    +0.000 C 
ATOM      2  C   UNL     1       2.178   3.033  17.819  0.00  0.00    +0.000 C 
ATOM      3  C   UNL     1       1.897   2.997  19.273  0.00  0.00    +0.000 A 
ATOM      4  C   UNL     1       0.788   3.345  20.010  0.00  0.00    +0.000 A 
ATOM      5  N   UNL     1       0.989   3.096  21.336  0.00  0.00    +0.000 NA
ATOM      6  C   UNL     1       2.208   2.608  21.415  0.00  0.00    +0.000 A 
ATOM      7  N   UNL     1       2.821   2.518  20.183  0.00  0.00    +0.000 N 
ATOM      8  C   UNL     1       4.100   2.013  19.896  0.00  0.00    +0.000 C 
ATOM      9  S   UNL     1       5.240   1.410  20.956  0.00  0.00    +0.000 S 
ATOM     10  N   UNL     1       4.368   1.995  18.541  0.00  0.00    +0.000 N 
ATOM     11  H   UNL     1       5.325   1.728  18.331  0.00  0.00    +0.000 HD
ENDROOT
BRANCH   1  13
ATOM     12  O   UNL     1       4.689   4.285  15.968  0.00  0.00    +0.000 OA
ATOM     13  C   UNL     1       4.388   4.016  17.134  0.00  0.00    +0.000 C 
BRANCH  13  14
ATOM     14  C   UNL     1       4.761   4.930  18.293  0.00  0.00    +0.000 C 
BRANCH  14  15
ATOM     15  C   UNL     1       3.811   6.092  18.472  0.00  0.00    +0.000 A 
ATOM     16  C   UNL     1       3.011   6.199  19.620  0.00  0.00    +0.000 A 
ATOM     17  C   UNL     1       2.151   7.289  19.785  0.00  0.00    +0.000 A 
ATOM     18  C   UNL     1       2.083   8.273  18.805  0.00  0.00    +0.000 A 
ATOM     19 BR   UNL     1       0.918   9.747  19.027  0.00  0.00    +0.000 Br
ATOM     20  C   UNL     1       2.873   8.187  17.661  0.00  0.00    +0.000 A 
ATOM     21  C   UNL     1       3.736   7.100  17.500  0.00  0.00    +0.000 A 
ENDBRANCH  14  15
ENDBRANCH  13  14
ENDBRANCH   1  13
TORSDOF 3
ENDMDL
MODEL 7
REMARK VINA RESULT:      -6.7      1.063      1.667
REMARK  Name = 
REMARK  3 active torsions:
REMARK  status: ('A' for Active; 'I' for Inactive)
REMARK    1  A    between atoms: C_2  and  C_3
REMARK    2  A    between atoms: C_2  and  C_11
REMARK    3  A    between atoms: C_3  and  C_4
REMARK                            x       y       z     vdW  Elec       q    Type
REMARK                         _______ _______ _______ _____ _____    ______ ____
ROOT
ATOM      1  C   UNL     1       4.221   3.025  18.086  0.00  0.00    +0.000 C 
ATOM      2  C   UNL     1       4.998   3.710  19.215  0.00  0.00    +0.000 C 
ATOM      3  C   UNL     1       5.991   4.688  18.712  0.00  0.00    +0.000 A 
ATOM      4  C   UNL     1       6.785   5.613  19.350  0.00  0.00    +0.000 A 
ATOM      5  N   UNL     1       7.580   6.269  18.456  0.00  0.00    +0.000 NA
ATOM      6  C   UNL     1       7.274   5.759  17.283  0.00  0.00    +0.000 A 
ATOM      7  N   UNL     1       6.307   4.780  17.368  0.00  0.00    +0.000 N 
ATOM      8  C   UNL     1       5.773   4.008  16.324  0.00  0.00    +0.000 C 
ATOM      9  S   UNL     1       6.134   4.073  14.695  0.00  0.00    +0.000 S 
ATOM     10  N   UNL     1       4.876   3.059  16.775  0.00  0.00    +0.000 N 
ATOM     11  H   UNL     1       4.410   2.565  16.020  0.00  0.00    +0.000 HD
ENDROOT
BRANCH   1  13
ATOM     12  O   UNL     1       1.808   2.947  18.273  0.00  0.00    +0.000 OA
ATOM     13  C   UNL     1       2.807   3.613  17.988  0.00  0.00    +0.000 C 
BRANCH  13  14
ATOM     14  C   UNL     1       2.702   5.049  17.492  0.00  0.00    +0.000 C 
BRANCH  14  15
ATOM     15  C   UNL     1       2.334   6.035  18.576  0.00  0.00    +0.000 A 
ATOM     16  C   UNL     1       2.280   7.412  18.311  0.00  0.00    +0.000 A 
ATOM     17  C   UNL     1       1.919   8.314  19.316  0.00  0.00    +0.000 A 
ATOM     18  C   UNL     1       1.614   7.847  20.591  0.00  0.00    +0.000 A 
ATOM     19 BR   UNL     1       1.127   9.067  21.952  0.00  0.00    +0.000 Br
ATOM     20  C   UNL     1       1.657   6.483  20.872  0.00  0.00    +0.000 A 
ATOM     21  C   UNL     1       2.013   5.582  19.864  0.00  0.00    +0.000 A 
ENDBRANCH  14  15
ENDBRANCH  13  14
ENDBRANCH   1  13
TORSDOF 3
ENDMDL
MODEL 8
REMARK VINA RESULT:      -6.7      2.896      4.220
REMARK  Name = 
REMARK  3 active torsions:
REMARK  status: ('A' for Active; 'I' for Inactive)
REMARK    1  A    between atoms: C_2  and  C_3
REMARK    2  A    between atoms: C_2  and  C_11
REMARK    3  A    between atoms: C_3  and  C_4
REMARK                            x       y       z     vdW  Elec       q    Type
REMARK                         _______ _______ _______ _____ _____    ______ ____
ROOT
ATOM      1  C   UNL     1       3.649   2.719  17.528  0.00  0.00    +0.000 C 
ATOM      2  C   UNL     1       2.188   3.039  17.860  0.00  0.00    +0.000 C 
ATOM      3  C   UNL     1       1.911   2.993  19.316  0.00  0.00    +0.000 A 
ATOM      4  C   UNL     1       0.808   3.343  20.059  0.00  0.00    +0.000 A 
ATOM      5  N   UNL     1       1.012   3.081  21.383  0.00  0.00    +0.000 NA
ATOM      6  C   UNL     1       2.227   2.582  21.452  0.00  0.00    +0.000 A 
ATOM      7  N   UNL     1       2.835   2.497  20.218  0.00  0.00    +0.000 N 
ATOM      8  C   UNL     1       4.109   1.985  19.921  0.00  0.00    +0.000 C 
ATOM      9  S   UNL     1       5.248   1.364  20.972  0.00  0.00    +0.000 S 
ATOM     10  N   UNL     1       4.372   1.977  18.566  0.00  0.00    +0.000 N 
ATOM     11  H   UNL     1       5.326   1.703  18.349  0.00  0.00    +0.000 HD
ENDROOT
BRANCH   1  13
ATOM     12  O   UNL     1       4.715   4.279  16.013  0.00  0.00    +0.000 OA
ATOM     13  C   UNL     1       4.403   4.009  17.176  0.00  0.00    +0.000 C 
BRANCH  13  14
ATOM     14  C   UNL     1       4.771   4.919  18.340  0.00  0.00    +0.000 C 
BRANCH  14  15
ATOM     15  C   UNL     1       3.854   6.112  18.485  0.00  0.00    +0.000 A 
ATOM     16  C   UNL     1       3.822   7.121  17.511  0.00  0.00    +0.000 A 
ATOM     17  C   UNL     1       2.955   8.209  17.645  0.00  0.00    +0.000 A 
ATOM     18  C   UNL     1       2.119   8.297  18.753  0.00  0.00    +0.000 A 
ATOM     19 BR   UNL     1       0.947   9.770  18.936  0.00  0.00    +0.000 Br
ATOM     20  C   UNL     1       2.132   7.303  19.729  0.00  0.00    +0.000 A 
ATOM     21  C   UNL     1       2.996   6.213  19.590  0.00  0.00    +0.000 A 
ENDBRANCH  14  15
ENDBRANCH  13  14
ENDBRANCH   1  13
TORSDOF 3
ENDMDL
MODEL 9
REMARK VINA RESULT:      -6.7      3.710      5.583
REMARK  Name = 
REMARK  3 active torsions:
REMARK  status: ('A' for Active; 'I' for Inactive)
REMARK    1  A    between atoms: C_2  and  C_3
REMARK    2  A    between atoms: C_2  and  C_11
REMARK    3  A    between atoms: C_3  and  C_4
REMARK                            x       y       z     vdW  Elec       q    Type
REMARK                         _______ _______ _______ _____ _____    ______ ____
ROOT
ATOM      1  C   UNL     1       3.573   4.072  18.067  0.00  0.00    +0.000 C 
ATOM      2  C   UNL     1       3.258   5.548  17.801  0.00  0.00    +0.000 C 
ATOM      3  C   UNL     1       2.591   6.204  18.951  0.00  0.00    +0.000 A 
ATOM      4  C   UNL     1       2.266   7.516  19.206  0.00  0.00    +0.000 A 
ATOM      5  N   UNL     1       1.614   7.630  20.400  0.00  0.00    +0.000 NA
ATOM      6  C   UNL     1       1.545   6.405  20.874  0.00  0.00    +0.000 A 
ATOM      7  N   UNL     1       2.123   5.479  20.032  0.00  0.00    +0.000 N 
ATOM      8  C   UNL     1       2.196   4.088  20.208  0.00  0.00    +0.000 C 
ATOM      9  S   UNL     1       1.634   3.172  21.485  0.00  0.00    +0.000 S 
ATOM     10  N   UNL     1       2.776   3.450  19.128  0.00  0.00    +0.000 N 
ATOM     11  H   UNL     1       2.924   2.458  19.288  0.00  0.00    +0.000 HD
ENDROOT
BRANCH   1  13
ATOM     12  O   UNL     1       5.472   3.423  19.422  0.00  0.00    +0.000 OA
ATOM     13  C   UNL     1       5.071   3.898  18.356  0.00  0.00    +0.000 C 
BRANCH  13  14
ATOM     14  C   UNL     1       6.031   4.370  17.273  0.00  0.00    +0.000 C 
BRANCH  14  15
ATOM     15  C   UNL     1       6.717   5.675  17.605  0.00  0.00    +0.000 A 
ATOM     16  C   UNL     1       7.689   5.743  18.615  0.00  0.00    +0.000 A 
ATOM     17  C   UNL     1       8.333   6.950  18.900  0.00  0.00    +0.000 A 
ATOM     18  C   UNL     1       8.006   8.096  18.182  0.00  0.00    +0.000 A 
ATOM     19 BR   UNL     1       8.875   9.731  18.569  0.00  0.00    +0.000 Br
ATOM     20  C   UNL     1       7.047   8.048  17.173  0.00  0.00    +0.000 A 
ATOM     21  C   UNL     1       6.409   6.839  16.885  0.00  0.00    +0.000 A 
ENDBRANCH  14  15
ENDBRANCH  13  14
ENDBRANCH   1  13
TORSDOF 3
ENDMDL
