MODEL 1
REMARK VINA RESULT:      -9.3      0.000      0.000
REMARK  Name = 
REMARK  2 active torsions:
REMARK  status: ('A' for Active; 'I' for Inactive)
REMARK    1  A    between atoms: C_2  and  C_17
REMARK    2  A    between atoms: C_7  and  C_8
REMARK                            x       y       z     vdW  Elec       q    Type
REMARK                         _______ _______ _______ _____ _____    ______ ____
ROOT
ATOM      1  O   UNL     1       2.103   8.354  18.885  0.00  0.00    +0.000 OA
ATOM      2  C   UNL     1       1.750   7.970  19.992  0.00  0.00    +0.000 C 
ATOM      3  N   UNL     1       1.968   6.732  20.539  0.00  0.00    +0.000 N 
ATOM      4  C   UNL     1       2.688   5.752  19.926  0.00  0.00    +0.000 A 
ATOM      5  N   UNL     1       2.735   4.496  20.308  0.00  0.00    +0.000 NA
ATOM      6  N   UNL     1       3.613   3.864  19.459  0.00  0.00    +0.000 NA
ATOM      7  C   UNL     1       4.079   4.787  18.642  0.00  0.00    +0.000 A 
ATOM      8  O   UNL     1       3.504   6.016  18.863  0.00  0.00    +0.000 OA
ATOM      9  H   UNL     1       1.478   6.432  21.369  0.00  0.00    +0.000 HD
ENDROOT
BRANCH   2  10
ATOM     10  C   UNL     1       0.921   8.875  20.845  0.00  0.00    +0.000 A 
ATOM     11  C   UNL     1       0.954   8.717  22.237  0.00  0.00    +0.000 A 
ATOM     12  C   UNL     1       0.230   9.582  23.059  0.00  0.00    +0.000 A 
ATOM     13  C   UNL     1      -0.538  10.601  22.495  0.00  0.00    +0.000 A 
ATOM     14  C   UNL     1      -0.578  10.755  21.106  0.00  0.00    +0.000 A 
ATOM     15  C   UNL     1       0.134   9.886  20.279  0.00  0.00    +0.000 A 
ATOM     16  O   UNL     1      -1.299  11.738  20.478  0.00  0.00    +0.000 OA
ATOM     17  C   UNL     1      -1.675  12.775  21.393  0.00  0.00    +0.000 C 
ATOM     18  C   UNL     1      -2.218  12.190  22.686  0.00  0.00    +0.000 C 
ATOM     19  O   UNL     1      -1.220  11.414  23.361  0.00  0.00    +0.000 OA
ENDBRANCH   2  10
BRANCH   7  20
ATOM     20  C   UNL     1       5.126   4.713  17.629  0.00  0.00    +0.000 A 
ATOM     21  C   UNL     1       4.795   4.362  16.305  0.00  0.00    +0.000 A 
ATOM     22  C   UNL     1       5.778   4.314  15.312  0.00  0.00    +0.000 A 
ATOM     23 CL   UNL     1       5.349   3.893  13.701  0.00  0.00    +0.000 Cl
ATOM     24  C   UNL     1       7.104   4.613  15.613  0.00  0.00    +0.000 A 
ATOM     25  C   UNL     1       7.450   4.953  16.919  0.00  0.00    +0.000 A 
ATOM     26  C   UNL     1       6.473   5.002  17.922  0.00  0.00    +0.000 A 
ATOM     27 CL   UNL     1       7.019   5.481  19.493  0.00  0.00    +0.000 Cl
ENDBRANCH   7  20
TORSDOF 2
ENDMDL
MODEL 2
REMARK VINA RESULT:      -8.8      6.794      8.027
REMARK  Name = 
REMARK  2 active torsions:
REMARK  status: ('A' for Active; 'I' for Inactive)
REMARK    1  A    between atoms: C_2  and  C_17
REMARK    2  A    between atoms: C_7  and  C_8
REMARK                            x       y       z     vdW  Elec       q    Type
REMARK                         _______ _______ _______ _____ _____    ______ ____
ROOT
ATOM      1  O   UNL     1       7.701   9.571  17.341  0.00  0.00    +0.000 OA
ATOM      2  C   UNL     1       8.477   9.396  18.271  0.00  0.00    +0.000 C 
ATOM      3  N   UNL     1       8.716   8.217  18.928  0.00  0.00    +0.000 N 
ATOM      4  C   UNL     1       8.150   7.029  18.578  0.00  0.00    +0.000 A 
ATOM      5  N   UNL     1       8.178   5.935  19.305  0.00  0.00    +0.000 NA
ATOM      6  N   UNL     1       7.545   4.963  18.567  0.00  0.00    +0.000 NA
ATOM      7  C   UNL     1       7.212   5.516  17.417  0.00  0.00    +0.000 A 
ATOM      8  O   UNL     1       7.541   6.851  17.369  0.00  0.00    +0.000 OA
ATOM      9  H   UNL     1       9.217   8.197  19.805  0.00  0.00    +0.000 HD
ENDROOT
BRANCH   2  10
ATOM     10  C   UNL     1       9.203  10.570  18.844  0.00  0.00    +0.000 A 
ATOM     11  C   UNL     1       9.347  10.670  20.234  0.00  0.00    +0.000 A 
ATOM     12  C   UNL     1      10.065  11.729  20.792  0.00  0.00    +0.000 A 
ATOM     13  C   UNL     1      10.633  12.699  19.965  0.00  0.00    +0.000 A 
ATOM     14  C   UNL     1      10.483  12.605  18.578  0.00  0.00    +0.000 A 
ATOM     15  C   UNL     1       9.757  11.555  18.016  0.00  0.00    +0.000 A 
ATOM     16  O   UNL     1      11.021  13.511  17.700  0.00  0.00    +0.000 OA
ATOM     17  C   UNL     1      12.033  14.309  18.328  0.00  0.00    +0.000 C 
ATOM     18  C   UNL     1      11.571  14.803  19.688  0.00  0.00    +0.000 C 
ATOM     19  O   UNL     1      11.327  13.707  20.579  0.00  0.00    +0.000 OA
ENDBRANCH   2  10
BRANCH   7  20
ATOM     20  C   UNL     1       6.638   4.927  16.214  0.00  0.00    +0.000 A 
ATOM     21  C   UNL     1       7.278   5.105  14.972  0.00  0.00    +0.000 A 
ATOM     22  C   UNL     1       6.761   4.524  13.811  0.00  0.00    +0.000 A 
ATOM     23 CL   UNL     1       7.566   4.747  12.308  0.00  0.00    +0.000 Cl
ATOM     24  C   UNL     1       5.602   3.756  13.860  0.00  0.00    +0.000 A 
ATOM     25  C   UNL     1       4.949   3.575  15.078  0.00  0.00    +0.000 A 
ATOM     26  C   UNL     1       5.459   4.156  16.247  0.00  0.00    +0.000 A 
ATOM     27 CL   UNL     1       4.585   3.823  17.704  0.00  0.00    +0.000 Cl
ENDBRANCH   7  20
TORSDOF 2
ENDMDL
MODEL 3
REMARK VINA RESULT:      -8.8      0.994      1.705
REMARK  Name = 
REMARK  2 active torsions:
REMARK  status: ('A' for Active; 'I' for Inactive)
REMARK    1  A    between atoms: C_2  and  C_17
REMARK    2  A    between atoms: C_7  and  C_8
REMARK                            x       y       z     vdW  Elec       q    Type
REMARK                         _______ _______ _______ _____ _____    ______ ____
ROOT
ATOM      1  O   UNL     1       1.995   8.752  17.751  0.00  0.00    +0.000 OA
ATOM      2  C   UNL     1       1.616   8.676  18.912  0.00  0.00    +0.000 C 
ATOM      3  N   UNL     1       1.843   7.644  19.784  0.00  0.00    +0.000 N 
ATOM      4  C   UNL     1       2.602   6.554  19.482  0.00  0.00    +0.000 A 
ATOM      5  N   UNL     1       2.664   5.453  20.197  0.00  0.00    +0.000 NA
ATOM      6  N   UNL     1       3.580   4.638  19.576  0.00  0.00    +0.000 NA
ATOM      7  C   UNL     1       4.052   5.313  18.547  0.00  0.00    +0.000 A 
ATOM      8  O   UNL     1       3.444   6.539  18.408  0.00  0.00    +0.000 OA
ATOM      9  H   UNL     1       1.335   7.568  20.653  0.00  0.00    +0.000 HD
ENDROOT
BRANCH   2  10
ATOM     10  C   UNL     1       0.742   9.757  19.464  0.00  0.00    +0.000 A 
ATOM     11  C   UNL     1      -0.061  10.497  18.588  0.00  0.00    +0.000 A 
ATOM     12  C   UNL     1      -0.924  11.476  19.083  0.00  0.00    +0.000 A 
ATOM     13  C   UNL     1      -0.981  11.727  20.454  0.00  0.00    +0.000 A 
ATOM     14  C   UNL     1      -0.174  10.994  21.330  0.00  0.00    +0.000 A 
ATOM     15  C   UNL     1       0.699  10.023  20.839  0.00  0.00    +0.000 A 
ATOM     16  O   UNL     1      -0.181  11.174  22.689  0.00  0.00    +0.000 OA
ATOM     17  C   UNL     1      -1.343  11.898  23.114  0.00  0.00    +0.000 C 
ATOM     18  C   UNL     1      -1.591  13.102  22.221  0.00  0.00    +0.000 C 
ATOM     19  O   UNL     1      -1.852  12.698  20.871  0.00  0.00    +0.000 OA
ENDBRANCH   2  10
BRANCH   7  20
ATOM     20  C   UNL     1       5.131   4.994  17.619  0.00  0.00    +0.000 A 
ATOM     21  C   UNL     1       4.829   4.652  16.286  0.00  0.00    +0.000 A 
ATOM     22  C   UNL     1       5.849   4.372  15.372  0.00  0.00    +0.000 A 
ATOM     23 CL   UNL     1       5.457   3.966  13.747  0.00  0.00    +0.000 Cl
ATOM     24  C   UNL     1       7.184   4.425  15.763  0.00  0.00    +0.000 A 
ATOM     25  C   UNL     1       7.501   4.753  17.079  0.00  0.00    +0.000 A 
ATOM     26  C   UNL     1       6.485   5.034  18.003  0.00  0.00    +0.000 A 
ATOM     27 CL   UNL     1       7.006   5.472  19.595  0.00  0.00    +0.000 Cl
ENDBRANCH   7  20
TORSDOF 2
ENDMDL
MODEL 4
REMARK VINA RESULT:      -8.5      1.557      2.143
REMARK  Name = 
REMARK  2 active torsions:
REMARK  status: ('A' for Active; 'I' for Inactive)
REMARK    1  A    between atoms: C_2  and  C_17
REMARK    2  A    between atoms: C_7  and  C_8
REMARK                            x       y       z     vdW  Elec       q    Type
REMARK                         _______ _______ _______ _____ _____    ______ ____
ROOT
ATOM      1  O   UNL     1       1.453   9.118  19.242  0.00  0.00    +0.000 OA
ATOM      2  C   UNL     1       1.129   8.818  20.383  0.00  0.00    +0.000 C 
ATOM      3  N   UNL     1       1.301   7.603  20.992  0.00  0.00    +0.000 N 
ATOM      4  C   UNL     1       1.937   6.549  20.408  0.00  0.00    +0.000 A 
ATOM      5  N   UNL     1       1.930   5.316  20.862  0.00  0.00    +0.000 NA
ATOM      6  N   UNL     1       2.732   4.587  20.016  0.00  0.00    +0.000 NA
ATOM      7  C   UNL     1       3.213   5.433  19.126  0.00  0.00    +0.000 A 
ATOM      8  O   UNL     1       2.718   6.705  19.299  0.00  0.00    +0.000 OA
ATOM      9  H   UNL     1       0.833   7.378  21.858  0.00  0.00    +0.000 HD
ENDROOT
BRANCH   2  10
ATOM     10  C   UNL     1       0.391   9.816  21.216  0.00  0.00    +0.000 A 
ATOM     11  C   UNL     1      -0.280   9.381  22.366  0.00  0.00    +0.000 A 
ATOM     12  C   UNL     1      -0.932  10.300  23.189  0.00  0.00    +0.000 A 
ATOM     13  C   UNL     1      -0.927  11.656  22.861  0.00  0.00    +0.000 A 
ATOM     14  C   UNL     1      -0.265  12.091  21.709  0.00  0.00    +0.000 A 
ATOM     15  C   UNL     1       0.379  11.176  20.877  0.00  0.00    +0.000 A 
ATOM     16  O   UNL     1      -0.206  13.407  21.327  0.00  0.00    +0.000 OA
ATOM     17  C   UNL     1      -0.557  14.281  22.407  0.00  0.00    +0.000 C 
ATOM     18  C   UNL     1      -1.803  13.789  23.122  0.00  0.00    +0.000 C 
ATOM     19  O   UNL     1      -1.584  12.503  23.714  0.00  0.00    +0.000 OA
ENDBRANCH   2  10
BRANCH   7  20
ATOM     20  C   UNL     1       4.207   5.241  18.077  0.00  0.00    +0.000 A 
ATOM     21  C   UNL     1       5.343   6.073  18.028  0.00  0.00    +0.000 A 
ATOM     22  C   UNL     1       6.323   5.886  17.049  0.00  0.00    +0.000 A 
ATOM     23 CL   UNL     1       7.706   6.908  17.015  0.00  0.00    +0.000 Cl
ATOM     24  C   UNL     1       6.195   4.873  16.103  0.00  0.00    +0.000 A 
ATOM     25  C   UNL     1       5.074   4.046  16.131  0.00  0.00    +0.000 A 
ATOM     26  C   UNL     1       4.085   4.227  17.107  0.00  0.00    +0.000 A 
ATOM     27 CL   UNL     1       2.764   3.109  17.065  0.00  0.00    +0.000 Cl
ENDBRANCH   7  20
TORSDOF 2
ENDMDL
MODEL 5
REMARK VINA RESULT:      -8.3      3.872      9.503
REMARK  Name = 
REMARK  2 active torsions:
REMARK  status: ('A' for Active; 'I' for Inactive)
REMARK    1  A    between atoms: C_2  and  C_17
REMARK    2  A    between atoms: C_7  and  C_8
REMARK                            x       y       z     vdW  Elec       q    Type
REMARK                         _______ _______ _______ _____ _____    ______ ____
ROOT
ATOM      1  O   UNL     1       1.365   8.995  18.661  0.00  0.00    +0.000 OA
ATOM      2  C   UNL     1       1.868   8.109  19.339  0.00  0.00    +0.000 C 
ATOM      3  N   UNL     1       1.882   8.030  20.707  0.00  0.00    +0.000 N 
ATOM      4  C   UNL     1       1.259   8.927  21.521  0.00  0.00    +0.000 A 
ATOM      5  N   UNL     1       1.430   9.014  22.821  0.00  0.00    +0.000 NA
ATOM      6  N   UNL     1       0.581  10.003  23.259  0.00  0.00    +0.000 NA
ATOM      7  C   UNL     1      -0.086  10.424  22.202  0.00  0.00    +0.000 A 
ATOM      8  O   UNL     1       0.322   9.800  21.047  0.00  0.00    +0.000 OA
ATOM      9  H   UNL     1       2.482   7.377  21.189  0.00  0.00    +0.000 HD
ENDROOT
BRANCH   2  10
ATOM     10  C   UNL     1       2.630   7.017  18.659  0.00  0.00    +0.000 A 
ATOM     11  C   UNL     1       2.326   5.684  18.963  0.00  0.00    +0.000 A 
ATOM     12  C   UNL     1       2.987   4.645  18.304  0.00  0.00    +0.000 A 
ATOM     13  C   UNL     1       3.961   4.934  17.348  0.00  0.00    +0.000 A 
ATOM     14  C   UNL     1       4.270   6.264  17.049  0.00  0.00    +0.000 A 
ATOM     15  C   UNL     1       3.622   7.306  17.713  0.00  0.00    +0.000 A 
ATOM     16  O   UNL     1       5.206   6.627  16.115  0.00  0.00    +0.000 OA
ATOM     17  C   UNL     1       5.531   5.533  15.248  0.00  0.00    +0.000 C 
ATOM     18  C   UNL     1       5.756   4.258  16.042  0.00  0.00    +0.000 C 
ATOM     19  O   UNL     1       4.566   3.867  16.738  0.00  0.00    +0.000 OA
ENDBRANCH   2  10
BRANCH   7  20
ATOM     20  C   UNL     1      -1.197  11.363  22.097  0.00  0.00    +0.000 A 
ATOM     21  C   UNL     1      -2.087  11.519  23.177  0.00  0.00    +0.000 A 
ATOM     22  C   UNL     1      -3.141  12.435  23.108  0.00  0.00    +0.000 A 
ATOM     23 CL   UNL     1      -4.209  12.615  24.444  0.00  0.00    +0.000 Cl
ATOM     24  C   UNL     1      -3.331  13.211  21.969  0.00  0.00    +0.000 A 
ATOM     25  C   UNL     1      -2.466  13.065  20.887  0.00  0.00    +0.000 A 
ATOM     26  C   UNL     1      -1.407  12.148  20.946  0.00  0.00    +0.000 A 
ATOM     27 CL   UNL     1      -0.375  12.088  19.557  0.00  0.00    +0.000 Cl
ENDBRANCH   7  20
TORSDOF 2
ENDMDL
MODEL 6
REMARK VINA RESULT:      -8.3      1.493      1.897
REMARK  Name = 
REMARK  2 active torsions:
REMARK  status: ('A' for Active; 'I' for Inactive)
REMARK    1  A    between atoms: C_2  and  C_17
REMARK    2  A    between atoms: C_7  and  C_8
REMARK                            x       y       z     vdW  Elec       q    Type
REMARK                         _______ _______ _______ _____ _____    ______ ____
ROOT
ATOM      1  O   UNL     1       2.207   9.005  17.535  0.00  0.00    +0.000 OA
ATOM      2  C   UNL     1       1.778   8.951  18.680  0.00  0.00    +0.000 C 
ATOM      3  N   UNL     1       1.900   7.902  19.553  0.00  0.00    +0.000 N 
ATOM      4  C   UNL     1       2.594   6.764  19.274  0.00  0.00    +0.000 A 
ATOM      5  N   UNL     1       2.552   5.660  19.984  0.00  0.00    +0.000 NA
ATOM      6  N   UNL     1       3.434   4.785  19.394  0.00  0.00    +0.000 NA
ATOM      7  C   UNL     1       3.991   5.431  18.388  0.00  0.00    +0.000 A 
ATOM      8  O   UNL     1       3.475   6.696  18.233  0.00  0.00    +0.000 OA
ATOM      9  H   UNL     1       1.354   7.859  20.401  0.00  0.00    +0.000 HD
ENDROOT
BRANCH   2  10
ATOM     10  C   UNL     1       0.960  10.087  19.204  0.00  0.00    +0.000 A 
ATOM     11  C   UNL     1       0.068   9.854  20.259  0.00  0.00    +0.000 A 
ATOM     12  C   UNL     1      -0.670  10.908  20.801  0.00  0.00    +0.000 A 
ATOM     13  C   UNL     1      -0.528  12.196  20.284  0.00  0.00    +0.000 A 
ATOM     14  C   UNL     1       0.356  12.429  19.226  0.00  0.00    +0.000 A 
ATOM     15  C   UNL     1       1.086  11.378  18.673  0.00  0.00    +0.000 A 
ATOM     16  O   UNL     1       0.557  13.668  18.673  0.00  0.00    +0.000 OA
ATOM     17  C   UNL     1       0.067  14.708  19.528  0.00  0.00    +0.000 C 
ATOM     18  C   UNL     1      -1.315  14.368  20.061  0.00  0.00    +0.000 C 
ATOM     19  O   UNL     1      -1.280  13.183  20.866  0.00  0.00    +0.000 OA
ENDBRANCH   2  10
BRANCH   7  20
ATOM     20  C   UNL     1       5.081   5.041  17.501  0.00  0.00    +0.000 A 
ATOM     21  C   UNL     1       4.804   4.680  16.168  0.00  0.00    +0.000 A 
ATOM     22  C   UNL     1       5.836   4.333  15.292  0.00  0.00    +0.000 A 
ATOM     23 CL   UNL     1       5.474   3.906  13.666  0.00  0.00    +0.000 Cl
ATOM     24  C   UNL     1       7.160   4.337  15.722  0.00  0.00    +0.000 A 
ATOM     25  C   UNL     1       7.453   4.682  17.039  0.00  0.00    +0.000 A 
ATOM     26  C   UNL     1       6.424   5.030  17.925  0.00  0.00    +0.000 A 
ATOM     27 CL   UNL     1       6.917   5.483  19.522  0.00  0.00    +0.000 Cl
ENDBRANCH   7  20
TORSDOF 2
ENDMDL
MODEL 7
REMARK VINA RESULT:      -8.3      2.746      4.282
REMARK  Name = 
REMARK  2 active torsions:
REMARK  status: ('A' for Active; 'I' for Inactive)
REMARK    1  A    between atoms: C_2  and  C_17
REMARK    2  A    between atoms: C_7  and  C_8
REMARK                            x       y       z     vdW  Elec       q    Type
REMARK                         _______ _______ _______ _____ _____    ______ ____
ROOT
ATOM      1  O   UNL     1       1.079   9.727  22.340  0.00  0.00    +0.000 OA
ATOM      2  C   UNL     1       0.423  10.408  21.563  0.00  0.00    +0.000 C 
ATOM      3  N   UNL     1       0.430  10.326  20.195  0.00  0.00    +0.000 N 
ATOM      4  C   UNL     1       1.145   9.401  19.497  0.00  0.00    +0.000 A 
ATOM      5  N   UNL     1       1.353   9.426  18.200  0.00  0.00    +0.000 NA
ATOM      6  N   UNL     1       2.067   8.290  17.898  0.00  0.00    +0.000 NA
ATOM      7  C   UNL     1       2.209   7.623  19.026  0.00  0.00    +0.000 A 
ATOM      8  O   UNL     1       1.670   8.294  20.099  0.00  0.00    +0.000 OA
ATOM      9  H   UNL     1       0.015  11.048  19.624  0.00  0.00    +0.000 HD
ENDROOT
BRANCH   2  10
ATOM     10  C   UNL     1      -0.428  11.511  22.102  0.00  0.00    +0.000 A 
ATOM     11  C   UNL     1      -0.069  12.840  21.839  0.00  0.00    +0.000 A 
ATOM     12  C   UNL     1      -0.875  13.887  22.287  0.00  0.00    +0.000 A 
ATOM     13  C   UNL     1      -2.038  13.614  23.008  0.00  0.00    +0.000 A 
ATOM     14  C   UNL     1      -2.394  12.289  23.278  0.00  0.00    +0.000 A 
ATOM     15  C   UNL     1      -1.586  11.239  22.843  0.00  0.00    +0.000 A 
ATOM     16  O   UNL     1      -3.525  11.940  23.970  0.00  0.00    +0.000 OA
ATOM     17  C   UNL     1      -4.452  13.031  24.040  0.00  0.00    +0.000 C 
ATOM     18  C   UNL     1      -3.745  14.323  24.411  0.00  0.00    +0.000 C 
ATOM     19  O   UNL     1      -2.783  14.689  23.413  0.00  0.00    +0.000 OA
ENDBRANCH   2  10
BRANCH   7  20
ATOM     20  C   UNL     1       2.766   6.299  19.279  0.00  0.00    +0.000 A 
ATOM     21  C   UNL     1       2.143   5.443  20.208  0.00  0.00    +0.000 A 
ATOM     22  C   UNL     1       2.642   4.159  20.443  0.00  0.00    +0.000 A 
ATOM     23 CL   UNL     1       1.859   3.128  21.575  0.00  0.00    +0.000 Cl
ATOM     24  C   UNL     1       3.766   3.701  19.761  0.00  0.00    +0.000 A 
ATOM     25  C   UNL     1       4.400   4.536  18.845  0.00  0.00    +0.000 A 
ATOM     26  C   UNL     1       3.908   5.826  18.604  0.00  0.00    +0.000 A 
ATOM     27 CL   UNL     1       4.756   6.752  17.411  0.00  0.00    +0.000 Cl
ENDBRANCH   7  20
TORSDOF 2
ENDMDL
MODEL 8
REMARK VINA RESULT:      -8.2      2.615      3.710
REMARK  Name = 
REMARK  2 active torsions:
REMARK  status: ('A' for Active; 'I' for Inactive)
REMARK    1  A    between atoms: C_2  and  C_17
REMARK    2  A    between atoms: C_7  and  C_8
REMARK                            x       y       z     vdW  Elec       q    Type
REMARK                         _______ _______ _______ _____ _____    ______ ____
ROOT
ATOM      1  O   UNL     1       1.162   9.052  21.652  0.00  0.00    +0.000 OA
ATOM      2  C   UNL     1       0.747   9.973  20.961  0.00  0.00    +0.000 C 
ATOM      3  N   UNL     1       0.968  10.159  19.622  0.00  0.00    +0.000 N 
ATOM      4  C   UNL     1       1.651   9.277  18.840  0.00  0.00    +0.000 A 
ATOM      5  N   UNL     1       2.072   9.517  17.619  0.00  0.00    +0.000 NA
ATOM      6  N   UNL     1       2.658   8.355  17.175  0.00  0.00    +0.000 NA
ATOM      7  C   UNL     1       2.516   7.467  18.138  0.00  0.00    +0.000 A 
ATOM      8  O   UNL     1       1.907   8.000  19.250  0.00  0.00    +0.000 OA
ATOM      9  H   UNL     1       0.759  11.038  19.172  0.00  0.00    +0.000 HD
ENDROOT
BRANCH   2  10
ATOM     10  C   UNL     1      -0.018  11.081  21.611  0.00  0.00    +0.000 A 
ATOM     11  C   UNL     1       0.372  12.406  21.377  0.00  0.00    +0.000 A 
ATOM     12  C   UNL     1      -0.356  13.461  21.929  0.00  0.00    +0.000 A 
ATOM     13  C   UNL     1      -1.471  13.197  22.726  0.00  0.00    +0.000 A 
ATOM     14  C   UNL     1      -1.857  11.875  22.966  0.00  0.00    +0.000 A 
ATOM     15  C   UNL     1      -1.126  10.817  22.427  0.00  0.00    +0.000 A 
ATOM     16  O   UNL     1      -2.946  11.536  23.728  0.00  0.00    +0.000 OA
ATOM     17  C   UNL     1      -3.821  12.655  23.915  0.00  0.00    +0.000 C 
ATOM     18  C   UNL     1      -3.038  13.903  24.284  0.00  0.00    +0.000 C 
ATOM     19  O   UNL     1      -2.141  14.279  23.232  0.00  0.00    +0.000 OA
ENDBRANCH   2  10
BRANCH   7  20
ATOM     20  C   UNL     1       2.831   6.044  18.168  0.00  0.00    +0.000 A 
ATOM     21  C   UNL     1       1.821   5.109  18.470  0.00  0.00    +0.000 A 
ATOM     22  C   UNL     1       2.094   3.739  18.474  0.00  0.00    +0.000 A 
ATOM     23 CL   UNL     1       0.842   2.616  18.836  0.00  0.00    +0.000 Cl
ATOM     24  C   UNL     1       3.370   3.270  18.178  0.00  0.00    +0.000 A 
ATOM     25  C   UNL     1       4.384   4.179  17.885  0.00  0.00    +0.000 A 
ATOM     26  C   UNL     1       4.121   5.556  17.881  0.00  0.00    +0.000 A 
ATOM     27 CL   UNL     1       5.450   6.582  17.458  0.00  0.00    +0.000 Cl
ENDBRANCH   7  20
TORSDOF 2
ENDMDL
MODEL 9
REMARK VINA RESULT:      -8.2      4.389      9.149
REMARK  Name = 
REMARK  2 active torsions:
REMARK  status: ('A' for Active; 'I' for Inactive)
REMARK    1  A    between atoms: C_2  and  C_17
REMARK    2  A    between atoms: C_7  and  C_8
REMARK                            x       y       z     vdW  Elec       q    Type
REMARK                         _______ _______ _______ _____ _____    ______ ____
ROOT
ATOM      1  O   UNL     1       1.746   8.382  17.019  0.00  0.00    +0.000 OA
ATOM      2  C   UNL     1       2.186   8.101  18.125  0.00  0.00    +0.000 C 
ATOM      3  N   UNL     1       1.783   8.626  19.326  0.00  0.00    +0.000 N 
ATOM      4  C   UNL     1       0.758   9.514  19.455  0.00  0.00    +0.000 A 
ATOM      5  N   UNL     1       0.486  10.201  20.541  0.00  0.00    +0.000 NA
ATOM      6  N   UNL     1      -0.649  10.928  20.266  0.00  0.00    +0.000 NA
ATOM      7  C   UNL     1      -1.021  10.602  19.044  0.00  0.00    +0.000 A 
ATOM      8  O   UNL     1      -0.144   9.723  18.452  0.00  0.00    +0.000 OA
ATOM      9  H   UNL     1       2.324   8.490  20.166  0.00  0.00    +0.000 HD
ENDROOT
BRANCH   2  10
ATOM     10  C   UNL     1       3.338   7.155  18.232  0.00  0.00    +0.000 A 
ATOM     11  C   UNL     1       3.381   6.251  19.302  0.00  0.00    +0.000 A 
ATOM     12  C   UNL     1       4.419   5.322  19.396  0.00  0.00    +0.000 A 
ATOM     13  C   UNL     1       5.424   5.300  18.429  0.00  0.00    +0.000 A 
ATOM     14  C   UNL     1       5.387   6.206  17.365  0.00  0.00    +0.000 A 
ATOM     15  C   UNL     1       4.359   7.144  17.272  0.00  0.00    +0.000 A 
ATOM     16  O   UNL     1       6.331   6.238  16.371  0.00  0.00    +0.000 OA
ATOM     17  C   UNL     1       7.106   5.033  16.347  0.00  0.00    +0.000 C 
ATOM     18  C   UNL     1       7.542   4.639  17.748  0.00  0.00    +0.000 C 
ATOM     19  O   UNL     1       6.409   4.361  18.581  0.00  0.00    +0.000 OA
ENDBRANCH   2  10
BRANCH   7  20
ATOM     20  C   UNL     1      -2.215  10.964  18.290  0.00  0.00    +0.000 A 
ATOM     21  C   UNL     1      -2.388  10.480  16.978  0.00  0.00    +0.000 A 
ATOM     22  C   UNL     1      -3.539  10.790  16.249  0.00  0.00    +0.000 A 
ATOM     23 CL   UNL     1      -3.733  10.179  14.653  0.00  0.00    +0.000 Cl
ATOM     24  C   UNL     1      -4.537  11.585  16.804  0.00  0.00    +0.000 A 
ATOM     25  C   UNL     1      -4.379  12.080  18.097  0.00  0.00    +0.000 A 
ATOM     26  C   UNL     1      -3.228  11.776  18.836  0.00  0.00    +0.000 A 
ATOM     27 CL   UNL     1      -3.167  12.413  20.445  0.00  0.00    +0.000 Cl
ENDBRANCH   7  20
TORSDOF 2
ENDMDL
