MODEL 1
REMARK VINA RESULT:      -8.6      0.000      0.000
REMARK  Name = 
REMARK  5 active torsions:
REMARK  status: ('A' for Active; 'I' for Inactive)
REMARK    1  A    between atoms: C_1  and  C_2
REMARK    2  A    between atoms: N_4  and  C_5
REMARK    3  A    between atoms: C_10  and  C_11
REMARK    4  A    between atoms: N_13  and  C_14
REMARK    5  A    between atoms: C_18  and  C_19
REMARK                            x       y       z     vdW  Elec       q    Type
REMARK                         _______ _______ _______ _____ _____    ______ ____
ROOT
ATOM      1  C   UNL     1       4.681   3.996  18.565  0.00  0.00    +0.000 C 
ATOM      2  O   UNL     1       5.783   4.051  19.105  0.00  0.00    +0.000 OA
ATOM      3  N   UNL     1       4.441   4.121  17.196  0.00  0.00    +0.000 N 
ATOM      4  H   UNL     1       3.488   4.050  16.867  0.00  0.00    +0.000 HD
ENDROOT
BRANCH   1  10
ATOM      5  C   UNL     1       2.384   4.686  19.425  0.00  0.00    +0.000 A 
ATOM      6  C   UNL     1       1.263   4.391  20.218  0.00  0.00    +0.000 A 
ATOM      7  C   UNL     1       1.242   3.289  21.071  0.00  0.00    +0.000 A 
ATOM      8  C   UNL     1       2.347   2.456  21.153  0.00  0.00    +0.000 A 
ATOM      9  C   UNL     1       3.462   2.704  20.350  0.00  0.00    +0.000 A 
ATOM     10  C   UNL     1       3.483   3.787  19.450  0.00  0.00    +0.000 A 
BRANCH   5  14
ATOM     11  C   UNL     1       2.157   8.163  17.921  0.00  0.00    +0.000 C 
ATOM     12  C   UNL     1       2.277   7.157  19.037  0.00  0.00    +0.000 C 
ATOM     13  O   UNL     1       2.272   7.545  20.202  0.00  0.00    +0.000 OA
ATOM     14  N   UNL     1       2.391   5.850  18.602  0.00  0.00    +0.000 N 
ATOM     15  H   UNL     1       2.715   5.698  17.640  0.00  0.00    +0.000 HD
ENDBRANCH   5  14
ENDBRANCH   1  10
BRANCH   3  16
ATOM     16  C   UNL     1       5.409   4.332  16.181  0.00  0.00    +0.000 A 
ATOM     17  C   UNL     1       6.622   4.978  16.411  0.00  0.00    +0.000 A 
ATOM     18  C   UNL     1       7.546   5.155  15.381  0.00  0.00    +0.000 A 
ATOM     19  C   UNL     1       7.275   4.679  14.104  0.00  0.00    +0.000 A 
ATOM     20  C   UNL     1       6.064   4.031  13.835  0.00  0.00    +0.000 A 
ATOM     21  C   UNL     1       5.125   3.877  14.880  0.00  0.00    +0.000 A 
BRANCH  20  22
ATOM     22  C   UNL     1       5.779   3.494  12.452  0.00  0.00    +0.000 C 
ATOM     23  F   UNL     1       4.506   3.732  12.026  0.00  0.00    +0.000 F 
ATOM     24  F   UNL     1       6.594   4.036  11.506  0.00  0.00    +0.000 F 
ATOM     25  F   UNL     1       5.952   2.146  12.367  0.00  0.00    +0.000 F 
ENDBRANCH  20  22
ENDBRANCH   3  16
TORSDOF 4
ENDMDL
MODEL 2
REMARK VINA RESULT:      -8.6      4.815      7.855
REMARK  Name = 
REMARK  5 active torsions:
REMARK  status: ('A' for Active; 'I' for Inactive)
REMARK    1  A    between atoms: C_1  and  C_2
REMARK    2  A    between atoms: N_4  and  C_5
REMARK    3  A    between atoms: C_10  and  C_11
REMARK    4  A    between atoms: N_13  and  C_14
REMARK    5  A    between atoms: C_18  and  C_19
REMARK                            x       y       z     vdW  Elec       q    Type
REMARK                         _______ _______ _______ _____ _____    ______ ____
ROOT
ATOM      1  C   UNL     1       2.591   7.484  18.454  0.00  0.00    +0.000 C 
ATOM      2  O   UNL     1       2.340   7.283  19.640  0.00  0.00    +0.000 OA
ATOM      3  N   UNL     1       2.021   8.482  17.662  0.00  0.00    +0.000 N 
ATOM      4  H   UNL     1       2.314   8.555  16.698  0.00  0.00    +0.000 HD
ENDROOT
BRANCH   1  10
ATOM      5  C   UNL     1       3.626   5.186  18.083  0.00  0.00    +0.000 A 
ATOM      6  C   UNL     1       4.528   4.379  17.371  0.00  0.00    +0.000 A 
ATOM      7  C   UNL     1       5.423   4.921  16.450  0.00  0.00    +0.000 A 
ATOM      8  C   UNL     1       5.438   6.288  16.223  0.00  0.00    +0.000 A 
ATOM      9  C   UNL     1       4.529   7.111  16.890  0.00  0.00    +0.000 A 
ATOM     10  C   UNL     1       3.587   6.574  17.790  0.00  0.00    +0.000 A 
BRANCH   5  14
ATOM     11  C   UNL     1       0.802   3.574  20.040  0.00  0.00    +0.000 C 
ATOM     12  C   UNL     1       1.578   3.937  18.800  0.00  0.00    +0.000 C 
ATOM     13  O   UNL     1       1.133   3.626  17.698  0.00  0.00    +0.000 OA
ATOM     14  N   UNL     1       2.760   4.604  19.055  0.00  0.00    +0.000 N 
ATOM     15  H   UNL     1       3.168   4.503  19.993  0.00  0.00    +0.000 HD
ENDBRANCH   5  14
ENDBRANCH   1  10
BRANCH   3  16
ATOM     16  C   UNL     1       1.058   9.441  18.068  0.00  0.00    +0.000 A 
ATOM     17  C   UNL     1       1.349  10.487  18.942  0.00  0.00    +0.000 A 
ATOM     18  C   UNL     1       0.369  11.411  19.306  0.00  0.00    +0.000 A 
ATOM     19  C   UNL     1      -0.918  11.309  18.791  0.00  0.00    +0.000 A 
ATOM     20  C   UNL     1      -1.248  10.268  17.915  0.00  0.00    +0.000 A 
ATOM     21  C   UNL     1      -0.254   9.324  17.572  0.00  0.00    +0.000 A 
BRANCH  20  22
ATOM     22  C   UNL     1      -2.641  10.170  17.340  0.00  0.00    +0.000 C 
ATOM     23  F   UNL     1      -2.662   9.841  16.017  0.00  0.00    +0.000 F 
ATOM     24  F   UNL     1      -3.399   9.230  17.968  0.00  0.00    +0.000 F 
ATOM     25  F   UNL     1      -3.333  11.338  17.442  0.00  0.00    +0.000 F 
ENDBRANCH  20  22
ENDBRANCH   3  16
TORSDOF 4
ENDMDL
MODEL 3
REMARK VINA RESULT:      -8.6      3.744      6.972
REMARK  Name = 
REMARK  5 active torsions:
REMARK  status: ('A' for Active; 'I' for Inactive)
REMARK    1  A    between atoms: C_1  and  C_2
REMARK    2  A    between atoms: N_4  and  C_5
REMARK    3  A    between atoms: C_10  and  C_11
REMARK    4  A    between atoms: N_13  and  C_14
REMARK    5  A    between atoms: C_18  and  C_19
REMARK                            x       y       z     vdW  Elec       q    Type
REMARK                         _______ _______ _______ _____ _____    ______ ____
ROOT
ATOM      1  C   UNL     1       4.850   4.160  16.478  0.00  0.00    +0.000 C 
ATOM      2  O   UNL     1       4.867   3.061  17.026  0.00  0.00    +0.000 OA
ATOM      3  N   UNL     1       4.139   5.277  16.919  0.00  0.00    +0.000 N 
ATOM      4  H   UNL     1       4.210   6.132  16.386  0.00  0.00    +0.000 HD
ENDROOT
BRANCH   1  10
ATOM      5  C   UNL     1       6.784   5.178  15.167  0.00  0.00    +0.000 A 
ATOM      6  C   UNL     1       7.536   5.223  13.982  0.00  0.00    +0.000 A 
ATOM      7  C   UNL     1       7.156   4.508  12.848  0.00  0.00    +0.000 A 
ATOM      8  C   UNL     1       6.007   3.731  12.873  0.00  0.00    +0.000 A 
ATOM      9  C   UNL     1       5.259   3.640  14.048  0.00  0.00    +0.000 A 
ATOM     10  C   UNL     1       5.654   4.320  15.216  0.00  0.00    +0.000 A 
BRANCH   5  14
ATOM     11  C   UNL     1       7.847   6.545  18.545  0.00  0.00    +0.000 C 
ATOM     12  C   UNL     1       7.676   5.485  17.486  0.00  0.00    +0.000 C 
ATOM     13  O   UNL     1       7.983   4.323  17.741  0.00  0.00    +0.000 OA
ATOM     14  N   UNL     1       7.174   5.964  16.291  0.00  0.00    +0.000 N 
ATOM     15  H   UNL     1       7.277   6.968  16.103  0.00  0.00    +0.000 HD
ENDBRANCH   5  14
ENDBRANCH   1  10
BRANCH   3  16
ATOM     16  C   UNL     1       3.311   5.356  18.068  0.00  0.00    +0.000 A 
ATOM     17  C   UNL     1       3.064   6.548  18.746  0.00  0.00    +0.000 A 
ATOM     18  C   UNL     1       2.235   6.577  19.868  0.00  0.00    +0.000 A 
ATOM     19  C   UNL     1       1.631   5.412  20.324  0.00  0.00    +0.000 A 
ATOM     20  C   UNL     1       1.862   4.194  19.672  0.00  0.00    +0.000 A 
ATOM     21  C   UNL     1       2.722   4.173  18.551  0.00  0.00    +0.000 A 
BRANCH  20  22
ATOM     22  C   UNL     1       1.188   2.932  20.156  0.00  0.00    +0.000 C 
ATOM     23  F   UNL     1       0.023   2.653  19.505  0.00  0.00    +0.000 F 
ATOM     24  F   UNL     1       1.972   1.831  20.001  0.00  0.00    +0.000 F 
ATOM     25  F   UNL     1       0.870   2.982  21.479  0.00  0.00    +0.000 F 
ENDBRANCH  20  22
ENDBRANCH   3  16
TORSDOF 4
ENDMDL
MODEL 4
REMARK VINA RESULT:      -8.5      3.815      6.941
REMARK  Name = 
REMARK  5 active torsions:
REMARK  status: ('A' for Active; 'I' for Inactive)
REMARK    1  A    between atoms: C_1  and  C_2
REMARK    2  A    between atoms: N_4  and  C_5
REMARK    3  A    between atoms: C_10  and  C_11
REMARK    4  A    between atoms: N_13  and  C_14
REMARK    5  A    between atoms: C_18  and  C_19
REMARK                            x       y       z     vdW  Elec       q    Type
REMARK                         _______ _______ _______ _____ _____    ______ ____
ROOT
ATOM      1  C   UNL     1       5.212   4.493  16.917  0.00  0.00    +0.000 C 
ATOM      2  O   UNL     1       5.794   3.880  17.809  0.00  0.00    +0.000 OA
ATOM      3  N   UNL     1       3.994   5.161  17.052  0.00  0.00    +0.000 N 
ATOM      4  H   UNL     1       3.616   5.638  16.246  0.00  0.00    +0.000 HD
ENDROOT
BRANCH   1  10
ATOM      5  C   UNL     1       7.035   5.276  15.318  0.00  0.00    +0.000 A 
ATOM      6  C   UNL     1       7.630   5.197  14.048  0.00  0.00    +0.000 A 
ATOM      7  C   UNL     1       7.051   4.462  13.015  0.00  0.00    +0.000 A 
ATOM      8  C   UNL     1       5.858   3.790  13.228  0.00  0.00    +0.000 A 
ATOM      9  C   UNL     1       5.262   3.821  14.491  0.00  0.00    +0.000 A 
ATOM     10  C   UNL     1       5.857   4.521  15.558  0.00  0.00    +0.000 A 
BRANCH   5  14
ATOM     11  C   UNL     1       7.994   7.926  17.860  0.00  0.00    +0.000 C 
ATOM     12  C   UNL     1       7.063   7.191  16.930  0.00  0.00    +0.000 C 
ATOM     13  O   UNL     1       5.917   7.606  16.772  0.00  0.00    +0.000 OA
ATOM     14  N   UNL     1       7.627   6.079  16.336  0.00  0.00    +0.000 N 
ATOM     15  H   UNL     1       8.446   5.661  16.795  0.00  0.00    +0.000 HD
ENDBRANCH   5  14
ENDBRANCH   1  10
BRANCH   3  16
ATOM     16  C   UNL     1       3.206   5.258  18.227  0.00  0.00    +0.000 A 
ATOM     17  C   UNL     1       2.993   6.459  18.902  0.00  0.00    +0.000 A 
ATOM     18  C   UNL     1       2.202   6.506  20.050  0.00  0.00    +0.000 A 
ATOM     19  C   UNL     1       1.601   5.351  20.536  0.00  0.00    +0.000 A 
ATOM     20  C   UNL     1       1.798   4.126  19.888  0.00  0.00    +0.000 A 
ATOM     21  C   UNL     1       2.620   4.086  18.739  0.00  0.00    +0.000 A 
BRANCH  20  22
ATOM     22  C   UNL     1       1.127   2.875  20.405  0.00  0.00    +0.000 C 
ATOM     23  F   UNL     1       1.826   1.734  20.144  0.00  0.00    +0.000 F 
ATOM     24  F   UNL     1       0.948   2.900  21.754  0.00  0.00    +0.000 F 
ATOM     25  F   UNL     1      -0.110   2.683  19.867  0.00  0.00    +0.000 F 
ENDBRANCH  20  22
ENDBRANCH   3  16
TORSDOF 4
ENDMDL
MODEL 5
REMARK VINA RESULT:      -8.5      3.938      7.068
REMARK  Name = 
REMARK  5 active torsions:
REMARK  status: ('A' for Active; 'I' for Inactive)
REMARK    1  A    between atoms: C_1  and  C_2
REMARK    2  A    between atoms: N_4  and  C_5
REMARK    3  A    between atoms: C_10  and  C_11
REMARK    4  A    between atoms: N_13  and  C_14
REMARK    5  A    between atoms: C_18  and  C_19
REMARK                            x       y       z     vdW  Elec       q    Type
REMARK                         _______ _______ _______ _____ _____    ______ ____
ROOT
ATOM      1  C   UNL     1       5.279   3.877  16.332  0.00  0.00    +0.000 C 
ATOM      2  O   UNL     1       5.995   3.780  17.325  0.00  0.00    +0.000 OA
ATOM      3  N   UNL     1       3.889   3.755  16.319  0.00  0.00    +0.000 N 
ATOM      4  H   UNL     1       3.406   3.863  15.438  0.00  0.00    +0.000 HD
ENDROOT
BRANCH   1  10
ATOM      5  C   UNL     1       7.043   5.040  14.908  0.00  0.00    +0.000 A 
ATOM      6  C   UNL     1       7.676   5.179  13.662  0.00  0.00    +0.000 A 
ATOM      7  C   UNL     1       7.211   4.514  12.529  0.00  0.00    +0.000 A 
ATOM      8  C   UNL     1       6.097   3.694  12.615  0.00  0.00    +0.000 A 
ATOM      9  C   UNL     1       5.469   3.509  13.848  0.00  0.00    +0.000 A 
ATOM     10  C   UNL     1       5.952   4.138  15.012  0.00  0.00    +0.000 A 
BRANCH   5  14
ATOM     11  C   UNL     1       7.696   7.521  17.704  0.00  0.00    +0.000 C 
ATOM     12  C   UNL     1       6.878   6.848  16.632  0.00  0.00    +0.000 C 
ATOM     13  O   UNL     1       5.755   7.273  16.374  0.00  0.00    +0.000 OA
ATOM     14  N   UNL     1       7.513   5.776  16.035  0.00  0.00    +0.000 N 
ATOM     15  H   UNL     1       8.278   5.329  16.555  0.00  0.00    +0.000 HD
ENDBRANCH   5  14
ENDBRANCH   1  10
BRANCH   3  16
ATOM     16  C   UNL     1       3.049   3.500  17.433  0.00  0.00    +0.000 A 
ATOM     17  C   UNL     1       2.407   2.280  17.637  0.00  0.00    +0.000 A 
ATOM     18  C   UNL     1       1.596   2.074  18.754  0.00  0.00    +0.000 A 
ATOM     19  C   UNL     1       1.424   3.084  19.692  0.00  0.00    +0.000 A 
ATOM     20  C   UNL     1       2.049   4.324  19.517  0.00  0.00    +0.000 A 
ATOM     21  C   UNL     1       2.848   4.530  18.370  0.00  0.00    +0.000 A 
BRANCH  20  22
ATOM     22  C   UNL     1       1.878   5.414  20.548  0.00  0.00    +0.000 C 
ATOM     23  F   UNL     1       2.465   6.594  20.198  0.00  0.00    +0.000 F 
ATOM     24  F   UNL     1       0.570   5.708  20.784  0.00  0.00    +0.000 F 
ATOM     25  F   UNL     1       2.410   5.080  21.757  0.00  0.00    +0.000 F 
ENDBRANCH  20  22
ENDBRANCH   3  16
TORSDOF 4
ENDMDL
MODEL 6
REMARK VINA RESULT:      -8.5      5.387      8.283
REMARK  Name = 
REMARK  5 active torsions:
REMARK  status: ('A' for Active; 'I' for Inactive)
REMARK    1  A    between atoms: C_1  and  C_2
REMARK    2  A    between atoms: N_4  and  C_5
REMARK    3  A    between atoms: C_10  and  C_11
REMARK    4  A    between atoms: N_13  and  C_14
REMARK    5  A    between atoms: C_18  and  C_19
REMARK                            x       y       z     vdW  Elec       q    Type
REMARK                         _______ _______ _______ _____ _____    ______ ____
ROOT
ATOM      1  C   UNL     1       2.780   7.057  18.693  0.00  0.00    +0.000 C 
ATOM      2  O   UNL     1       2.662   6.668  19.852  0.00  0.00    +0.000 OA
ATOM      3  N   UNL     1       2.158   8.180  18.146  0.00  0.00    +0.000 N 
ATOM      4  H   UNL     1       2.338   8.404  17.177  0.00  0.00    +0.000 HD
ENDROOT
BRANCH   1  10
ATOM      5  C   UNL     1       3.646   4.832  17.803  0.00  0.00    +0.000 A 
ATOM      6  C   UNL     1       4.433   4.140  16.868  0.00  0.00    +0.000 A 
ATOM      7  C   UNL     1       5.268   4.812  15.977  0.00  0.00    +0.000 A 
ATOM      8  C   UNL     1       5.339   6.196  16.005  0.00  0.00    +0.000 A 
ATOM      9  C   UNL     1       4.542   6.912  16.900  0.00  0.00    +0.000 A 
ATOM     10  C   UNL     1       3.659   6.251  17.776  0.00  0.00    +0.000 A 
BRANCH   5  14
ATOM     11  C   UNL     1       0.902   3.079  19.752  0.00  0.00    +0.000 C 
ATOM     12  C   UNL     1       1.548   3.674  18.527  0.00  0.00    +0.000 C 
ATOM     13  O   UNL     1       0.915   3.725  17.475  0.00  0.00    +0.000 OA
ATOM     14  N   UNL     1       2.843   4.111  18.734  0.00  0.00    +0.000 N 
ATOM     15  H   UNL     1       3.354   3.715  19.532  0.00  0.00    +0.000 HD
ENDBRANCH   5  14
ENDBRANCH   1  10
BRANCH   3  16
ATOM     16  C   UNL     1       1.283   9.075  18.813  0.00  0.00    +0.000 A 
ATOM     17  C   UNL     1       0.588  10.089  18.157  0.00  0.00    +0.000 A 
ATOM     18  C   UNL     1      -0.268  10.940  18.856  0.00  0.00    +0.000 A 
ATOM     19  C   UNL     1      -0.450  10.783  20.225  0.00  0.00    +0.000 A 
ATOM     20  C   UNL     1       0.237   9.780  20.918  0.00  0.00    +0.000 A 
ATOM     21  C   UNL     1       1.119   8.938  20.204  0.00  0.00    +0.000 A 
BRANCH  20  22
ATOM     22  C   UNL     1       0.022   9.596  22.402  0.00  0.00    +0.000 C 
ATOM     23  F   UNL     1       1.157   9.266  23.081  0.00  0.00    +0.000 F 
ATOM     24  F   UNL     1      -0.455  10.721  23.002  0.00  0.00    +0.000 F 
ATOM     25  F   UNL     1      -0.878   8.613  22.683  0.00  0.00    +0.000 F 
ENDBRANCH  20  22
ENDBRANCH   3  16
TORSDOF 4
ENDMDL
MODEL 7
REMARK VINA RESULT:      -8.5      1.888      3.647
REMARK  Name = 
REMARK  5 active torsions:
REMARK  status: ('A' for Active; 'I' for Inactive)
REMARK    1  A    between atoms: C_1  and  C_2
REMARK    2  A    between atoms: N_4  and  C_5
REMARK    3  A    between atoms: C_10  and  C_11
REMARK    4  A    between atoms: N_13  and  C_14
REMARK    5  A    between atoms: C_18  and  C_19
REMARK                            x       y       z     vdW  Elec       q    Type
REMARK                         _______ _______ _______ _____ _____    ______ ____
ROOT
ATOM      1  C   UNL     1       3.258   6.283  18.223  0.00  0.00    +0.000 C 
ATOM      2  O   UNL     1       2.711   5.307  17.716  0.00  0.00    +0.000 OA
ATOM      3  N   UNL     1       4.622   6.571  18.166  0.00  0.00    +0.000 N 
ATOM      4  H   UNL     1       4.955   7.412  18.616  0.00  0.00    +0.000 HD
ENDROOT
BRANCH   1  10
ATOM      5  C   UNL     1       1.962   6.974  20.305  0.00  0.00    +0.000 A 
ATOM      6  C   UNL     1       1.219   7.954  20.983  0.00  0.00    +0.000 A 
ATOM      7  C   UNL     1       0.837   9.141  20.362  0.00  0.00    +0.000 A 
ATOM      8  C   UNL     1       1.189   9.376  19.042  0.00  0.00    +0.000 A 
ATOM      9  C   UNL     1       1.957   8.436  18.353  0.00  0.00    +0.000 A 
ATOM     10  C   UNL     1       2.390   7.251  18.980  0.00  0.00    +0.000 A 
BRANCH   5  14
ATOM     11  C   UNL     1       2.090   3.482  21.785  0.00  0.00    +0.000 C 
ATOM     12  C   UNL     1       1.591   4.560  20.858  0.00  0.00    +0.000 C 
ATOM     13  O   UNL     1       0.646   4.324  20.110  0.00  0.00    +0.000 OA
ATOM     14  N   UNL     1       2.291   5.748  20.954  0.00  0.00    +0.000 N 
ATOM     15  H   UNL     1       3.236   5.710  21.353  0.00  0.00    +0.000 HD
ENDBRANCH   5  14
ENDBRANCH   1  10
BRANCH   3  16
ATOM     16  C   UNL     1       5.625   5.801  17.522  0.00  0.00    +0.000 A 
ATOM     17  C   UNL     1       6.760   5.330  18.179  0.00  0.00    +0.000 A 
ATOM     18  C   UNL     1       7.715   4.569  17.504  0.00  0.00    +0.000 A 
ATOM     19  C   UNL     1       7.544   4.259  16.161  0.00  0.00    +0.000 A 
ATOM     20  C   UNL     1       6.419   4.720  15.467  0.00  0.00    +0.000 A 
ATOM     21  C   UNL     1       5.470   5.510  16.154  0.00  0.00    +0.000 A 
BRANCH  20  22
ATOM     22  C   UNL     1       6.224   4.364  14.012  0.00  0.00    +0.000 C 
ATOM     23  F   UNL     1       7.074   5.018  13.171  0.00  0.00    +0.000 F 
ATOM     24  F   UNL     1       6.412   3.037  13.772  0.00  0.00    +0.000 F 
ATOM     25  F   UNL     1       4.969   4.649  13.567  0.00  0.00    +0.000 F 
ENDBRANCH  20  22
ENDBRANCH   3  16
TORSDOF 4
ENDMDL
MODEL 8
REMARK VINA RESULT:      -8.4      0.823      1.145
REMARK  Name = 
REMARK  5 active torsions:
REMARK  status: ('A' for Active; 'I' for Inactive)
REMARK    1  A    between atoms: C_1  and  C_2
REMARK    2  A    between atoms: N_4  and  C_5
REMARK    3  A    between atoms: C_10  and  C_11
REMARK    4  A    between atoms: N_13  and  C_14
REMARK    5  A    between atoms: C_18  and  C_19
REMARK                            x       y       z     vdW  Elec       q    Type
REMARK                         _______ _______ _______ _____ _____    ______ ____
ROOT
ATOM      1  C   UNL     1       4.915   4.134  18.817  0.00  0.00    +0.000 C 
ATOM      2  O   UNL     1       6.019   4.374  19.299  0.00  0.00    +0.000 OA
ATOM      3  N   UNL     1       4.611   4.116  17.455  0.00  0.00    +0.000 N 
ATOM      4  H   UNL     1       3.664   3.898  17.177  0.00  0.00    +0.000 HD
ENDROOT
BRANCH   1  10
ATOM      5  C   UNL     1       2.840   4.847  20.113  0.00  0.00    +0.000 A 
ATOM      6  C   UNL     1       1.768   4.492  20.946  0.00  0.00    +0.000 A 
ATOM      7  C   UNL     1       1.660   3.215  21.493  0.00  0.00    +0.000 A 
ATOM      8  C   UNL     1       2.629   2.261  21.221  0.00  0.00    +0.000 A 
ATOM      9  C   UNL     1       3.688   2.575  20.367  0.00  0.00    +0.000 A 
ATOM     10  C   UNL     1       3.787   3.847  19.770  0.00  0.00    +0.000 A 
BRANCH   5  14
ATOM     11  C   UNL     1       2.913   8.043  18.067  0.00  0.00    +0.000 C 
ATOM     12  C   UNL     1       2.521   6.621  18.374  0.00  0.00    +0.000 C 
ATOM     13  O   UNL     1       1.876   5.981  17.547  0.00  0.00    +0.000 OA
ATOM     14  N   UNL     1       2.946   6.178  19.612  0.00  0.00    +0.000 N 
ATOM     15  H   UNL     1       3.169   6.890  20.319  0.00  0.00    +0.000 HD
ENDBRANCH   5  14
ENDBRANCH   1  10
BRANCH   3  16
ATOM     16  C   UNL     1       5.504   4.367  16.382  0.00  0.00    +0.000 A 
ATOM     17  C   UNL     1       6.693   5.078  16.534  0.00  0.00    +0.000 A 
ATOM     18  C   UNL     1       7.545   5.292  15.450  0.00  0.00    +0.000 A 
ATOM     19  C   UNL     1       7.224   4.787  14.196  0.00  0.00    +0.000 A 
ATOM     20  C   UNL     1       6.035   4.073  14.004  0.00  0.00    +0.000 A 
ATOM     21  C   UNL     1       5.169   3.883  15.104  0.00  0.00    +0.000 A 
BRANCH  20  22
ATOM     22  C   UNL     1       5.699   3.506  12.645  0.00  0.00    +0.000 C 
ATOM     23  F   UNL     1       5.907   2.162  12.548  0.00  0.00    +0.000 F 
ATOM     24  F   UNL     1       4.395   3.704  12.307  0.00  0.00    +0.000 F 
ATOM     25  F   UNL     1       6.433   4.069  11.646  0.00  0.00    +0.000 F 
ENDBRANCH  20  22
ENDBRANCH   3  16
TORSDOF 4
ENDMDL
MODEL 9
REMARK VINA RESULT:      -8.4      3.863      6.980
REMARK  Name = 
REMARK  5 active torsions:
REMARK  status: ('A' for Active; 'I' for Inactive)
REMARK    1  A    between atoms: C_1  and  C_2
REMARK    2  A    between atoms: N_4  and  C_5
REMARK    3  A    between atoms: C_10  and  C_11
REMARK    4  A    between atoms: N_13  and  C_14
REMARK    5  A    between atoms: C_18  and  C_19
REMARK                            x       y       z     vdW  Elec       q    Type
REMARK                         _______ _______ _______ _____ _____    ______ ____
ROOT
ATOM      1  C   UNL     1       4.715   4.086  16.650  0.00  0.00    +0.000 C 
ATOM      2  O   UNL     1       4.542   2.940  17.056  0.00  0.00    +0.000 OA
ATOM      3  N   UNL     1       4.194   5.242  17.236  0.00  0.00    +0.000 N 
ATOM      4  H   UNL     1       4.412   6.133  16.814  0.00  0.00    +0.000 HD
ENDROOT
BRANCH   1  10
ATOM      5  C   UNL     1       6.842   4.846  15.472  0.00  0.00    +0.000 A 
ATOM      6  C   UNL     1       7.597   4.916  14.290  0.00  0.00    +0.000 A 
ATOM      7  C   UNL     1       7.077   4.502  13.065  0.00  0.00    +0.000 A 
ATOM      8  C   UNL     1       5.783   4.010  12.994  0.00  0.00    +0.000 A 
ATOM      9  C   UNL     1       5.020   3.896  14.158  0.00  0.00    +0.000 A 
ATOM     10  C   UNL     1       5.547   4.268  15.410  0.00  0.00    +0.000 A 
BRANCH   5  14
ATOM     11  C   UNL     1       8.026   6.853  18.468  0.00  0.00    +0.000 C 
ATOM     12  C   UNL     1       7.192   6.582  17.242  0.00  0.00    +0.000 C 
ATOM     13  O   UNL     1       6.426   7.450  16.829  0.00  0.00    +0.000 OA
ATOM     14  N   UNL     1       7.387   5.327  16.698  0.00  0.00    +0.000 N 
ATOM     15  H   UNL     1       7.781   4.602  17.310  0.00  0.00    +0.000 HD
ENDBRANCH   5  14
ENDBRANCH   1  10
BRANCH   3  16
ATOM     16  C   UNL     1       3.379   5.312  18.395  0.00  0.00    +0.000 A 
ATOM     17  C   UNL     1       2.869   6.509  18.893  0.00  0.00    +0.000 A 
ATOM     18  C   UNL     1       2.064   6.526  20.033  0.00  0.00    +0.000 A 
ATOM     19  C   UNL     1       1.748   5.342  20.687  0.00  0.00    +0.000 A 
ATOM     20  C   UNL     1       2.247   4.121  20.218  0.00  0.00    +0.000 A 
ATOM     21  C   UNL     1       3.080   4.117  19.076  0.00  0.00    +0.000 A 
BRANCH  20  22
ATOM     22  C   UNL     1       1.884   2.832  20.916  0.00  0.00    +0.000 C 
ATOM     23  F   UNL     1       0.699   2.890  21.588  0.00  0.00    +0.000 F 
ATOM     24  F   UNL     1       1.769   1.786  20.052  0.00  0.00    +0.000 F 
ATOM     25  F   UNL     1       2.814   2.455  21.838  0.00  0.00    +0.000 F 
ENDBRANCH  20  22
ENDBRANCH   3  16
TORSDOF 4
ENDMDL
