MODEL 1
REMARK VINA RESULT:      -7.5      0.000      0.000
REMARK  Name = 
REMARK  5 active torsions:
REMARK  status: ('A' for Active; 'I' for Inactive)
REMARK    1  A    between atoms: C_1  and  C_2
REMARK    2  A    between atoms: C_2  and  O_3
REMARK    3  A    between atoms: O_3  and  C_4
REMARK    4  A    between atoms: C_11  and  C_13
REMARK    5  A    between atoms: C_16  and  N_17
REMARK                            x       y       z     vdW  Elec       q    Type
REMARK                         _______ _______ _______ _____ _____    ______ ____
ROOT
ATOM      1  C   UNL     1       3.072   6.636  18.659  0.00  0.00    +0.000 A 
ATOM      2  C   UNL     1       2.973   7.620  17.678  0.00  0.00    +0.000 A 
ATOM      3  C   UNL     1       2.204   8.775  17.892  0.00  0.00    +0.000 A 
ATOM      4  C   UNL     1       1.529   8.958  19.115  0.00  0.00    +0.000 A 
ATOM      5  N   UNL     1       0.728  10.042  19.464  0.00  0.00    +0.000 NA
ATOM      6  C   UNL     1       0.322   9.908  20.706  0.00  0.00    +0.000 A 
ATOM      7  N   UNL     1      -0.465  10.850  21.329  0.00  0.00    +0.000 N 
ATOM      8  C   UNL     1      -0.704  10.923  22.680  0.00  0.00    +0.000 C 
ATOM      9  O   UNL     1      -0.215  10.203  23.545  0.00  0.00    +0.000 OA
ATOM     10  S   UNL     1       0.772   8.454  21.478  0.00  0.00    +0.000 S 
ATOM     11  C   UNL     1       1.658   7.971  20.091  0.00  0.00    +0.000 A 
ATOM     12  C   UNL     1       2.416   6.806  19.884  0.00  0.00    +0.000 A 
ATOM     13  H   UNL     1      -0.788  11.608  20.742  0.00  0.00    +0.000 HD
ENDROOT
BRANCH   8  14
ATOM     14  C   UNL     1      -1.616  12.012  23.065  0.00  0.00    +0.000 A 
ATOM     15  C   UNL     1      -1.213  13.334  23.059  0.00  0.00    +0.000 A 
ATOM     16  S   UNL     1      -2.471  14.346  23.592  0.00  0.00    +0.000 S 
ATOM     17  C   UNL     1      -3.483  12.963  23.849  0.00  0.00    +0.000 A 
ATOM     18  N   UNL     1      -2.933  11.808  23.494  0.00  0.00    +0.000 NA
BRANCH  17  19
ATOM     19  N   UNL     1      -4.687  13.207  24.427  0.00  0.00    +0.000 NA
ATOM     20  C   UNL     1      -5.772  12.976  23.775  0.00  0.00    +0.000 C 
ATOM     21  N   UNL     1      -5.951  12.560  22.499  0.00  0.00    +0.000 N 
ATOM     22  N   UNL     1      -6.976  13.144  24.371  0.00  0.00    +0.000 N 
ATOM     23  H   UNL     1      -5.070  12.257  22.087  0.00  0.00    +0.000 HD
ATOM     24  H   UNL     1      -6.650  11.831  22.426  0.00  0.00    +0.000 HD
ATOM     25  H   UNL     1      -6.890  13.654  25.244  0.00  0.00    +0.000 HD
ATOM     26  H   UNL     1      -7.671  13.559  23.761  0.00  0.00    +0.000 HD
ENDBRANCH  17  19
ENDBRANCH   8  14
BRANCH   1  27
ATOM     27  O   UNL     1       3.779   5.466  18.554  0.00  0.00    +0.000 OA
BRANCH  27  29
ATOM     28  C   UNL     1       2.249   3.924  17.544  0.00  0.00    +0.000 C 
ATOM     29  C   UNL     1       3.555   4.681  17.382  0.00  0.00    +0.000 C 
ENDBRANCH  27  29
ENDBRANCH   1  27
TORSDOF 4
ENDMDL
MODEL 2
REMARK VINA RESULT:      -7.4      4.125      9.990
REMARK  Name = 
REMARK  5 active torsions:
REMARK  status: ('A' for Active; 'I' for Inactive)
REMARK    1  A    between atoms: C_1  and  C_2
REMARK    2  A    between atoms: C_2  and  O_3
REMARK    3  A    between atoms: O_3  and  C_4
REMARK    4  A    between atoms: C_11  and  C_13
REMARK    5  A    between atoms: C_16  and  N_17
REMARK                            x       y       z     vdW  Elec       q    Type
REMARK                         _______ _______ _______ _____ _____    ______ ____
ROOT
ATOM      1  C   UNL     1      -1.137  11.794  22.054  0.00  0.00    +0.000 A 
ATOM      2  C   UNL     1      -0.948  10.895  23.101  0.00  0.00    +0.000 A 
ATOM      3  C   UNL     1      -0.236   9.700  22.905  0.00  0.00    +0.000 A 
ATOM      4  C   UNL     1       0.308   9.401  21.640  0.00  0.00    +0.000 A 
ATOM      5  N   UNL     1       1.026   8.259  21.297  0.00  0.00    +0.000 NA
ATOM      6  C   UNL     1       1.438   8.354  20.054  0.00  0.00    +0.000 A 
ATOM      7  N   UNL     1       2.198   7.377  19.453  0.00  0.00    +0.000 N 
ATOM      8  C   UNL     1       2.888   7.514  18.272  0.00  0.00    +0.000 C 
ATOM      9  O   UNL     1       2.980   8.537  17.600  0.00  0.00    +0.000 OA
ATOM     10  S   UNL     1       0.908   9.735  19.203  0.00  0.00    +0.000 S 
ATOM     11  C   UNL     1       0.125  10.324  20.611  0.00  0.00    +0.000 A 
ATOM     12  C   UNL     1      -0.594  11.517  20.793  0.00  0.00    +0.000 A 
ATOM     13  H   UNL     1       2.344   6.538  19.998  0.00  0.00    +0.000 HD
ENDROOT
BRANCH   8  14
ATOM     14  C   UNL     1       3.588   6.292  17.845  0.00  0.00    +0.000 A 
ATOM     15  C   UNL     1       4.713   6.341  17.045  0.00  0.00    +0.000 A 
ATOM     16  S   UNL     1       5.264   4.773  16.690  0.00  0.00    +0.000 S 
ATOM     17  C   UNL     1       3.943   4.099  17.587  0.00  0.00    +0.000 A 
ATOM     18  N   UNL     1       3.166   4.999  18.177  0.00  0.00    +0.000 NA
BRANCH  17  19
ATOM     19  N   UNL     1       3.822   2.748  17.542  0.00  0.00    +0.000 NA
ATOM     20  C   UNL     1       4.185   2.036  18.550  0.00  0.00    +0.000 C 
ATOM     21  N   UNL     1       4.767   2.405  19.715  0.00  0.00    +0.000 N 
ATOM     22  N   UNL     1       3.997   0.695  18.543  0.00  0.00    +0.000 N 
ATOM     23  H   UNL     1       4.758   3.418  19.823  0.00  0.00    +0.000 HD
ATOM     24  H   UNL     1       4.342   1.956  20.518  0.00  0.00    +0.000 HD
ATOM     25  H   UNL     1       3.765   0.357  17.614  0.00  0.00    +0.000 HD
ATOM     26  H   UNL     1       4.770   0.179  18.947  0.00  0.00    +0.000 HD
ENDBRANCH  17  19
ENDBRANCH   8  14
BRANCH   1  27
ATOM     27  O   UNL     1      -1.824  12.977  22.127  0.00  0.00    +0.000 OA
BRANCH  27  29
ATOM     28  C   UNL     1      -4.209  12.751  22.082  0.00  0.00    +0.000 C 
ATOM     29  C   UNL     1      -2.968  13.111  21.284  0.00  0.00    +0.000 C 
ENDBRANCH  27  29
ENDBRANCH   1  27
TORSDOF 4
ENDMDL
MODEL 3
REMARK VINA RESULT:      -7.3      4.041     10.233
REMARK  Name = 
REMARK  5 active torsions:
REMARK  status: ('A' for Active; 'I' for Inactive)
REMARK    1  A    between atoms: C_1  and  C_2
REMARK    2  A    between atoms: C_2  and  O_3
REMARK    3  A    between atoms: O_3  and  C_4
REMARK    4  A    between atoms: C_11  and  C_13
REMARK    5  A    between atoms: C_16  and  N_17
REMARK                            x       y       z     vdW  Elec       q    Type
REMARK                         _______ _______ _______ _____ _____    ______ ____
ROOT
ATOM      1  C   UNL     1      -1.379  11.967  21.921  0.00  0.00    +0.000 A 
ATOM      2  C   UNL     1      -1.201  11.204  23.073  0.00  0.00    +0.000 A 
ATOM      3  C   UNL     1      -0.459  10.012  23.041  0.00  0.00    +0.000 A 
ATOM      4  C   UNL     1       0.128   9.577  21.836  0.00  0.00    +0.000 A 
ATOM      5  N   UNL     1       0.878   8.420  21.652  0.00  0.00    +0.000 NA
ATOM      6  C   UNL     1       1.324   8.376  20.418  0.00  0.00    +0.000 A 
ATOM      7  N   UNL     1       2.122   7.352  19.959  0.00  0.00    +0.000 N 
ATOM      8  C   UNL     1       2.842   7.364  18.789  0.00  0.00    +0.000 C 
ATOM      9  O   UNL     1       2.933   8.300  18.000  0.00  0.00    +0.000 OA
ATOM     10  S   UNL     1       0.790   9.632  19.393  0.00  0.00    +0.000 S 
ATOM     11  C   UNL     1      -0.045  10.365  20.699  0.00  0.00    +0.000 A 
ATOM     12  C   UNL     1      -0.794  11.554  20.718  0.00  0.00    +0.000 A 
ATOM     13  H   UNL     1       2.269   6.588  20.605  0.00  0.00    +0.000 HD
ENDROOT
BRANCH   8  14
ATOM     14  C   UNL     1       3.580   6.117  18.530  0.00  0.00    +0.000 A 
ATOM     15  C   UNL     1       4.117   5.364  19.557  0.00  0.00    +0.000 A 
ATOM     16  S   UNL     1       4.942   4.012  18.940  0.00  0.00    +0.000 S 
ATOM     17  C   UNL     1       4.580   4.521  17.324  0.00  0.00    +0.000 A 
ATOM     18  N   UNL     1       3.826   5.611  17.248  0.00  0.00    +0.000 NA
BRANCH  17  19
ATOM     19  N   UNL     1       5.145   3.789  16.330  0.00  0.00    +0.000 NA
ATOM     20  C   UNL     1       5.737   4.381  15.352  0.00  0.00    +0.000 C 
ATOM     21  N   UNL     1       5.857   5.701  15.075  0.00  0.00    +0.000 N 
ATOM     22  N   UNL     1       6.369   3.658  14.398  0.00  0.00    +0.000 N 
ATOM     23  H   UNL     1       5.547   6.269  15.862  0.00  0.00    +0.000 HD
ATOM     24  H   UNL     1       6.798   5.953  14.800  0.00  0.00    +0.000 HD
ATOM     25  H   UNL     1       6.121   2.675  14.451  0.00  0.00    +0.000 HD
ATOM     26  H   UNL     1       6.238   4.026  13.463  0.00  0.00    +0.000 HD
ENDBRANCH  17  19
ENDBRANCH   8  14
BRANCH   1  27
ATOM     27  O   UNL     1      -2.093  13.133  21.833  0.00  0.00    +0.000 OA
BRANCH  27  29
ATOM     28  C   UNL     1      -4.454  12.736  21.904  0.00  0.00    +0.000 C 
ATOM     29  C   UNL     1      -3.271  13.108  21.028  0.00  0.00    +0.000 C 
ENDBRANCH  27  29
ENDBRANCH   1  27
TORSDOF 4
ENDMDL
MODEL 4
REMARK VINA RESULT:      -7.2      0.999      1.081
REMARK  Name = 
REMARK  5 active torsions:
REMARK  status: ('A' for Active; 'I' for Inactive)
REMARK    1  A    between atoms: C_1  and  C_2
REMARK    2  A    between atoms: C_2  and  O_3
REMARK    3  A    between atoms: O_3  and  C_4
REMARK    4  A    between atoms: C_11  and  C_13
REMARK    5  A    between atoms: C_16  and  N_17
REMARK                            x       y       z     vdW  Elec       q    Type
REMARK                         _______ _______ _______ _____ _____    ______ ____
ROOT
ATOM      1  C   UNL     1       2.911   6.791  18.541  0.00  0.00    +0.000 A 
ATOM      2  C   UNL     1       2.874   7.776  17.557  0.00  0.00    +0.000 A 
ATOM      3  C   UNL     1       2.153   8.965  17.754  0.00  0.00    +0.000 A 
ATOM      4  C   UNL     1       1.463   9.181  18.964  0.00  0.00    +0.000 A 
ATOM      5  N   UNL     1       0.705  10.300  19.296  0.00  0.00    +0.000 NA
ATOM      6  C   UNL     1       0.270  10.187  20.530  0.00  0.00    +0.000 A 
ATOM      7  N   UNL     1      -0.486  11.164  21.137  0.00  0.00    +0.000 N 
ATOM      8  C   UNL     1      -0.747  11.251  22.483  0.00  0.00    +0.000 C 
ATOM      9  O   UNL     1      -0.308  10.511  23.358  0.00  0.00    +0.000 OA
ATOM     10  S   UNL     1       0.640   8.716  21.312  0.00  0.00    +0.000 S 
ATOM     11  C   UNL     1       1.530   8.191  19.944  0.00  0.00    +0.000 A 
ATOM     12  C   UNL     1       2.239   6.993  19.753  0.00  0.00    +0.000 A 
ATOM     13  H   UNL     1      -0.764  11.934  20.543  0.00  0.00    +0.000 HD
ENDROOT
BRANCH   8  14
ATOM     14  C   UNL     1      -1.617  12.380  22.849  0.00  0.00    +0.000 A 
ATOM     15  C   UNL     1      -1.105  13.555  23.365  0.00  0.00    +0.000 A 
ATOM     16  S   UNL     1      -2.356  14.647  23.727  0.00  0.00    +0.000 S 
ATOM     17  C   UNL     1      -3.531  13.478  23.218  0.00  0.00    +0.000 A 
ATOM     18  N   UNL     1      -3.013  12.353  22.740  0.00  0.00    +0.000 NA
BRANCH  17  19
ATOM     19  N   UNL     1      -4.830  13.819  23.412  0.00  0.00    +0.000 NA
ATOM     20  C   UNL     1      -5.565  13.125  24.209  0.00  0.00    +0.000 C 
ATOM     21  N   UNL     1      -5.280  11.994  24.897  0.00  0.00    +0.000 N 
ATOM     22  N   UNL     1      -6.839  13.503  24.467  0.00  0.00    +0.000 N 
ATOM     23  H   UNL     1      -4.283  11.788  24.862  0.00  0.00    +0.000 HD
ATOM     24  H   UNL     1      -5.604  12.033  25.855  0.00  0.00    +0.000 HD
ATOM     25  H   UNL     1      -7.156  14.213  23.814  0.00  0.00    +0.000 HD
ATOM     26  H   UNL     1      -7.486  12.725  24.517  0.00  0.00    +0.000 HD
ENDBRANCH  17  19
ENDBRANCH   8  14
BRANCH   1  27
ATOM     27  O   UNL     1       3.566   5.591  18.451  0.00  0.00    +0.000 OA
BRANCH  27  29
ATOM     28  C   UNL     1       5.007   3.908  19.361  0.00  0.00    +0.000 C 
ATOM     29  C   UNL     1       4.662   5.386  19.342  0.00  0.00    +0.000 C 
ENDBRANCH  27  29
ENDBRANCH   1  27
TORSDOF 4
ENDMDL
MODEL 5
REMARK VINA RESULT:      -7.1      3.956     10.260
REMARK  Name = 
REMARK  5 active torsions:
REMARK  status: ('A' for Active; 'I' for Inactive)
REMARK    1  A    between atoms: C_1  and  C_2
REMARK    2  A    between atoms: C_2  and  O_3
REMARK    3  A    between atoms: O_3  and  C_4
REMARK    4  A    between atoms: C_11  and  C_13
REMARK    5  A    between atoms: C_16  and  N_17
REMARK                            x       y       z     vdW  Elec       q    Type
REMARK                         _______ _______ _______ _____ _____    ______ ____
ROOT
ATOM      1  C   UNL     1      -1.509  12.291  21.962  0.00  0.00    +0.000 A 
ATOM      2  C   UNL     1      -1.273  11.460  23.055  0.00  0.00    +0.000 A 
ATOM      3  C   UNL     1      -0.545  10.267  22.909  0.00  0.00    +0.000 A 
ATOM      4  C   UNL     1      -0.032   9.902  21.648  0.00  0.00    +0.000 A 
ATOM      5  N   UNL     1       0.697   8.754  21.352  0.00  0.00    +0.000 NA
ATOM      6  C   UNL     1       1.071   8.782  20.094  0.00  0.00    +0.000 A 
ATOM      7  N   UNL     1       1.832   7.784  19.529  0.00  0.00    +0.000 N 
ATOM      8  C   UNL     1       2.484   7.862  18.322  0.00  0.00    +0.000 C 
ATOM      9  O   UNL     1       2.538   8.843  17.588  0.00  0.00    +0.000 OA
ATOM     10  S   UNL     1       0.491  10.100  19.179  0.00  0.00    +0.000 S 
ATOM     11  C   UNL     1      -0.262  10.759  20.572  0.00  0.00    +0.000 A 
ATOM     12  C   UNL     1      -0.998  11.949  20.705  0.00  0.00    +0.000 A 
ATOM     13  H   UNL     1       2.008   6.981  20.119  0.00  0.00    +0.000 HD
ENDROOT
BRANCH   8  14
ATOM     14  C   UNL     1       3.194   6.628  17.948  0.00  0.00    +0.000 A 
ATOM     15  C   UNL     1       2.572   5.395  17.975  0.00  0.00    +0.000 A 
ATOM     16  S   UNL     1       3.660   4.165  17.534  0.00  0.00    +0.000 S 
ATOM     17  C   UNL     1       4.927   5.337  17.370  0.00  0.00    +0.000 A 
ATOM     18  N   UNL     1       4.542   6.592  17.571  0.00  0.00    +0.000 NA
BRANCH  17  19
ATOM     19  N   UNL     1       6.164   4.842  17.110  0.00  0.00    +0.000 NA
ATOM     20  C   UNL     1       7.047   4.796  18.045  0.00  0.00    +0.000 C 
ATOM     21  N   UNL     1       6.990   5.241  19.322  0.00  0.00    +0.000 N 
ATOM     22  N   UNL     1       8.257   4.234  17.815  0.00  0.00    +0.000 N 
ATOM     23  H   UNL     1       6.039   5.505  19.574  0.00  0.00    +0.000 HD
ATOM     24  H   UNL     1       7.361   4.568  19.982  0.00  0.00    +0.000 HD
ATOM     25  H   UNL     1       8.415   4.086  16.823  0.00  0.00    +0.000 HD
ATOM     26  H   UNL     1       9.023   4.739  18.244  0.00  0.00    +0.000 HD
ENDBRANCH  17  19
ENDBRANCH   8  14
BRANCH   1  27
ATOM     27  O   UNL     1      -2.216  13.465  21.986  0.00  0.00    +0.000 OA
BRANCH  27  29
ATOM     28  C   UNL     1      -2.601  14.992  23.790  0.00  0.00    +0.000 C 
ATOM     29  C   UNL     1      -1.635  14.553  22.704  0.00  0.00    +0.000 C 
ENDBRANCH  27  29
ENDBRANCH   1  27
TORSDOF 4
ENDMDL
MODEL 6
REMARK VINA RESULT:      -7.1      4.112     10.045
REMARK  Name = 
REMARK  5 active torsions:
REMARK  status: ('A' for Active; 'I' for Inactive)
REMARK    1  A    between atoms: C_1  and  C_2
REMARK    2  A    between atoms: C_2  and  O_3
REMARK    3  A    between atoms: O_3  and  C_4
REMARK    4  A    between atoms: C_11  and  C_13
REMARK    5  A    between atoms: C_16  and  N_17
REMARK                            x       y       z     vdW  Elec       q    Type
REMARK                         _______ _______ _______ _____ _____    ______ ____
ROOT
ATOM      1  C   UNL     1      -0.996  12.046  21.668  0.00  0.00    +0.000 A 
ATOM      2  C   UNL     1      -0.808  12.491  20.362  0.00  0.00    +0.000 A 
ATOM      3  C   UNL     1      -0.072  11.729  19.440  0.00  0.00    +0.000 A 
ATOM      4  C   UNL     1       0.478  10.491  19.827  0.00  0.00    +0.000 A 
ATOM      5  N   UNL     1       1.234   9.635  19.030  0.00  0.00    +0.000 NA
ATOM      6  C   UNL     1       1.516   8.542  19.700  0.00  0.00    +0.000 A 
ATOM      7  N   UNL     1       2.231   7.504  19.149  0.00  0.00    +0.000 N 
ATOM      8  C   UNL     1       2.336   6.238  19.674  0.00  0.00    +0.000 C 
ATOM      9  O   UNL     1       1.770   5.819  20.679  0.00  0.00    +0.000 OA
ATOM     10  S   UNL     1       1.003   8.521  21.328  0.00  0.00    +0.000 S 
ATOM     11  C   UNL     1       0.261  10.054  21.133  0.00  0.00    +0.000 A 
ATOM     12  C   UNL     1      -0.465  10.814  22.066  0.00  0.00    +0.000 A 
ATOM     13  H   UNL     1       2.606   7.672  18.225  0.00  0.00    +0.000 HD
ENDROOT
BRANCH   8  14
ATOM     14  C   UNL     1       3.198   5.338  18.892  0.00  0.00    +0.000 A 
ATOM     15  C   UNL     1       2.976   3.975  18.848  0.00  0.00    +0.000 A 
ATOM     16  S   UNL     1       4.159   3.205  17.901  0.00  0.00    +0.000 S 
ATOM     17  C   UNL     1       4.941   4.727  17.629  0.00  0.00    +0.000 A 
ATOM     18  N   UNL     1       4.314   5.769  18.164  0.00  0.00    +0.000 NA
BRANCH  17  19
ATOM     19  N   UNL     1       6.117   4.679  16.954  0.00  0.00    +0.000 NA
ATOM     20  C   UNL     1       6.326   5.478  15.967  0.00  0.00    +0.000 C 
ATOM     21  N   UNL     1       5.505   6.387  15.391  0.00  0.00    +0.000 N 
ATOM     22  N   UNL     1       7.525   5.488  15.338  0.00  0.00    +0.000 N 
ATOM     23  H   UNL     1       4.665   6.526  15.951  0.00  0.00    +0.000 HD
ATOM     24  H   UNL     1       5.969   7.270  15.217  0.00  0.00    +0.000 HD
ATOM     25  H   UNL     1       8.087   4.682  15.596  0.00  0.00    +0.000 HD
ATOM     26  H   UNL     1       7.450   5.586  14.333  0.00  0.00    +0.000 HD
ENDBRANCH  17  19
ENDBRANCH   8  14
BRANCH   1  27
ATOM     27  O   UNL     1      -1.681  12.712  22.651  0.00  0.00    +0.000 OA
BRANCH  27  29
ATOM     28  C   UNL     1      -3.793  12.897  23.766  0.00  0.00    +0.000 C 
ATOM     29  C   UNL     1      -2.661  11.965  23.373  0.00  0.00    +0.000 C 
ENDBRANCH  27  29
ENDBRANCH   1  27
TORSDOF 4
ENDMDL
MODEL 7
REMARK VINA RESULT:      -7.0      4.011      9.759
REMARK  Name = 
REMARK  5 active torsions:
REMARK  status: ('A' for Active; 'I' for Inactive)
REMARK    1  A    between atoms: C_1  and  C_2
REMARK    2  A    between atoms: C_2  and  O_3
REMARK    3  A    between atoms: O_3  and  C_4
REMARK    4  A    between atoms: C_11  and  C_13
REMARK    5  A    between atoms: C_16  and  N_17
REMARK                            x       y       z     vdW  Elec       q    Type
REMARK                         _______ _______ _______ _____ _____    ______ ____
ROOT
ATOM      1  C   UNL     1      -2.048  12.274  21.068  0.00  0.00    +0.000 A 
ATOM      2  C   UNL     1      -1.588  11.804  22.296  0.00  0.00    +0.000 A 
ATOM      3  C   UNL     1      -0.618  10.790  22.362  0.00  0.00    +0.000 A 
ATOM      4  C   UNL     1      -0.089  10.240  21.178  0.00  0.00    +0.000 A 
ATOM      5  N   UNL     1       0.865   9.231  21.088  0.00  0.00    +0.000 NA
ATOM      6  C   UNL     1       1.173   9.025  19.828  0.00  0.00    +0.000 A 
ATOM      7  N   UNL     1       2.113   8.098  19.441  0.00  0.00    +0.000 N 
ATOM      8  C   UNL     1       2.683   8.010  18.194  0.00  0.00    +0.000 C 
ATOM      9  O   UNL     1       2.486   8.770  17.250  0.00  0.00    +0.000 OA
ATOM     10  S   UNL     1       0.276   9.929  18.692  0.00  0.00    +0.000 S 
ATOM     11  C   UNL     1      -0.547  10.739  19.959  0.00  0.00    +0.000 A 
ATOM     12  C   UNL     1      -1.525  11.746  19.881  0.00  0.00    +0.000 A 
ATOM     13  H   UNL     1       2.489   7.520  20.182  0.00  0.00    +0.000 HD
ENDROOT
BRANCH   8  14
ATOM     14  C   UNL     1       3.634   6.897  18.050  0.00  0.00    +0.000 A 
ATOM     15  C   UNL     1       4.299   6.658  16.863  0.00  0.00    +0.000 A 
ATOM     16  S   UNL     1       5.291   5.284  16.998  0.00  0.00    +0.000 S 
ATOM     17  C   UNL     1       4.750   5.046  18.627  0.00  0.00    +0.000 A 
ATOM     18  N   UNL     1       3.920   5.982  19.071  0.00  0.00    +0.000 NA
BRANCH  17  19
ATOM     19  N   UNL     1       5.188   3.916  19.239  0.00  0.00    +0.000 NA
ATOM     20  C   UNL     1       4.374   2.941  19.446  0.00  0.00    +0.000 C 
ATOM     21  N   UNL     1       3.045   2.846  19.204  0.00  0.00    +0.000 N 
ATOM     22  N   UNL     1       4.820   1.782  19.986  0.00  0.00    +0.000 N 
ATOM     23  H   UNL     1       2.720   3.629  18.640  0.00  0.00    +0.000 HD
ATOM     24  H   UNL     1       2.794   1.965  18.773  0.00  0.00    +0.000 HD
ATOM     25  H   UNL     1       5.752   1.888  20.375  0.00  0.00    +0.000 HD
ATOM     26  H   UNL     1       4.178   1.379  20.658  0.00  0.00    +0.000 HD
ENDBRANCH  17  19
ENDBRANCH   8  14
BRANCH   1  27
ATOM     27  O   UNL     1      -2.998  13.245  20.885  0.00  0.00    +0.000 OA
BRANCH  27  29
ATOM     28  C   UNL     1      -5.274  12.966  20.193  0.00  0.00    +0.000 C 
ATOM     29  C   UNL     1      -4.311  12.960  21.367  0.00  0.00    +0.000 C 
ENDBRANCH  27  29
ENDBRANCH   1  27
TORSDOF 4
ENDMDL
MODEL 8
REMARK VINA RESULT:      -7.0      3.055      4.672
REMARK  Name = 
REMARK  5 active torsions:
REMARK  status: ('A' for Active; 'I' for Inactive)
REMARK    1  A    between atoms: C_1  and  C_2
REMARK    2  A    between atoms: C_2  and  O_3
REMARK    3  A    between atoms: O_3  and  C_4
REMARK    4  A    between atoms: C_11  and  C_13
REMARK    5  A    between atoms: C_16  and  N_17
REMARK                            x       y       z     vdW  Elec       q    Type
REMARK                         _______ _______ _______ _____ _____    ______ ____
ROOT
ATOM      1  C   UNL     1       5.194   4.006  16.401  0.00  0.00    +0.000 A 
ATOM      2  C   UNL     1       4.550   3.170  17.309  0.00  0.00    +0.000 A 
ATOM      3  C   UNL     1       3.671   3.692  18.273  0.00  0.00    +0.000 A 
ATOM      4  C   UNL     1       3.422   5.078  18.324  0.00  0.00    +0.000 A 
ATOM      5  N   UNL     1       2.588   5.736  19.223  0.00  0.00    +0.000 NA
ATOM      6  C   UNL     1       2.542   7.014  18.927  0.00  0.00    +0.000 A 
ATOM      7  N   UNL     1       1.770   7.907  19.635  0.00  0.00    +0.000 N 
ATOM      8  C   UNL     1       1.456   9.184  19.236  0.00  0.00    +0.000 C 
ATOM      9  O   UNL     1       1.765   9.709  18.170  0.00  0.00    +0.000 OA
ATOM     10  S   UNL     1       3.561   7.515  17.653  0.00  0.00    +0.000 S 
ATOM     11  C   UNL     1       4.061   5.895  17.393  0.00  0.00    +0.000 A 
ATOM     12  C   UNL     1       4.950   5.384  16.431  0.00  0.00    +0.000 A 
ATOM     13  H   UNL     1       1.310   7.534  20.455  0.00  0.00    +0.000 HD
ENDROOT
BRANCH   8  14
ATOM     14  C   UNL     1       0.643   9.930  20.209  0.00  0.00    +0.000 A 
ATOM     15  C   UNL     1       0.457   9.475  21.501  0.00  0.00    +0.000 A 
ATOM     16  S   UNL     1      -0.561  10.527  22.365  0.00  0.00    +0.000 S 
ATOM     17  C   UNL     1      -0.741  11.520  20.957  0.00  0.00    +0.000 A 
ATOM     18  N   UNL     1      -0.027  11.123  19.911  0.00  0.00    +0.000 NA
BRANCH  17  19
ATOM     19  N   UNL     1      -1.623  12.547  21.063  0.00  0.00    +0.000 NA
ATOM     20  C   UNL     1      -2.420  12.814  20.089  0.00  0.00    +0.000 C 
ATOM     21  N   UNL     1      -2.510  12.258  18.858  0.00  0.00    +0.000 N 
ATOM     22  N   UNL     1      -3.353  13.787  20.216  0.00  0.00    +0.000 N 
ATOM     23  H   UNL     1      -1.945  11.412  18.797  0.00  0.00    +0.000 HD
ATOM     24  H   UNL     1      -3.468  12.068  18.589  0.00  0.00    +0.000 HD
ATOM     25  H   UNL     1      -3.178  14.364  21.032  0.00  0.00    +0.000 HD
ATOM     26  H   UNL     1      -3.466  14.346  19.379  0.00  0.00    +0.000 HD
ENDBRANCH  17  19
ENDBRANCH   8  14
BRANCH   1  27
ATOM     27  O   UNL     1       6.079   3.610  15.433  0.00  0.00    +0.000 OA
BRANCH  27  29
ATOM     28  C   UNL     1       6.006   3.693  13.040  0.00  0.00    +0.000 C 
ATOM     29  C   UNL     1       6.245   4.482  14.315  0.00  0.00    +0.000 C 
ENDBRANCH  27  29
ENDBRANCH   1  27
TORSDOF 4
ENDMDL
MODEL 9
REMARK VINA RESULT:      -6.9      3.963     10.150
REMARK  Name = 
REMARK  5 active torsions:
REMARK  status: ('A' for Active; 'I' for Inactive)
REMARK    1  A    between atoms: C_1  and  C_2
REMARK    2  A    between atoms: C_2  and  O_3
REMARK    3  A    between atoms: O_3  and  C_4
REMARK    4  A    between atoms: C_11  and  C_13
REMARK    5  A    between atoms: C_16  and  N_17
REMARK                            x       y       z     vdW  Elec       q    Type
REMARK                         _______ _______ _______ _____ _____    ______ ____
ROOT
ATOM      1  C   UNL     1      -1.936  12.519  21.329  0.00  0.00    +0.000 A 
ATOM      2  C   UNL     1      -1.557  12.030  22.577  0.00  0.00    +0.000 A 
ATOM      3  C   UNL     1      -0.697  10.926  22.687  0.00  0.00    +0.000 A 
ATOM      4  C   UNL     1      -0.195  10.302  21.528  0.00  0.00    +0.000 A 
ATOM      5  N   UNL     1       0.655   9.200  21.483  0.00  0.00    +0.000 NA
ATOM      6  C   UNL     1       0.972   8.940  20.235  0.00  0.00    +0.000 A 
ATOM      7  N   UNL     1       1.825   7.916  19.891  0.00  0.00    +0.000 N 
ATOM      8  C   UNL     1       2.414   7.747  18.661  0.00  0.00    +0.000 C 
ATOM      9  O   UNL     1       2.320   8.504  17.700  0.00  0.00    +0.000 OA
ATOM     10  S   UNL     1       0.201   9.906  19.059  0.00  0.00    +0.000 S 
ATOM     11  C   UNL     1      -0.569  10.820  20.288  0.00  0.00    +0.000 A 
ATOM     12  C   UNL     1      -1.438  11.918  20.166  0.00  0.00    +0.000 A 
ATOM     13  H   UNL     1       2.121   7.318  20.651  0.00  0.00    +0.000 HD
ENDROOT
BRANCH   8  14
ATOM     14  C   UNL     1       3.253   6.541  18.563  0.00  0.00    +0.000 A 
ATOM     15  C   UNL     1       3.340   5.630  19.598  0.00  0.00    +0.000 A 
ATOM     16  S   UNL     1       4.415   4.375  19.202  0.00  0.00    +0.000 S 
ATOM     17  C   UNL     1       4.748   5.132  17.680  0.00  0.00    +0.000 A 
ATOM     18  N   UNL     1       4.044   6.234  17.449  0.00  0.00    +0.000 NA
BRANCH  17  19
ATOM     19  N   UNL     1       5.717   4.551  16.927  0.00  0.00    +0.000 NA
ATOM     20  C   UNL     1       6.686   5.262  16.467  0.00  0.00    +0.000 C 
ATOM     21  N   UNL     1       6.905   6.596  16.547  0.00  0.00    +0.000 N 
ATOM     22  N   UNL     1       7.696   4.677  15.780  0.00  0.00    +0.000 N 
ATOM     23  H   UNL     1       6.261   7.032  17.203  0.00  0.00    +0.000 HD
ATOM     24  H   UNL     1       7.865   6.815  16.787  0.00  0.00    +0.000 HD
ATOM     25  H   UNL     1       7.464   3.725  15.516  0.00  0.00    +0.000 HD
ATOM     26  H   UNL     1       8.008   5.221  14.984  0.00  0.00    +0.000 HD
ENDBRANCH  17  19
ENDBRANCH   8  14
BRANCH   1  27
ATOM     27  O   UNL     1      -2.778  13.576  21.103  0.00  0.00    +0.000 OA
BRANCH  27  29
ATOM     28  C   UNL     1      -5.018  13.024  21.745  0.00  0.00    +0.000 C 
ATOM     29  C   UNL     1      -4.072  13.270  20.584  0.00  0.00    +0.000 C 
ENDBRANCH  27  29
ENDBRANCH   1  27
TORSDOF 4
ENDMDL
