MODEL 1
REMARK VINA RESULT:      -8.6      0.000      0.000
REMARK  Name = 
REMARK  6 active torsions:
REMARK  status: ('A' for Active; 'I' for Inactive)
REMARK    1  A    between atoms: C_2  and  C_12
REMARK    2  A    between atoms: N_3  and  C_4
REMARK    3  A    between atoms: C_4  and  C_5
REMARK    4  A    between atoms: N_21  and  C_22
REMARK    5  A    between atoms: C_22  and  C_23
REMARK    6  A    between atoms: C_23  and  C_24
REMARK                            x       y       z     vdW  Elec       q    Type
REMARK                         _______ _______ _______ _____ _____    ______ ____
ROOT
ATOM      1  C   UNL     1       3.988   4.888  18.234  0.00  0.00    +0.000 C 
ATOM      2  C   UNL     1       3.097   4.413  19.345  0.00  0.00    +0.000 A 
ATOM      3  C   UNL     1       2.927   4.908  20.628  0.00  0.00    +0.000 A 
ATOM      4  C   UNL     1       2.069   4.220  21.495  0.00  0.00    +0.000 A 
ATOM      5  C   UNL     1       1.404   3.051  21.081  0.00  0.00    +0.000 A 
ATOM      6  C   UNL     1       1.575   2.558  19.788  0.00  0.00    +0.000 A 
ATOM      7  C   UNL     1       2.417   3.261  18.947  0.00  0.00    +0.000 A 
ATOM      8  C   UNL     1       2.757   2.977  17.548  0.00  0.00    +0.000 C 
ATOM      9  O   UNL     1       2.330   2.038  16.908  0.00  0.00    +0.000 OA
ATOM     10  N   UNL     1       3.624   3.977  17.138  0.00  0.00    +0.000 N 
ENDROOT
BRANCH   1  12
ATOM     11  O   UNL     1       4.828   7.066  17.598  0.00  0.00    +0.000 OA
ATOM     12  C   UNL     1       3.855   6.388  17.930  0.00  0.00    +0.000 C 
ATOM     13  N   UNL     1       2.607   6.930  18.136  0.00  0.00    +0.000 N 
ATOM     14  H   UNL     1       1.894   6.354  18.567  0.00  0.00    +0.000 HD
BRANCH  13  15
ATOM     15  C   UNL     1       2.302   8.302  17.813  0.00  0.00    +0.000 C 
BRANCH  15  16
ATOM     16  C   UNL     1       1.402   8.931  18.840  0.00  0.00    +0.000 A 
ATOM     17  C   UNL     1       1.450   8.520  20.181  0.00  0.00    +0.000 A 
ATOM     18  C   UNL     1       0.607   9.101  21.130  0.00  0.00    +0.000 A 
ATOM     19  C   UNL     1      -0.286  10.104  20.752  0.00  0.00    +0.000 A 
ATOM     20  C   UNL     1      -0.328  10.527  19.426  0.00  0.00    +0.000 A 
ATOM     21 BR   UNL     1      -1.536  11.887  18.913  0.00  0.00    +0.000 Br
ATOM     22  C   UNL     1       0.512   9.951  18.473  0.00  0.00    +0.000 A 
ENDBRANCH  15  16
ENDBRANCH  13  15
ENDBRANCH   1  12
BRANCH  10  23
ATOM     23  C   UNL     1       4.233   4.032  15.808  0.00  0.00    +0.000 C 
BRANCH  23  24
ATOM     24  C   UNL     1       5.759   4.142  15.850  0.00  0.00    +0.000 C 
BRANCH  24  25
ATOM     25  C   UNL     1       6.383   4.369  14.496  0.00  0.00    +0.000 A 
ATOM     26  C   UNL     1       5.944   3.620  13.407  0.00  0.00    +0.000 A 
ATOM     27  C   UNL     1       6.567   3.794  12.174  0.00  0.00    +0.000 A 
ATOM     28  C   UNL     1       7.615   4.699  12.063  0.00  0.00    +0.000 A 
ATOM     29  C   UNL     1       8.001   5.391  13.196  0.00  0.00    +0.000 A 
ATOM     30  N   UNL     1       7.417   5.241  14.407  0.00  0.00    +0.000 NA
ENDBRANCH  24  25
ENDBRANCH  23  24
ENDBRANCH  10  23
TORSDOF 6
ENDMDL
MODEL 2
REMARK VINA RESULT:      -8.6      0.967      1.307
REMARK  Name = 
REMARK  6 active torsions:
REMARK  status: ('A' for Active; 'I' for Inactive)
REMARK    1  A    between atoms: C_2  and  C_12
REMARK    2  A    between atoms: N_3  and  C_4
REMARK    3  A    between atoms: C_4  and  C_5
REMARK    4  A    between atoms: N_21  and  C_22
REMARK    5  A    between atoms: C_22  and  C_23
REMARK    6  A    between atoms: C_23  and  C_24
REMARK                            x       y       z     vdW  Elec       q    Type
REMARK                         _______ _______ _______ _____ _____    ______ ____
ROOT
ATOM      1  C   UNL     1       4.030   4.947  18.150  0.00  0.00    +0.000 C 
ATOM      2  C   UNL     1       3.111   4.543  19.267  0.00  0.00    +0.000 A 
ATOM      3  C   UNL     1       2.955   5.080  20.535  0.00  0.00    +0.000 A 
ATOM      4  C   UNL     1       2.061   4.456  21.413  0.00  0.00    +0.000 A 
ATOM      5  C   UNL     1       1.347   3.307  21.026  0.00  0.00    +0.000 A 
ATOM      6  C   UNL     1       1.503   2.772  19.748  0.00  0.00    +0.000 A 
ATOM      7  C   UNL     1       2.381   3.413  18.895  0.00  0.00    +0.000 A 
ATOM      8  C   UNL     1       2.718   3.075  17.506  0.00  0.00    +0.000 C 
ATOM      9  O   UNL     1       2.252   2.140  16.889  0.00  0.00    +0.000 OA
ATOM     10  N   UNL     1       3.631   4.023  17.076  0.00  0.00    +0.000 N 
ENDROOT
BRANCH   1  12
ATOM     11  O   UNL     1       4.958   7.050  17.397  0.00  0.00    +0.000 OA
ATOM     12  C   UNL     1       3.967   6.443  17.804  0.00  0.00    +0.000 C 
ATOM     13  N   UNL     1       2.767   7.064  18.060  0.00  0.00    +0.000 N 
ATOM     14  H   UNL     1       2.047   6.545  18.549  0.00  0.00    +0.000 HD
BRANCH  13  15
ATOM     15  C   UNL     1       2.524   8.442  17.710  0.00  0.00    +0.000 C 
BRANCH  15  16
ATOM     16  C   UNL     1       1.426   9.045  18.541  0.00  0.00    +0.000 A 
ATOM     17  C   UNL     1       0.376   9.752  17.936  0.00  0.00    +0.000 A 
ATOM     18  C   UNL     1      -0.637  10.317  18.713  0.00  0.00    +0.000 A 
ATOM     19  C   UNL     1      -0.616  10.176  20.100  0.00  0.00    +0.000 A 
ATOM     20  C   UNL     1       0.415   9.462  20.706  0.00  0.00    +0.000 A 
ATOM     21 BR   UNL     1       0.442   9.268  22.586  0.00  0.00    +0.000 Br
ATOM     22  C   UNL     1       1.429   8.894  19.936  0.00  0.00    +0.000 A 
ENDBRANCH  15  16
ENDBRANCH  13  15
ENDBRANCH   1  12
BRANCH  10  23
ATOM     23  C   UNL     1       4.251   4.014  15.750  0.00  0.00    +0.000 C 
BRANCH  23  24
ATOM     24  C   UNL     1       5.781   4.009  15.801  0.00  0.00    +0.000 C 
BRANCH  24  25
ATOM     25  C   UNL     1       6.428   4.322  14.476  0.00  0.00    +0.000 A 
ATOM     26  C   UNL     1       6.066   3.589  13.348  0.00  0.00    +0.000 A 
ATOM     27  C   UNL     1       6.711   3.844  12.142  0.00  0.00    +0.000 A 
ATOM     28  C   UNL     1       7.706   4.813  12.094  0.00  0.00    +0.000 A 
ATOM     29  C   UNL     1       8.017   5.485  13.262  0.00  0.00    +0.000 A 
ATOM     30  N   UNL     1       7.409   5.256  14.449  0.00  0.00    +0.000 NA
ENDBRANCH  24  25
ENDBRANCH  23  24
ENDBRANCH  10  23
TORSDOF 6
ENDMDL
MODEL 3
REMARK VINA RESULT:      -8.6      1.936      2.793
REMARK  Name = 
REMARK  6 active torsions:
REMARK  status: ('A' for Active; 'I' for Inactive)
REMARK    1  A    between atoms: C_2  and  C_12
REMARK    2  A    between atoms: N_3  and  C_4
REMARK    3  A    between atoms: C_4  and  C_5
REMARK    4  A    between atoms: N_21  and  C_22
REMARK    5  A    between atoms: C_22  and  C_23
REMARK    6  A    between atoms: C_23  and  C_24
REMARK                            x       y       z     vdW  Elec       q    Type
REMARK                         _______ _______ _______ _____ _____    ______ ____
ROOT
ATOM      1  C   UNL     1       3.766   5.474  18.190  0.00  0.00    +0.000 C 
ATOM      2  C   UNL     1       2.667   4.927  19.054  0.00  0.00    +0.000 A 
ATOM      3  C   UNL     1       2.123   5.421  20.229  0.00  0.00    +0.000 A 
ATOM      4  C   UNL     1       1.140   4.662  20.874  0.00  0.00    +0.000 A 
ATOM      5  C   UNL     1       0.720   3.424  20.353  0.00  0.00    +0.000 A 
ATOM      6  C   UNL     1       1.266   2.932  19.168  0.00  0.00    +0.000 A 
ATOM      7  C   UNL     1       2.226   3.705  18.542  0.00  0.00    +0.000 A 
ATOM      8  C   UNL     1       2.943   3.436  17.290  0.00  0.00    +0.000 C 
ATOM      9  O   UNL     1       2.788   2.450  16.601  0.00  0.00    +0.000 OA
ATOM     10  N   UNL     1       3.786   4.514  17.076  0.00  0.00    +0.000 N 
ENDROOT
BRANCH   1  12
ATOM     11  O   UNL     1       4.486   7.605  17.300  0.00  0.00    +0.000 OA
ATOM     12  C   UNL     1       3.573   6.948  17.800  0.00  0.00    +0.000 C 
ATOM     13  N   UNL     1       2.354   7.496  18.126  0.00  0.00    +0.000 N 
ATOM     14  H   UNL     1       1.710   6.949  18.684  0.00  0.00    +0.000 HD
BRANCH  13  15
ATOM     15  C   UNL     1       1.990   8.840  17.749  0.00  0.00    +0.000 C 
BRANCH  15  16
ATOM     16  C   UNL     1       0.969   9.426  18.685  0.00  0.00    +0.000 A 
ATOM     17  C   UNL     1      -0.085  10.210  18.193  0.00  0.00    +0.000 A 
ATOM     18  C   UNL     1      -1.026  10.759  19.067  0.00  0.00    +0.000 A 
ATOM     19  C   UNL     1      -0.927  10.525  20.438  0.00  0.00    +0.000 A 
ATOM     20  C   UNL     1       0.109   9.735  20.931  0.00  0.00    +0.000 A 
ATOM     21 BR   UNL     1       0.241   9.415  22.789  0.00  0.00    +0.000 Br
ATOM     22  C   UNL     1       1.051   9.182  20.064  0.00  0.00    +0.000 A 
ENDBRANCH  15  16
ENDBRANCH  13  15
ENDBRANCH   1  12
BRANCH  10  23
ATOM     23  C   UNL     1       4.711   4.612  15.945  0.00  0.00    +0.000 C 
BRANCH  23  24
ATOM     24  C   UNL     1       6.136   4.174  16.294  0.00  0.00    +0.000 C 
BRANCH  24  25
ATOM     25  C   UNL     1       6.899   5.198  17.096  0.00  0.00    +0.000 A 
ATOM     26  C   UNL     1       7.198   4.937  18.431  0.00  0.00    +0.000 A 
ATOM     27  C   UNL     1       7.850   5.913  19.179  0.00  0.00    +0.000 A 
ATOM     28  C   UNL     1       8.176   7.123  18.582  0.00  0.00    +0.000 A 
ATOM     29  C   UNL     1       7.830   7.310  17.256  0.00  0.00    +0.000 A 
ATOM     30  N   UNL     1       7.193   6.382  16.505  0.00  0.00    +0.000 NA
ENDBRANCH  24  25
ENDBRANCH  23  24
ENDBRANCH  10  23
TORSDOF 6
ENDMDL
MODEL 4
REMARK VINA RESULT:      -8.4      1.817      2.571
REMARK  Name = 
REMARK  6 active torsions:
REMARK  status: ('A' for Active; 'I' for Inactive)
REMARK    1  A    between atoms: C_2  and  C_12
REMARK    2  A    between atoms: N_3  and  C_4
REMARK    3  A    between atoms: C_4  and  C_5
REMARK    4  A    between atoms: N_21  and  C_22
REMARK    5  A    between atoms: C_22  and  C_23
REMARK    6  A    between atoms: C_23  and  C_24
REMARK                            x       y       z     vdW  Elec       q    Type
REMARK                         _______ _______ _______ _____ _____    ______ ____
ROOT
ATOM      1  C   UNL     1       3.818   5.160  18.491  0.00  0.00    +0.000 C 
ATOM      2  C   UNL     1       2.898   4.481  19.465  0.00  0.00    +0.000 A 
ATOM      3  C   UNL     1       2.413   4.915  20.688  0.00  0.00    +0.000 A 
ATOM      4  C   UNL     1       1.615   4.039  21.432  0.00  0.00    +0.000 A 
ATOM      5  C   UNL     1       1.321   2.746  20.960  0.00  0.00    +0.000 A 
ATOM      6  C   UNL     1       1.807   2.314  19.727  0.00  0.00    +0.000 A 
ATOM      7  C   UNL     1       2.582   3.201  19.004  0.00  0.00    +0.000 A 
ATOM      8  C   UNL     1       3.199   3.013  17.686  0.00  0.00    +0.000 C 
ATOM      9  O   UNL     1       3.113   2.003  17.019  0.00  0.00    +0.000 OA
ATOM     10  N   UNL     1       3.859   4.192  17.383  0.00  0.00    +0.000 N 
ENDROOT
BRANCH   1  12
ATOM     11  O   UNL     1       3.943   7.214  17.219  0.00  0.00    +0.000 OA
ATOM     12  C   UNL     1       3.384   6.586  18.119  0.00  0.00    +0.000 C 
ATOM     13  N   UNL     1       2.400   7.135  18.908  0.00  0.00    +0.000 N 
ATOM     14  H   UNL     1       2.102   6.628  19.733  0.00  0.00    +0.000 HD
BRANCH  13  15
ATOM     15  C   UNL     1       1.826   8.429  18.634  0.00  0.00    +0.000 C 
BRANCH  15  16
ATOM     16  C   UNL     1       1.136   9.003  19.840  0.00  0.00    +0.000 A 
ATOM     17  C   UNL     1       1.328   8.438  21.109  0.00  0.00    +0.000 A 
ATOM     18  C   UNL     1       0.679   8.969  22.226  0.00  0.00    +0.000 A 
ATOM     19  C   UNL     1      -0.163  10.073  22.086  0.00  0.00    +0.000 A 
ATOM     20  C   UNL     1      -0.346  10.647  20.831  0.00  0.00    +0.000 A 
ATOM     21 BR   UNL     1      -1.485  12.143  20.641  0.00  0.00    +0.000 Br
ATOM     22  C   UNL     1       0.300  10.123  19.712  0.00  0.00    +0.000 A 
ENDBRANCH  15  16
ENDBRANCH  13  15
ENDBRANCH   1  12
BRANCH  10  23
ATOM     23  C   UNL     1       4.642   4.397  16.163  0.00  0.00    +0.000 C 
BRANCH  23  24
ATOM     24  C   UNL     1       6.135   4.122  16.354  0.00  0.00    +0.000 C 
BRANCH  24  25
ATOM     25  C   UNL     1       6.824   5.134  17.235  0.00  0.00    +0.000 A 
ATOM     26  C   UNL     1       6.980   6.442  16.783  0.00  0.00    +0.000 A 
ATOM     27  C   UNL     1       7.670   7.352  17.578  0.00  0.00    +0.000 A 
ATOM     28  C   UNL     1       8.195   6.934  18.794  0.00  0.00    +0.000 A 
ATOM     29  C   UNL     1       8.011   5.614  19.163  0.00  0.00    +0.000 A 
ATOM     30  N   UNL     1       7.348   4.706  18.410  0.00  0.00    +0.000 NA
ENDBRANCH  24  25
ENDBRANCH  23  24
ENDBRANCH  10  23
TORSDOF 6
ENDMDL
MODEL 5
REMARK VINA RESULT:      -8.4      1.680      2.445
REMARK  Name = 
REMARK  6 active torsions:
REMARK  status: ('A' for Active; 'I' for Inactive)
REMARK    1  A    between atoms: C_2  and  C_12
REMARK    2  A    between atoms: N_3  and  C_4
REMARK    3  A    between atoms: C_4  and  C_5
REMARK    4  A    between atoms: N_21  and  C_22
REMARK    5  A    between atoms: C_22  and  C_23
REMARK    6  A    between atoms: C_23  and  C_24
REMARK                            x       y       z     vdW  Elec       q    Type
REMARK                         _______ _______ _______ _____ _____    ______ ____
ROOT
ATOM      1  C   UNL     1       3.856   5.322  18.296  0.00  0.00    +0.000 C 
ATOM      2  C   UNL     1       2.857   4.679  19.214  0.00  0.00    +0.000 A 
ATOM      3  C   UNL     1       2.357   5.108  20.433  0.00  0.00    +0.000 A 
ATOM      4  C   UNL     1       1.474   4.267  21.120  0.00  0.00    +0.000 A 
ATOM      5  C   UNL     1       1.109   3.013  20.595  0.00  0.00    +0.000 A 
ATOM      6  C   UNL     1       1.611   2.587  19.365  0.00  0.00    +0.000 A 
ATOM      7  C   UNL     1       2.471   3.440  18.700  0.00  0.00    +0.000 A 
ATOM      8  C   UNL     1       3.122   3.250  17.399  0.00  0.00    +0.000 C 
ATOM      9  O   UNL     1       2.992   2.269  16.696  0.00  0.00    +0.000 OA
ATOM     10  N   UNL     1       3.872   4.389  17.159  0.00  0.00    +0.000 N 
ENDROOT
BRANCH   1  12
ATOM     11  O   UNL     1       4.408   7.562  17.568  0.00  0.00    +0.000 OA
ATOM     12  C   UNL     1       3.535   6.787  17.958  0.00  0.00    +0.000 C 
ATOM     13  N   UNL     1       2.241   7.185  18.200  0.00  0.00    +0.000 N 
ATOM     14  H   UNL     1       1.618   6.543  18.676  0.00  0.00    +0.000 HD
BRANCH  13  15
ATOM     15  C   UNL     1       1.763   8.501  17.853  0.00  0.00    +0.000 C 
BRANCH  15  16
ATOM     16  C   UNL     1       1.185   9.217  19.042  0.00  0.00    +0.000 A 
ATOM     17  C   UNL     1       1.252   8.647  20.322  0.00  0.00    +0.000 A 
ATOM     18  C   UNL     1       0.707   9.313  21.423  0.00  0.00    +0.000 A 
ATOM     19  C   UNL     1       0.097  10.556  21.256  0.00  0.00    +0.000 A 
ATOM     20  C   UNL     1       0.040  11.133  19.990  0.00  0.00    +0.000 A 
ATOM     21 BR   UNL     1      -0.784  12.819  19.764  0.00  0.00    +0.000 Br
ATOM     22  C   UNL     1       0.584  10.475  18.887  0.00  0.00    +0.000 A 
ENDBRANCH  15  16
ENDBRANCH  13  15
ENDBRANCH   1  12
BRANCH  10  23
ATOM     23  C   UNL     1       4.712   4.577  15.974  0.00  0.00    +0.000 C 
BRANCH  23  24
ATOM     24  C   UNL     1       6.180   4.218  16.216  0.00  0.00    +0.000 C 
BRANCH  24  25
ATOM     25  C   UNL     1       6.926   5.250  17.023  0.00  0.00    +0.000 A 
ATOM     26  C   UNL     1       7.296   4.958  18.334  0.00  0.00    +0.000 A 
ATOM     27  C   UNL     1       7.931   5.939  19.090  0.00  0.00    +0.000 A 
ATOM     28  C   UNL     1       8.170   7.185  18.525  0.00  0.00    +0.000 A 
ATOM     29  C   UNL     1       7.756   7.401  17.223  0.00  0.00    +0.000 A 
ATOM     30  N   UNL     1       7.135   6.468  16.466  0.00  0.00    +0.000 NA
ENDBRANCH  24  25
ENDBRANCH  23  24
ENDBRANCH  10  23
TORSDOF 6
ENDMDL
MODEL 6
REMARK VINA RESULT:      -8.3      3.003      7.743
REMARK  Name = 
REMARK  6 active torsions:
REMARK  status: ('A' for Active; 'I' for Inactive)
REMARK    1  A    between atoms: C_2  and  C_12
REMARK    2  A    between atoms: N_3  and  C_4
REMARK    3  A    between atoms: C_4  and  C_5
REMARK    4  A    between atoms: N_21  and  C_22
REMARK    5  A    between atoms: C_22  and  C_23
REMARK    6  A    between atoms: C_23  and  C_24
REMARK                            x       y       z     vdW  Elec       q    Type
REMARK                         _______ _______ _______ _____ _____    ______ ____
ROOT
ATOM      1  C   UNL     1       3.301   5.433  17.997  0.00  0.00    +0.000 C 
ATOM      2  C   UNL     1       2.762   4.336  18.871  0.00  0.00    +0.000 A 
ATOM      3  C   UNL     1       2.890   2.961  18.760  0.00  0.00    +0.000 A 
ATOM      4  C   UNL     1       2.218   2.157  19.689  0.00  0.00    +0.000 A 
ATOM      5  C   UNL     1       1.424   2.726  20.701  0.00  0.00    +0.000 A 
ATOM      6  C   UNL     1       1.301   4.111  20.812  0.00  0.00    +0.000 A 
ATOM      7  C   UNL     1       1.984   4.884  19.892  0.00  0.00    +0.000 A 
ATOM      8  C   UNL     1       2.042   6.347  19.791  0.00  0.00    +0.000 C 
ATOM      9  O   UNL     1       1.468   7.116  20.534  0.00  0.00    +0.000 OA
ATOM     10  N   UNL     1       2.868   6.640  18.719  0.00  0.00    +0.000 N 
ENDROOT
BRANCH   1  12
ATOM     11  O   UNL     1       5.641   5.774  18.506  0.00  0.00    +0.000 OA
ATOM     12  C   UNL     1       4.809   5.322  17.720  0.00  0.00    +0.000 C 
ATOM     13  N   UNL     1       5.153   4.767  16.509  0.00  0.00    +0.000 N 
ATOM     14  H   UNL     1       4.418   4.569  15.841  0.00  0.00    +0.000 HD
BRANCH  13  15
ATOM     15  C   UNL     1       6.524   4.516  16.141  0.00  0.00    +0.000 C 
BRANCH  15  16
ATOM     16  C   UNL     1       6.707   4.490  14.649  0.00  0.00    +0.000 A 
ATOM     17  C   UNL     1       7.714   5.252  14.038  0.00  0.00    +0.000 A 
ATOM     18  C   UNL     1       7.875   5.231  12.651  0.00  0.00    +0.000 A 
ATOM     19  C   UNL     1       7.037   4.444  11.862  0.00  0.00    +0.000 A 
ATOM     20  C   UNL     1       6.045   3.673  12.464  0.00  0.00    +0.000 A 
ATOM     21 BR   UNL     1       4.910   2.605  11.394  0.00  0.00    +0.000 Br
ATOM     22  C   UNL     1       5.879   3.689  13.848  0.00  0.00    +0.000 A 
ENDBRANCH  15  16
ENDBRANCH  13  15
ENDBRANCH   1  12
BRANCH  10  23
ATOM     23  C   UNL     1       3.153   8.000  18.257  0.00  0.00    +0.000 C 
BRANCH  23  24
ATOM     24  C   UNL     1       1.979   8.639  17.510  0.00  0.00    +0.000 C 
BRANCH  24  25
ATOM     25  C   UNL     1       1.463   9.895  18.166  0.00  0.00    +0.000 A 
ATOM     26  C   UNL     1       0.171   9.914  18.686  0.00  0.00    +0.000 A 
ATOM     27  C   UNL     1      -0.317  11.096  19.234  0.00  0.00    +0.000 A 
ATOM     28  C   UNL     1       0.488  12.228  19.241  0.00  0.00    +0.000 A 
ATOM     29  C   UNL     1       1.753  12.130  18.690  0.00  0.00    +0.000 A 
ATOM     30  N   UNL     1       2.253  10.996  18.147  0.00  0.00    +0.000 NA
ENDBRANCH  24  25
ENDBRANCH  23  24
ENDBRANCH  10  23
TORSDOF 6
ENDMDL
MODEL 7
REMARK VINA RESULT:      -8.2      1.664      1.921
REMARK  Name = 
REMARK  6 active torsions:
REMARK  status: ('A' for Active; 'I' for Inactive)
REMARK    1  A    between atoms: C_2  and  C_12
REMARK    2  A    between atoms: N_3  and  C_4
REMARK    3  A    between atoms: C_4  and  C_5
REMARK    4  A    between atoms: N_21  and  C_22
REMARK    5  A    between atoms: C_22  and  C_23
REMARK    6  A    between atoms: C_23  and  C_24
REMARK                            x       y       z     vdW  Elec       q    Type
REMARK                         _______ _______ _______ _____ _____    ______ ____
ROOT
ATOM      1  C   UNL     1       3.579   6.048  18.614  0.00  0.00    +0.000 C 
ATOM      2  C   UNL     1       3.123   4.970  19.555  0.00  0.00    +0.000 A 
ATOM      3  C   UNL     1       2.343   5.051  20.697  0.00  0.00    +0.000 A 
ATOM      4  C   UNL     1       2.125   3.882  21.435  0.00  0.00    +0.000 A 
ATOM      5  C   UNL     1       2.691   2.656  21.037  0.00  0.00    +0.000 A 
ATOM      6  C   UNL     1       3.472   2.577  19.884  0.00  0.00    +0.000 A 
ATOM      7  C   UNL     1       3.662   3.742  19.166  0.00  0.00    +0.000 A 
ATOM      8  C   UNL     1       4.416   3.936  17.921  0.00  0.00    +0.000 C 
ATOM      9  O   UNL     1       5.009   3.060  17.327  0.00  0.00    +0.000 OA
ATOM     10  N   UNL     1       4.297   5.275  17.588  0.00  0.00    +0.000 N 
ENDROOT
BRANCH   1  12
ATOM     11  O   UNL     1       1.407   6.470  17.635  0.00  0.00    +0.000 OA
ATOM     12  C   UNL     1       2.442   6.946  18.102  0.00  0.00    +0.000 C 
ATOM     13  N   UNL     1       2.696   8.298  18.123  0.00  0.00    +0.000 N 
ATOM     14  H   UNL     1       3.628   8.612  18.363  0.00  0.00    +0.000 HD
BRANCH  13  15
ATOM     15  C   UNL     1       1.698   9.274  17.757  0.00  0.00    +0.000 C 
BRANCH  15  16
ATOM     16  C   UNL     1       1.271  10.105  18.935  0.00  0.00    +0.000 A 
ATOM     17  C   UNL     1       1.331  11.505  18.881  0.00  0.00    +0.000 A 
ATOM     18  C   UNL     1       0.940  12.274  19.979  0.00  0.00    +0.000 A 
ATOM     19  C   UNL     1       0.479  11.651  21.139  0.00  0.00    +0.000 A 
ATOM     20  C   UNL     1       0.403  10.261  21.194  0.00  0.00    +0.000 A 
ATOM     21 BR   UNL     1      -0.223   9.418  22.765  0.00  0.00    +0.000 Br
ATOM     22  C   UNL     1       0.790   9.488  20.100  0.00  0.00    +0.000 A 
ENDBRANCH  15  16
ENDBRANCH  13  15
ENDBRANCH   1  12
BRANCH  10  23
ATOM     23  C   UNL     1       4.946   5.887  16.427  0.00  0.00    +0.000 C 
BRANCH  23  24
ATOM     24  C   UNL     1       6.344   5.327  16.155  0.00  0.00    +0.000 C 
BRANCH  24  25
ATOM     25  C   UNL     1       6.568   4.944  14.714  0.00  0.00    +0.000 A 
ATOM     26  C   UNL     1       5.724   4.012  14.115  0.00  0.00    +0.000 A 
ATOM     27  C   UNL     1       5.976   3.620  12.803  0.00  0.00    +0.000 A 
ATOM     28  C   UNL     1       7.065   4.157  12.130  0.00  0.00    +0.000 A 
ATOM     29  C   UNL     1       7.865   5.064  12.802  0.00  0.00    +0.000 A 
ATOM     30  N   UNL     1       7.646   5.461  14.076  0.00  0.00    +0.000 NA
ENDBRANCH  24  25
ENDBRANCH  23  24
ENDBRANCH  10  23
TORSDOF 6
ENDMDL
MODEL 8
REMARK VINA RESULT:      -8.2      1.328      1.467
REMARK  Name = 
REMARK  6 active torsions:
REMARK  status: ('A' for Active; 'I' for Inactive)
REMARK    1  A    between atoms: C_2  and  C_12
REMARK    2  A    between atoms: N_3  and  C_4
REMARK    3  A    between atoms: C_4  and  C_5
REMARK    4  A    between atoms: N_21  and  C_22
REMARK    5  A    between atoms: C_22  and  C_23
REMARK    6  A    between atoms: C_23  and  C_24
REMARK                            x       y       z     vdW  Elec       q    Type
REMARK                         _______ _______ _______ _____ _____    ______ ____
ROOT
ATOM      1  C   UNL     1       3.527   5.922  18.726  0.00  0.00    +0.000 C 
ATOM      2  C   UNL     1       3.030   4.839  19.640  0.00  0.00    +0.000 A 
ATOM      3  C   UNL     1       2.318   4.927  20.825  0.00  0.00    +0.000 A 
ATOM      4  C   UNL     1       2.040   3.744  21.520  0.00  0.00    +0.000 A 
ATOM      5  C   UNL     1       2.479   2.498  21.036  0.00  0.00    +0.000 A 
ATOM      6  C   UNL     1       3.192   2.412  19.840  0.00  0.00    +0.000 A 
ATOM      7  C   UNL     1       3.443   3.593  19.166  0.00  0.00    +0.000 A 
ATOM      8  C   UNL     1       4.147   3.786  17.892  0.00  0.00    +0.000 C 
ATOM      9  O   UNL     1       4.632   2.895  17.227  0.00  0.00    +0.000 OA
ATOM     10  N   UNL     1       4.125   5.145  17.628  0.00  0.00    +0.000 N 
ENDROOT
BRANCH   1  12
ATOM     11  O   UNL     1       1.578   6.652  17.492  0.00  0.00    +0.000 OA
ATOM     12  C   UNL     1       2.446   6.935  18.318  0.00  0.00    +0.000 C 
ATOM     13  N   UNL     1       2.567   8.190  18.869  0.00  0.00    +0.000 N 
ATOM     14  H   UNL     1       3.397   8.403  19.410  0.00  0.00    +0.000 HD
BRANCH  13  15
ATOM     15  C   UNL     1       1.584   9.223  18.653  0.00  0.00    +0.000 C 
BRANCH  15  16
ATOM     16  C   UNL     1       0.861   9.582  19.921  0.00  0.00    +0.000 A 
ATOM     17  C   UNL     1       1.041   8.822  21.086  0.00  0.00    +0.000 A 
ATOM     18  C   UNL     1       0.362   9.154  22.260  0.00  0.00    +0.000 A 
ATOM     19  C   UNL     1      -0.498  10.252  22.284  0.00  0.00    +0.000 A 
ATOM     20  C   UNL     1      -0.669  11.020  21.134  0.00  0.00    +0.000 A 
ATOM     21 BR   UNL     1      -1.833  12.509  21.166  0.00  0.00    +0.000 Br
ATOM     22  C   UNL     1       0.007  10.694  19.959  0.00  0.00    +0.000 A 
ENDBRANCH  15  16
ENDBRANCH  13  15
ENDBRANCH   1  12
BRANCH  10  23
ATOM     23  C   UNL     1       4.763   5.759  16.462  0.00  0.00    +0.000 C 
BRANCH  23  24
ATOM     24  C   UNL     1       6.198   5.276  16.239  0.00  0.00    +0.000 C 
BRANCH  24  25
ATOM     25  C   UNL     1       6.496   4.920  14.804  0.00  0.00    +0.000 A 
ATOM     26  C   UNL     1       5.718   3.961  14.161  0.00  0.00    +0.000 A 
ATOM     27  C   UNL     1       6.038   3.596  12.857  0.00  0.00    +0.000 A 
ATOM     28  C   UNL     1       7.129   4.187  12.233  0.00  0.00    +0.000 A 
ATOM     29  C   UNL     1       7.861   5.119  12.946  0.00  0.00    +0.000 A 
ATOM     30  N   UNL     1       7.575   5.491  14.216  0.00  0.00    +0.000 NA
ENDBRANCH  24  25
ENDBRANCH  23  24
ENDBRANCH  10  23
TORSDOF 6
ENDMDL
MODEL 9
REMARK VINA RESULT:      -8.1      1.656      2.179
REMARK  Name = 
REMARK  6 active torsions:
REMARK  status: ('A' for Active; 'I' for Inactive)
REMARK    1  A    between atoms: C_2  and  C_12
REMARK    2  A    between atoms: N_3  and  C_4
REMARK    3  A    between atoms: C_4  and  C_5
REMARK    4  A    between atoms: N_21  and  C_22
REMARK    5  A    between atoms: C_22  and  C_23
REMARK    6  A    between atoms: C_23  and  C_24
REMARK                            x       y       z     vdW  Elec       q    Type
REMARK                         _______ _______ _______ _____ _____    ______ ____
ROOT
ATOM      1  C   UNL     1       3.762   5.964  19.388  0.00  0.00    +0.000 C 
ATOM      2  C   UNL     1       2.784   4.919  19.840  0.00  0.00    +0.000 A 
ATOM      3  C   UNL     1       1.477   5.049  20.280  0.00  0.00    +0.000 A 
ATOM      4  C   UNL     1       0.806   3.899  20.713  0.00  0.00    +0.000 A 
ATOM      5  C   UNL     1       1.444   2.644  20.714  0.00  0.00    +0.000 A 
ATOM      6  C   UNL     1       2.759   2.517  20.267  0.00  0.00    +0.000 A 
ATOM      7  C   UNL     1       3.395   3.664  19.832  0.00  0.00    +0.000 A 
ATOM      8  C   UNL     1       4.756   3.809  19.301  0.00  0.00    +0.000 C 
ATOM      9  O   UNL     1       5.548   2.900  19.169  0.00  0.00    +0.000 OA
ATOM     10  N   UNL     1       4.920   5.149  18.990  0.00  0.00    +0.000 N 
ENDROOT
BRANCH   1  12
ATOM     11  O   UNL     1       3.499   6.772  17.122  0.00  0.00    +0.000 OA
ATOM     12  C   UNL     1       3.207   6.910  18.310  0.00  0.00    +0.000 C 
ATOM     13  N   UNL     1       2.441   7.955  18.772  0.00  0.00    +0.000 N 
ATOM     14  H   UNL     1       2.378   8.104  19.772  0.00  0.00    +0.000 HD
BRANCH  13  15
ATOM     15  C   UNL     1       1.779   8.875  17.881  0.00  0.00    +0.000 C 
BRANCH  15  16
ATOM     16  C   UNL     1       0.697   9.650  18.580  0.00  0.00    +0.000 A 
ATOM     17  C   UNL     1      -0.265  10.358  17.844  0.00  0.00    +0.000 A 
ATOM     18  C   UNL     1      -1.264  11.083  18.498  0.00  0.00    +0.000 A 
ATOM     19  C   UNL     1      -1.316  11.102  19.891  0.00  0.00    +0.000 A 
ATOM     20  C   UNL     1      -0.372  10.389  20.627  0.00  0.00    +0.000 A 
ATOM     21 BR   UNL     1      -0.444  10.413  22.516  0.00  0.00    +0.000 Br
ATOM     22  C   UNL     1       0.627   9.662  19.981  0.00  0.00    +0.000 A 
ENDBRANCH  15  16
ENDBRANCH  13  15
ENDBRANCH   1  12
BRANCH  10  23
ATOM     23  C   UNL     1       6.165   5.717  18.469  0.00  0.00    +0.000 C 
BRANCH  23  24
ATOM     24  C   UNL     1       7.035   4.690  17.739  0.00  0.00    +0.000 C 
BRANCH  24  25
ATOM     25  C   UNL     1       6.765   4.619  16.258  0.00  0.00    +0.000 A 
ATOM     26  C   UNL     1       5.741   3.800  15.788  0.00  0.00    +0.000 A 
ATOM     27  C   UNL     1       5.538   3.694  14.415  0.00  0.00    +0.000 A 
ATOM     28  C   UNL     1       6.366   4.397  13.549  0.00  0.00    +0.000 A 
ATOM     29  C   UNL     1       7.370   5.176  14.095  0.00  0.00    +0.000 A 
ATOM     30  N   UNL     1       7.592   5.295  15.424  0.00  0.00    +0.000 NA
ENDBRANCH  24  25
ENDBRANCH  23  24
ENDBRANCH  10  23
TORSDOF 6
ENDMDL
