MODEL 1
REMARK VINA RESULT:      -6.9      0.000      0.000
REMARK  Name = 
REMARK  11 active torsions:
REMARK  status: ('A' for Active; 'I' for Inactive)
REMARK    1  A    between atoms: C_1  and  O_2
REMARK    2  A    between atoms: O_2  and  C_3
REMARK    3  A    between atoms: C_5  and  C_6
REMARK    4  A    between atoms: N_8  and  C_9
REMARK    5  A    between atoms: C_9  and  C_10
REMARK    6  A    between atoms: C_10  and  C_11
REMARK    7  A    between atoms: N_13  and  C_14
REMARK    8  A    between atoms: C_25  and  O_26
REMARK    9  A    between atoms: O_26  and  C_27
REMARK   10  A    between atoms: C_28  and  O_29
REMARK   11  A    between atoms: O_29  and  C_30
REMARK                            x       y       z     vdW  Elec       q    Type
REMARK                         _______ _______ _______ _____ _____    ______ ____
ROOT
ATOM      1  C   UNL     1       1.632   5.003  20.663  0.00  0.00    +0.000 C 
ATOM      2  O   UNL     1       2.541   4.634  21.436  0.00  0.00    +0.000 OA
ATOM      3  N   UNL     1       0.712   4.096  20.133  0.00  0.00    +0.000 N 
ATOM      4  H   UNL     1       0.084   4.417  19.412  0.00  0.00    +0.000 HD
ENDROOT
BRANCH   1   7
ATOM      5  C   UNL     1       1.024   8.842  20.842  0.00  0.00    +0.000 A 
ATOM      6  C   UNL     1       1.064   7.452  21.145  0.00  0.00    +0.000 A 
ATOM      7  C   UNL     1       1.600   6.493  20.260  0.00  0.00    +0.000 A 
ATOM      8  C   UNL     1       2.121   6.991  19.058  0.00  0.00    +0.000 A 
ATOM      9  C   UNL     1       2.071   8.376  18.722  0.00  0.00    +0.000 A 
ATOM     10  C   UNL     1       1.510   9.319  19.610  0.00  0.00    +0.000 A 
BRANCH   5  12
ATOM     11  C   UNL     1      -0.445   9.220  22.682  0.00  0.00    +0.000 C 
ATOM     12  O   UNL     1       0.437   9.746  21.693  0.00  0.00    +0.000 OA
ENDBRANCH   5  12
BRANCH   9  13
ATOM     13  O   UNL     1       2.639   8.618  17.485  0.00  0.00    +0.000 OA
ATOM     14  C   UNL     1       3.680   7.771  17.006  0.00  0.00    +0.000 C 
ENDBRANCH   9  13
BRANCH  10  15
ATOM     15  O   UNL     1       1.453  10.612  19.166  0.00  0.00    +0.000 OA
ATOM     16  C   UNL     1       0.257  11.221  18.701  0.00  0.00    +0.000 C 
ENDBRANCH  10  15
ENDBRANCH   1   7
BRANCH   3  17
ATOM     17  C   UNL     1       0.873   2.612  20.195  0.00  0.00    +0.000 C 
BRANCH  17  18
ATOM     18  C   UNL     1       1.682   1.820  19.087  0.00  0.00    +0.000 C 
BRANCH  18  19
ATOM     19  C   UNL     1       2.644   2.627  18.193  0.00  0.00    +0.000 C 
ATOM     20  O   UNL     1       2.178   3.366  17.317  0.00  0.00    +0.000 OA
ATOM     21  N   UNL     1       4.061   2.592  18.436  0.00  0.00    +0.000 N 
ATOM     22  H   UNL     1       4.367   2.180  19.307  0.00  0.00    +0.000 HD
BRANCH  21  23
ATOM     23  C   UNL     1       4.854   3.794  17.962  0.00  0.00    +0.000 C 
ATOM     24  C   UNL     1       5.531   4.399  19.216  0.00  0.00    +0.000 C 
ATOM     25  C   UNL     1       6.074   5.797  18.947  0.00  0.00    +0.000 C 
ATOM     26  C   UNL     1       7.187   5.681  17.940  0.00  0.00    +0.000 C 
ATOM     27  C   UNL     1       6.613   5.106  16.676  0.00  0.00    +0.000 A 
ATOM     28  C   UNL     1       6.884   5.791  15.480  0.00  0.00    +0.000 A 
ATOM     29  C   UNL     1       6.583   5.189  14.275  0.00  0.00    +0.000 A 
ATOM     30  C   UNL     1       6.103   3.890  14.285  0.00  0.00    +0.000 A 
ATOM     31  C   UNL     1       5.698   3.248  15.490  0.00  0.00    +0.000 A 
ATOM     32  C   UNL     1       5.825   3.907  16.719  0.00  0.00    +0.000 A 
ENDBRANCH  21  23
ENDBRANCH  18  19
ENDBRANCH  17  18
ENDBRANCH   3  17
TORSDOF 8
ENDMDL
MODEL 2
REMARK VINA RESULT:      -6.8      2.369      7.536
REMARK  Name = 
REMARK  11 active torsions:
REMARK  status: ('A' for Active; 'I' for Inactive)
REMARK    1  A    between atoms: C_1  and  O_2
REMARK    2  A    between atoms: O_2  and  C_3
REMARK    3  A    between atoms: C_5  and  C_6
REMARK    4  A    between atoms: N_8  and  C_9
REMARK    5  A    between atoms: C_9  and  C_10
REMARK    6  A    between atoms: C_10  and  C_11
REMARK    7  A    between atoms: N_13  and  C_14
REMARK    8  A    between atoms: C_25  and  O_26
REMARK    9  A    between atoms: O_26  and  C_27
REMARK   10  A    between atoms: C_28  and  O_29
REMARK   11  A    between atoms: O_29  and  C_30
REMARK                            x       y       z     vdW  Elec       q    Type
REMARK                         _______ _______ _______ _____ _____    ______ ____
ROOT
ATOM      1  C   UNL     1       4.336   3.207  17.629  0.00  0.00    +0.000 C 
ATOM      2  O   UNL     1       3.159   2.973  17.283  0.00  0.00    +0.000 OA
ATOM      3  N   UNL     1       4.789   2.918  18.918  0.00  0.00    +0.000 N 
ATOM      4  H   UNL     1       5.703   3.246  19.190  0.00  0.00    +0.000 HD
ENDROOT
BRANCH   1   7
ATOM      5  C   UNL     1       6.085   4.049  14.257  0.00  0.00    +0.000 A 
ATOM      6  C   UNL     1       5.273   3.448  15.259  0.00  0.00    +0.000 A 
ATOM      7  C   UNL     1       5.260   3.891  16.598  0.00  0.00    +0.000 A 
ATOM      8  C   UNL     1       6.085   4.986  16.890  0.00  0.00    +0.000 A 
ATOM      9  C   UNL     1       6.926   5.589  15.909  0.00  0.00    +0.000 A 
ATOM     10  C   UNL     1       6.942   5.118  14.579  0.00  0.00    +0.000 A 
BRANCH   5  12
ATOM     11  C   UNL     1       4.898   3.515  12.260  0.00  0.00    +0.000 C 
ATOM     12  O   UNL     1       6.129   3.555  12.976  0.00  0.00    +0.000 OA
ENDBRANCH   5  12
BRANCH   9  13
ATOM     13  O   UNL     1       7.647   6.642  16.439  0.00  0.00    +0.000 OA
ATOM     14  C   UNL     1       7.362   7.105  17.757  0.00  0.00    +0.000 C 
ENDBRANCH   9  13
BRANCH  10  15
ATOM     15  O   UNL     1       7.830   5.724  13.731  0.00  0.00    +0.000 OA
ATOM     16  C   UNL     1       8.601   5.010  12.776  0.00  0.00    +0.000 C 
ENDBRANCH  10  15
ENDBRANCH   1   7
BRANCH   3  17
ATOM     17  C   UNL     1       3.890   2.580  20.062  0.00  0.00    +0.000 C 
BRANCH  17  18
ATOM     18  C   UNL     1       2.716   3.546  20.506  0.00  0.00    +0.000 C 
BRANCH  18  19
ATOM     19  C   UNL     1       2.954   5.064  20.379  0.00  0.00    +0.000 C 
ATOM     20  O   UNL     1       4.009   5.471  19.877  0.00  0.00    +0.000 OA
ATOM     21  N   UNL     1       1.922   5.994  20.753  0.00  0.00    +0.000 N 
ATOM     22  H   UNL     1       1.000   5.613  20.917  0.00  0.00    +0.000 HD
BRANCH  21  23
ATOM     23  C   UNL     1       1.965   7.351  20.080  0.00  0.00    +0.000 C 
ATOM     24  C   UNL     1       2.137   7.087  18.563  0.00  0.00    +0.000 C 
ATOM     25  C   UNL     1       2.537   8.350  17.811  0.00  0.00    +0.000 C 
ATOM     26  C   UNL     1       1.394   9.325  17.893  0.00  0.00    +0.000 C 
ATOM     27  C   UNL     1       1.160   9.649  19.342  0.00  0.00    +0.000 A 
ATOM     28  C   UNL     1       1.096  11.007  19.693  0.00  0.00    +0.000 A 
ATOM     29  C   UNL     1       0.657  11.358  20.953  0.00  0.00    +0.000 A 
ATOM     30  C   UNL     1       0.209  10.358  21.801  0.00  0.00    +0.000 A 
ATOM     31  C   UNL     1       0.402   8.979  21.504  0.00  0.00    +0.000 A 
ATOM     32  C   UNL     1       1.012   8.594  20.304  0.00  0.00    +0.000 A 
ENDBRANCH  21  23
ENDBRANCH  18  19
ENDBRANCH  17  18
ENDBRANCH   3  17
TORSDOF 8
ENDMDL
MODEL 3
REMARK VINA RESULT:      -6.8      3.598      9.978
REMARK  Name = 
REMARK  11 active torsions:
REMARK  status: ('A' for Active; 'I' for Inactive)
REMARK    1  A    between atoms: C_1  and  O_2
REMARK    2  A    between atoms: O_2  and  C_3
REMARK    3  A    between atoms: C_5  and  C_6
REMARK    4  A    between atoms: N_8  and  C_9
REMARK    5  A    between atoms: C_9  and  C_10
REMARK    6  A    between atoms: C_10  and  C_11
REMARK    7  A    between atoms: N_13  and  C_14
REMARK    8  A    between atoms: C_25  and  O_26
REMARK    9  A    between atoms: O_26  and  C_27
REMARK   10  A    between atoms: C_28  and  O_29
REMARK   11  A    between atoms: O_29  and  C_30
REMARK                            x       y       z     vdW  Elec       q    Type
REMARK                         _______ _______ _______ _____ _____    ______ ____
ROOT
ATOM      1  C   UNL     1       2.280   7.728  18.371  0.00  0.00    +0.000 C 
ATOM      2  O   UNL     1       1.817   8.567  17.569  0.00  0.00    +0.000 OA
ATOM      3  N   UNL     1       1.900   7.717  19.714  0.00  0.00    +0.000 N 
ATOM      4  H   UNL     1       2.399   7.111  20.348  0.00  0.00    +0.000 HD
ENDROOT
BRANCH   1   7
ATOM      5  C   UNL     1       5.642   6.356  16.972  0.00  0.00    +0.000 A 
ATOM      6  C   UNL     1       4.613   7.215  17.450  0.00  0.00    +0.000 A 
ATOM      7  C   UNL     1       3.343   6.742  17.838  0.00  0.00    +0.000 A 
ATOM      8  C   UNL     1       3.150   5.357  17.749  0.00  0.00    +0.000 A 
ATOM      9  C   UNL     1       4.156   4.479  17.250  0.00  0.00    +0.000 A 
ATOM     10  C   UNL     1       5.415   4.972  16.845  0.00  0.00    +0.000 A 
BRANCH   5  12
ATOM     11  C   UNL     1       7.697   7.431  17.523  0.00  0.00    +0.000 C 
ATOM     12  O   UNL     1       6.847   6.851  16.537  0.00  0.00    +0.000 OA
ENDBRANCH   5  12
BRANCH   9  13
ATOM     13  O   UNL     1       3.728   3.164  17.252  0.00  0.00    +0.000 OA
ATOM     14  C   UNL     1       2.408   2.850  17.687  0.00  0.00    +0.000 C 
ENDBRANCH   9  13
BRANCH  10  15
ATOM     15  O   UNL     1       6.287   4.057  16.322  0.00  0.00    +0.000 OA
ATOM     16  C   UNL     1       6.384   3.782  14.932  0.00  0.00    +0.000 C 
ENDBRANCH  10  15
ENDBRANCH   1   7
BRANCH   3  17
ATOM     17  C   UNL     1       1.154   8.826  20.380  0.00  0.00    +0.000 C 
BRANCH  17  18
ATOM     18  C   UNL     1       1.081   8.945  21.958  0.00  0.00    +0.000 C 
BRANCH  18  19
ATOM     19  C   UNL     1       0.177  10.044  22.550  0.00  0.00    +0.000 C 
ATOM     20  O   UNL     1      -0.051  10.051  23.766  0.00  0.00    +0.000 OA
ATOM     21  N   UNL     1      -0.319  11.103  21.712  0.00  0.00    +0.000 N 
ATOM     22  H   UNL     1       0.094  11.193  20.794  0.00  0.00    +0.000 HD
BRANCH  21  23
ATOM     23  C   UNL     1      -0.667  12.404  22.409  0.00  0.00    +0.000 C 
ATOM     24  C   UNL     1       0.064  13.529  21.636  0.00  0.00    +0.000 C 
ATOM     25  C   UNL     1       0.083  14.834  22.420  0.00  0.00    +0.000 C 
ATOM     26  C   UNL     1      -1.333  15.326  22.545  0.00  0.00    +0.000 C 
ATOM     27  C   UNL     1      -2.121  14.292  23.298  0.00  0.00    +0.000 A 
ATOM     28  C   UNL     1      -2.878  14.736  24.395  0.00  0.00    +0.000 A 
ATOM     29  C   UNL     1      -3.793  13.881  24.974  0.00  0.00    +0.000 A 
ATOM     30  C   UNL     1      -3.997  12.639  24.395  0.00  0.00    +0.000 A 
ATOM     31  C   UNL     1      -3.140  12.135  23.376  0.00  0.00    +0.000 A 
ATOM     32  C   UNL     1      -2.084  12.916  22.891  0.00  0.00    +0.000 A 
ENDBRANCH  21  23
ENDBRANCH  18  19
ENDBRANCH  17  18
ENDBRANCH   3  17
TORSDOF 8
ENDMDL
MODEL 4
REMARK VINA RESULT:      -6.7      6.593      8.873
REMARK  Name = 
REMARK  11 active torsions:
REMARK  status: ('A' for Active; 'I' for Inactive)
REMARK    1  A    between atoms: C_1  and  O_2
REMARK    2  A    between atoms: O_2  and  C_3
REMARK    3  A    between atoms: C_5  and  C_6
REMARK    4  A    between atoms: N_8  and  C_9
REMARK    5  A    between atoms: C_9  and  C_10
REMARK    6  A    between atoms: C_10  and  C_11
REMARK    7  A    between atoms: N_13  and  C_14
REMARK    8  A    between atoms: C_25  and  O_26
REMARK    9  A    between atoms: O_26  and  C_27
REMARK   10  A    between atoms: C_28  and  O_29
REMARK   11  A    between atoms: O_29  and  C_30
REMARK                            x       y       z     vdW  Elec       q    Type
REMARK                         _______ _______ _______ _____ _____    ______ ____
ROOT
ATOM      1  C   UNL     1       6.655   6.526  17.413  0.00  0.00    +0.000 C 
ATOM      2  O   UNL     1       7.564   5.734  17.085  0.00  0.00    +0.000 OA
ATOM      3  N   UNL     1       6.878   7.903  17.482  0.00  0.00    +0.000 N 
ATOM      4  H   UNL     1       6.156   8.485  17.879  0.00  0.00    +0.000 HD
ENDROOT
BRANCH   1   7
ATOM      5  C   UNL     1       3.988   3.984  18.665  0.00  0.00    +0.000 A 
ATOM      6  C   UNL     1       5.212   4.593  18.269  0.00  0.00    +0.000 A 
ATOM      7  C   UNL     1       5.289   5.922  17.804  0.00  0.00    +0.000 A 
ATOM      8  C   UNL     1       4.081   6.633  17.775  0.00  0.00    +0.000 A 
ATOM      9  C   UNL     1       2.839   6.038  18.143  0.00  0.00    +0.000 A 
ATOM     10  C   UNL     1       2.777   4.699  18.584  0.00  0.00    +0.000 A 
BRANCH   5  12
ATOM     11  C   UNL     1       3.563   1.721  18.050  0.00  0.00    +0.000 C 
ATOM     12  O   UNL     1       3.931   2.668  19.049  0.00  0.00    +0.000 OA
ENDBRANCH   5  12
BRANCH   9  13
ATOM     13  O   UNL     1       1.793   6.934  18.023  0.00  0.00    +0.000 OA
ATOM     14  C   UNL     1       2.052   8.335  18.066  0.00  0.00    +0.000 C 
ENDBRANCH   9  13
BRANCH  10  15
ATOM     15  O   UNL     1       1.530   4.205  18.853  0.00  0.00    +0.000 OA
ATOM     16  C   UNL     1       1.002   4.104  20.168  0.00  0.00    +0.000 C 
ENDBRANCH  10  15
ENDBRANCH   1   7
BRANCH   3  17
ATOM     17  C   UNL     1       8.232   8.532  17.455  0.00  0.00    +0.000 C 
BRANCH  17  18
ATOM     18  C   UNL     1       8.832   9.262  18.726  0.00  0.00    +0.000 C 
BRANCH  18  19
ATOM     19  C   UNL     1       9.203  10.751  18.584  0.00  0.00    +0.000 C 
ATOM     20  O   UNL     1       8.560  11.464  17.803  0.00  0.00    +0.000 OA
ATOM     21  N   UNL     1      10.224  11.327  19.419  0.00  0.00    +0.000 N 
ATOM     22  H   UNL     1      10.540  10.774  20.203  0.00  0.00    +0.000 HD
BRANCH  21  23
ATOM     23  C   UNL     1      10.131  12.821  19.660  0.00  0.00    +0.000 C 
ATOM     24  C   UNL     1      10.239  13.029  21.191  0.00  0.00    +0.000 C 
ATOM     25  C   UNL     1       9.821  14.434  21.601  0.00  0.00    +0.000 C 
ATOM     26  C   UNL     1      10.813  15.406  21.022  0.00  0.00    +0.000 C 
ATOM     27  C   UNL     1      10.770  15.279  19.525  0.00  0.00    +0.000 A 
ATOM     28  C   UNL     1      10.616  16.464  18.786  0.00  0.00    +0.000 A 
ATOM     29  C   UNL     1      10.802  16.434  17.419  0.00  0.00    +0.000 A 
ATOM     30  C   UNL     1      11.220  15.251  16.832  0.00  0.00    +0.000 A 
ATOM     31  C   UNL     1      11.241  14.023  17.551  0.00  0.00    +0.000 A 
ATOM     32  C   UNL     1      10.883  13.990  18.904  0.00  0.00    +0.000 A 
ENDBRANCH  21  23
ENDBRANCH  18  19
ENDBRANCH  17  18
ENDBRANCH   3  17
TORSDOF 8
ENDMDL
MODEL 5
REMARK VINA RESULT:      -6.7      3.233      8.726
REMARK  Name = 
REMARK  11 active torsions:
REMARK  status: ('A' for Active; 'I' for Inactive)
REMARK    1  A    between atoms: C_1  and  O_2
REMARK    2  A    between atoms: O_2  and  C_3
REMARK    3  A    between atoms: C_5  and  C_6
REMARK    4  A    between atoms: N_8  and  C_9
REMARK    5  A    between atoms: C_9  and  C_10
REMARK    6  A    between atoms: C_10  and  C_11
REMARK    7  A    between atoms: N_13  and  C_14
REMARK    8  A    between atoms: C_25  and  O_26
REMARK    9  A    between atoms: O_26  and  C_27
REMARK   10  A    between atoms: C_28  and  O_29
REMARK   11  A    between atoms: O_29  and  C_30
REMARK                            x       y       z     vdW  Elec       q    Type
REMARK                         _______ _______ _______ _____ _____    ______ ____
ROOT
ATOM      1  C   UNL     1       2.342   7.693  18.926  0.00  0.00    +0.000 C 
ATOM      2  O   UNL     1       1.968   8.717  18.317  0.00  0.00    +0.000 OA
ATOM      3  N   UNL     1       1.975   7.460  20.254  0.00  0.00    +0.000 N 
ATOM      4  H   UNL     1       2.409   6.692  20.742  0.00  0.00    +0.000 HD
ENDROOT
BRANCH   1   7
ATOM      5  C   UNL     1       3.716   4.433  17.306  0.00  0.00    +0.000 A 
ATOM      6  C   UNL     1       2.905   5.373  18.003  0.00  0.00    +0.000 A 
ATOM      7  C   UNL     1       3.281   6.721  18.180  0.00  0.00    +0.000 A 
ATOM      8  C   UNL     1       4.502   7.099  17.604  0.00  0.00    +0.000 A 
ATOM      9  C   UNL     1       5.342   6.170  16.923  0.00  0.00    +0.000 A 
ATOM     10  C   UNL     1       4.961   4.819  16.775  0.00  0.00    +0.000 A 
BRANCH   5  12
ATOM     11  C   UNL     1       2.183   2.708  17.905  0.00  0.00    +0.000 C 
ATOM     12  O   UNL     1       3.358   3.111  17.206  0.00  0.00    +0.000 OA
ENDBRANCH   5  12
BRANCH   9  13
ATOM     13  O   UNL     1       6.491   6.777  16.452  0.00  0.00    +0.000 OA
ATOM     14  C   UNL     1       7.408   7.367  17.370  0.00  0.00    +0.000 C 
ENDBRANCH   9  13
BRANCH  10  15
ATOM     15  O   UNL     1       5.866   3.996  16.161  0.00  0.00    +0.000 OA
ATOM     16  C   UNL     1       5.987   3.892  14.750  0.00  0.00    +0.000 C 
ENDBRANCH  10  15
ENDBRANCH   1   7
BRANCH   3  17
ATOM     17  C   UNL     1       1.365   8.492  21.144  0.00  0.00    +0.000 C 
BRANCH  17  18
ATOM     18  C   UNL     1       0.126   9.361  20.677  0.00  0.00    +0.000 C 
BRANCH  18  19
ATOM     19  C   UNL     1       0.334  10.882  20.537  0.00  0.00    +0.000 C 
ATOM     20  O   UNL     1       0.437  11.575  21.557  0.00  0.00    +0.000 OA
ATOM     21  N   UNL     1       0.503  11.475  19.237  0.00  0.00    +0.000 N 
ATOM     22  H   UNL     1       0.662  10.844  18.463  0.00  0.00    +0.000 HD
BRANCH  21  23
ATOM     23  C   UNL     1       1.267  12.783  19.189  0.00  0.00    +0.000 C 
ATOM     24  C   UNL     1       2.469  12.558  18.238  0.00  0.00    +0.000 C 
ATOM     25  C   UNL     1       3.504  13.669  18.362  0.00  0.00    +0.000 C 
ATOM     26  C   UNL     1       2.878  14.948  17.877  0.00  0.00    +0.000 C 
ATOM     27  C   UNL     1       1.698  15.252  18.757  0.00  0.00    +0.000 A 
ATOM     28  C   UNL     1       1.626  16.542  19.309  0.00  0.00    +0.000 A 
ATOM     29  C   UNL     1       0.460  16.946  19.927  0.00  0.00    +0.000 A 
ATOM     30  C   UNL     1      -0.633  16.095  19.904  0.00  0.00    +0.000 A 
ATOM     31  C   UNL     1      -0.522  14.743  19.471  0.00  0.00    +0.000 A 
ATOM     32  C   UNL     1       0.702  14.249  19.003  0.00  0.00    +0.000 A 
ENDBRANCH  21  23
ENDBRANCH  18  19
ENDBRANCH  17  18
ENDBRANCH   3  17
TORSDOF 8
ENDMDL
MODEL 6
REMARK VINA RESULT:      -6.6      0.864      2.070
REMARK  Name = 
REMARK  11 active torsions:
REMARK  status: ('A' for Active; 'I' for Inactive)
REMARK    1  A    between atoms: C_1  and  O_2
REMARK    2  A    between atoms: O_2  and  C_3
REMARK    3  A    between atoms: C_5  and  C_6
REMARK    4  A    between atoms: N_8  and  C_9
REMARK    5  A    between atoms: C_9  and  C_10
REMARK    6  A    between atoms: C_10  and  C_11
REMARK    7  A    between atoms: N_13  and  C_14
REMARK    8  A    between atoms: C_25  and  O_26
REMARK    9  A    between atoms: O_26  and  C_27
REMARK   10  A    between atoms: C_28  and  O_29
REMARK   11  A    between atoms: O_29  and  C_30
REMARK                            x       y       z     vdW  Elec       q    Type
REMARK                         _______ _______ _______ _____ _____    ______ ____
ROOT
ATOM      1  C   UNL     1       1.621   4.817  20.707  0.00  0.00    +0.000 C 
ATOM      2  O   UNL     1       2.429   4.445  21.583  0.00  0.00    +0.000 OA
ATOM      3  N   UNL     1       0.924   3.898  19.920  0.00  0.00    +0.000 N 
ATOM      4  H   UNL     1       0.387   4.245  19.140  0.00  0.00    +0.000 HD
ENDROOT
BRANCH   1   7
ATOM      5  C   UNL     1       0.489   8.508  21.198  0.00  0.00    +0.000 A 
ATOM      6  C   UNL     1       0.655   7.102  21.342  0.00  0.00    +0.000 A 
ATOM      7  C   UNL     1       1.466   6.337  20.478  0.00  0.00    +0.000 A 
ATOM      8  C   UNL     1       2.129   7.048  19.468  0.00  0.00    +0.000 A 
ATOM      9  C   UNL     1       1.959   8.452  19.288  0.00  0.00    +0.000 A 
ATOM     10  C   UNL     1       1.125   9.198  20.148  0.00  0.00    +0.000 A 
BRANCH   5  12
ATOM     11  C   UNL     1       0.127   9.560  23.306  0.00  0.00    +0.000 C 
ATOM     12  O   UNL     1      -0.359   9.218  22.011  0.00  0.00    +0.000 OA
ENDBRANCH   5  12
BRANCH   9  13
ATOM     13  O   UNL     1       2.707   8.921  18.225  0.00  0.00    +0.000 OA
ATOM     14  C   UNL     1       3.361   7.999  17.357  0.00  0.00    +0.000 C 
ENDBRANCH   9  13
BRANCH  10  15
ATOM     15  O   UNL     1       0.980  10.526  19.852  0.00  0.00    +0.000 OA
ATOM     16  C   UNL     1      -0.036  11.023  18.993  0.00  0.00    +0.000 C 
ENDBRANCH  10  15
ENDBRANCH   1   7
BRANCH   3  17
ATOM     17  C   UNL     1       1.259   2.445  19.840  0.00  0.00    +0.000 C 
BRANCH  17  18
ATOM     18  C   UNL     1       2.588   1.939  19.143  0.00  0.00    +0.000 C 
BRANCH  18  19
ATOM     19  C   UNL     1       3.223   2.848  18.073  0.00  0.00    +0.000 C 
ATOM     20  O   UNL     1       2.668   3.914  17.777  0.00  0.00    +0.000 OA
ATOM     21  N   UNL     1       4.495   2.507  17.493  0.00  0.00    +0.000 N 
ATOM     22  H   UNL     1       5.020   1.770  17.943  0.00  0.00    +0.000 HD
BRANCH  21  23
ATOM     23  C   UNL     1       5.313   3.659  16.943  0.00  0.00    +0.000 C 
ATOM     24  C   UNL     1       4.681   4.037  15.580  0.00  0.00    +0.000 C 
ATOM     25  C   UNL     1       5.597   4.938  14.763  0.00  0.00    +0.000 C 
ATOM     26  C   UNL     1       5.732   6.250  15.488  0.00  0.00    +0.000 C 
ATOM     27  C   UNL     1       6.351   5.978  16.831  0.00  0.00    +0.000 A 
ATOM     28  C   UNL     1       7.466   6.752  17.191  0.00  0.00    +0.000 A 
ATOM     29  C   UNL     1       7.926   6.708  18.490  0.00  0.00    +0.000 A 
ATOM     30  C   UNL     1       7.217   5.966  19.420  0.00  0.00    +0.000 A 
ATOM     31  C   UNL     1       6.176   5.075  19.033  0.00  0.00    +0.000 A 
ATOM     32  C   UNL     1       5.804   4.964  17.688  0.00  0.00    +0.000 A 
ENDBRANCH  21  23
ENDBRANCH  18  19
ENDBRANCH  17  18
ENDBRANCH   3  17
TORSDOF 8
ENDMDL
MODEL 7
REMARK VINA RESULT:      -6.6      3.112      4.550
REMARK  Name = 
REMARK  11 active torsions:
REMARK  status: ('A' for Active; 'I' for Inactive)
REMARK    1  A    between atoms: C_1  and  O_2
REMARK    2  A    between atoms: O_2  and  C_3
REMARK    3  A    between atoms: C_5  and  C_6
REMARK    4  A    between atoms: N_8  and  C_9
REMARK    5  A    between atoms: C_9  and  C_10
REMARK    6  A    between atoms: C_10  and  C_11
REMARK    7  A    between atoms: N_13  and  C_14
REMARK    8  A    between atoms: C_25  and  O_26
REMARK    9  A    between atoms: O_26  and  C_27
REMARK   10  A    between atoms: C_28  and  O_29
REMARK   11  A    between atoms: O_29  and  C_30
REMARK                            x       y       z     vdW  Elec       q    Type
REMARK                         _______ _______ _______ _____ _____    ______ ____
ROOT
ATOM      1  C   UNL     1       0.435  10.120  19.161  0.00  0.00    +0.000 C 
ATOM      2  O   UNL     1       1.384  10.469  18.427  0.00  0.00    +0.000 OA
ATOM      3  N   UNL     1       0.617   9.211  20.205  0.00  0.00    +0.000 N 
ATOM      4  H   UNL     1      -0.200   8.859  20.681  0.00  0.00    +0.000 HD
ENDROOT
BRANCH   1   7
ATOM      5  C   UNL     1      -2.912  12.075  19.509  0.00  0.00    +0.000 A 
ATOM      6  C   UNL     1      -1.630  11.509  19.761  0.00  0.00    +0.000 A 
ATOM      7  C   UNL     1      -0.966  10.682  18.832  0.00  0.00    +0.000 A 
ATOM      8  C   UNL     1      -1.632  10.462  17.619  0.00  0.00    +0.000 A 
ATOM      9  C   UNL     1      -2.927  10.998  17.353  0.00  0.00    +0.000 A 
ATOM     10  C   UNL     1      -3.587  11.805  18.304  0.00  0.00    +0.000 A 
BRANCH   5  12
ATOM     11  C   UNL     1      -3.002  14.091  20.779  0.00  0.00    +0.000 C 
ATOM     12  O   UNL     1      -3.566  12.821  20.458  0.00  0.00    +0.000 OA
ENDBRANCH   5  12
BRANCH   9  13
ATOM     13  O   UNL     1      -3.377  10.636  16.097  0.00  0.00    +0.000 OA
ATOM     14  C   UNL     1      -2.646   9.683  15.330  0.00  0.00    +0.000 C 
ENDBRANCH   9  13
BRANCH  10  15
ATOM     15  O   UNL     1      -4.851  12.217  17.978  0.00  0.00    +0.000 OA
ATOM     16  C   UNL     1      -5.980  11.355  18.008  0.00  0.00    +0.000 C 
ENDBRANCH  10  15
ENDBRANCH   1   7
BRANCH   3  17
ATOM     17  C   UNL     1       1.840   8.372  20.377  0.00  0.00    +0.000 C 
BRANCH  17  18
ATOM     18  C   UNL     1       1.870   6.850  19.937  0.00  0.00    +0.000 C 
BRANCH  18  19
ATOM     19  C   UNL     1       2.907   6.436  18.875  0.00  0.00    +0.000 C 
ATOM     20  O   UNL     1       2.986   7.080  17.821  0.00  0.00    +0.000 OA
ATOM     21  N   UNL     1       3.836   5.371  19.145  0.00  0.00    +0.000 N 
ATOM     22  H   UNL     1       3.897   5.048  20.101  0.00  0.00    +0.000 HD
BRANCH  21  23
ATOM     23  C   UNL     1       5.142   5.406  18.377  0.00  0.00    +0.000 C 
ATOM     24  C   UNL     1       6.275   5.281  19.425  0.00  0.00    +0.000 C 
ATOM     25  C   UNL     1       7.632   5.645  18.837  0.00  0.00    +0.000 C 
ATOM     26  C   UNL     1       7.978   4.621  17.790  0.00  0.00    +0.000 C 
ATOM     27  C   UNL     1       6.926   4.679  16.717  0.00  0.00    +0.000 A 
ATOM     28  C   UNL     1       7.371   4.794  15.390  0.00  0.00    +0.000 A 
ATOM     29  C   UNL     1       6.471   4.619  14.359  0.00  0.00    +0.000 A 
ATOM     30  C   UNL     1       5.172   4.248  14.669  0.00  0.00    +0.000 A 
ATOM     31  C   UNL     1       4.685   4.267  16.007  0.00  0.00    +0.000 A 
ATOM     32  C   UNL     1       5.535   4.618  17.063  0.00  0.00    +0.000 A 
ENDBRANCH  21  23
ENDBRANCH  18  19
ENDBRANCH  17  18
ENDBRANCH   3  17
TORSDOF 8
ENDMDL
MODEL 8
REMARK VINA RESULT:      -6.6      4.162      9.788
REMARK  Name = 
REMARK  11 active torsions:
REMARK  status: ('A' for Active; 'I' for Inactive)
REMARK    1  A    between atoms: C_1  and  O_2
REMARK    2  A    between atoms: O_2  and  C_3
REMARK    3  A    between atoms: C_5  and  C_6
REMARK    4  A    between atoms: N_8  and  C_9
REMARK    5  A    between atoms: C_9  and  C_10
REMARK    6  A    between atoms: C_10  and  C_11
REMARK    7  A    between atoms: N_13  and  C_14
REMARK    8  A    between atoms: C_25  and  O_26
REMARK    9  A    between atoms: O_26  and  C_27
REMARK   10  A    between atoms: C_28  and  O_29
REMARK   11  A    between atoms: O_29  and  C_30
REMARK                            x       y       z     vdW  Elec       q    Type
REMARK                         _______ _______ _______ _____ _____    ______ ____
ROOT
ATOM      1  C   UNL     1       1.821   7.936  19.849  0.00  0.00    +0.000 C 
ATOM      2  O   UNL     1       1.390   8.158  21.000  0.00  0.00    +0.000 OA
ATOM      3  N   UNL     1       1.712   8.889  18.834  0.00  0.00    +0.000 N 
ATOM      4  H   UNL     1       1.951   8.615  17.893  0.00  0.00    +0.000 HD
ENDROOT
BRANCH   1   7
ATOM      5  C   UNL     1       2.791   4.196  20.310  0.00  0.00    +0.000 A 
ATOM      6  C   UNL     1       2.279   5.508  20.517  0.00  0.00    +0.000 A 
ATOM      7  C   UNL     1       2.422   6.542  19.569  0.00  0.00    +0.000 A 
ATOM      8  C   UNL     1       3.084   6.199  18.382  0.00  0.00    +0.000 A 
ATOM      9  C   UNL     1       3.627   4.900  18.161  0.00  0.00    +0.000 A 
ATOM     10  C   UNL     1       3.495   3.883  19.131  0.00  0.00    +0.000 A 
BRANCH   5  12
ATOM     11  C   UNL     1       1.416   2.635  21.474  0.00  0.00    +0.000 C 
ATOM     12  O   UNL     1       2.698   3.227  21.278  0.00  0.00    +0.000 OA
ENDBRANCH   5  12
BRANCH   9  13
ATOM     13  O   UNL     1       4.237   4.809  16.924  0.00  0.00    +0.000 OA
ATOM     14  C   UNL     1       5.592   5.224  16.770  0.00  0.00    +0.000 C 
ENDBRANCH   9  13
BRANCH  10  15
ATOM     15  O   UNL     1       4.106   2.691  18.849  0.00  0.00    +0.000 OA
ATOM     16  C   UNL     1       3.442   1.612  18.208  0.00  0.00    +0.000 C 
ENDBRANCH  10  15
ENDBRANCH   1   7
BRANCH   3  17
ATOM     17  C   UNL     1       0.855  10.109  18.922  0.00  0.00    +0.000 C 
BRANCH  17  18
ATOM     18  C   UNL     1      -0.214  10.453  17.805  0.00  0.00    +0.000 C 
BRANCH  18  19
ATOM     19  C   UNL     1      -1.656  10.746  18.263  0.00  0.00    +0.000 C 
ATOM     20  O   UNL     1      -2.465   9.814  18.350  0.00  0.00    +0.000 OA
ATOM     21  N   UNL     1      -2.030  12.073  18.675  0.00  0.00    +0.000 N 
ATOM     22  H   UNL     1      -1.280  12.734  18.825  0.00  0.00    +0.000 HD
BRANCH  21  23
ATOM     23  C   UNL     1      -3.200  12.174  19.634  0.00  0.00    +0.000 C 
ATOM     24  C   UNL     1      -2.819  13.247  20.684  0.00  0.00    +0.000 C 
ATOM     25  C   UNL     1      -3.744  13.208  21.893  0.00  0.00    +0.000 C 
ATOM     26  C   UNL     1      -5.124  13.601  21.441  0.00  0.00    +0.000 C 
ATOM     27  C   UNL     1      -5.582  12.600  20.418  0.00  0.00    +0.000 A 
ATOM     28  C   UNL     1      -6.845  12.018  20.612  0.00  0.00    +0.000 A 
ATOM     29  C   UNL     1      -7.409  11.276  19.594  0.00  0.00    +0.000 A 
ATOM     30  C   UNL     1      -6.746  11.204  18.380  0.00  0.00    +0.000 A 
ATOM     31  C   UNL     1      -5.410  11.672  18.225  0.00  0.00    +0.000 A 
ATOM     32  C   UNL     1      -4.743  12.272  19.300  0.00  0.00    +0.000 A 
ENDBRANCH  21  23
ENDBRANCH  18  19
ENDBRANCH  17  18
ENDBRANCH   3  17
TORSDOF 8
ENDMDL
MODEL 9
REMARK VINA RESULT:      -6.5      3.565      9.477
REMARK  Name = 
REMARK  11 active torsions:
REMARK  status: ('A' for Active; 'I' for Inactive)
REMARK    1  A    between atoms: C_1  and  O_2
REMARK    2  A    between atoms: O_2  and  C_3
REMARK    3  A    between atoms: C_5  and  C_6
REMARK    4  A    between atoms: N_8  and  C_9
REMARK    5  A    between atoms: C_9  and  C_10
REMARK    6  A    between atoms: C_10  and  C_11
REMARK    7  A    between atoms: N_13  and  C_14
REMARK    8  A    between atoms: C_25  and  O_26
REMARK    9  A    between atoms: O_26  and  C_27
REMARK   10  A    between atoms: C_28  and  O_29
REMARK   11  A    between atoms: O_29  and  C_30
REMARK                            x       y       z     vdW  Elec       q    Type
REMARK                         _______ _______ _______ _____ _____    ______ ____
ROOT
ATOM      1  C   UNL     1       1.675   8.203  19.660  0.00  0.00    +0.000 C 
ATOM      2  O   UNL     1       1.739   9.002  18.703  0.00  0.00    +0.000 OA
ATOM      3  N   UNL     1       1.094   8.567  20.877  0.00  0.00    +0.000 N 
ATOM      4  H   UNL     1       1.186   7.937  21.659  0.00  0.00    +0.000 HD
ENDROOT
BRANCH   1   7
ATOM      5  C   UNL     1       3.784   5.309  18.137  0.00  0.00    +0.000 A 
ATOM      6  C   UNL     1       3.142   6.561  18.355  0.00  0.00    +0.000 A 
ATOM      7  C   UNL     1       2.322   6.813  19.474  0.00  0.00    +0.000 A 
ATOM      8  C   UNL     1       2.189   5.759  20.388  0.00  0.00    +0.000 A 
ATOM      9  C   UNL     1       2.802   4.488  20.180  0.00  0.00    +0.000 A 
ATOM     10  C   UNL     1       3.601   4.246  19.042  0.00  0.00    +0.000 A 
BRANCH   5  12
ATOM     11  C   UNL     1       5.059   6.205  16.333  0.00  0.00    +0.000 C 
ATOM     12  O   UNL     1       4.523   5.069  17.005  0.00  0.00    +0.000 OA
ENDBRANCH   5  12
BRANCH   9  13
ATOM     13  O   UNL     1       2.518   3.613  21.211  0.00  0.00    +0.000 OA
ATOM     14  C   UNL     1       1.354   2.794  21.146  0.00  0.00    +0.000 C 
ENDBRANCH   9  13
BRANCH  10  15
ATOM     15  O   UNL     1       4.092   2.976  18.903  0.00  0.00    +0.000 OA
ATOM     16  C   UNL     1       3.408   1.953  18.195  0.00  0.00    +0.000 C 
ENDBRANCH  10  15
ENDBRANCH   1   7
BRANCH   3  17
ATOM     17  C   UNL     1       0.757   9.973  21.253  0.00  0.00    +0.000 C 
BRANCH  17  18
ATOM     18  C   UNL     1       1.098  11.190  20.298  0.00  0.00    +0.000 C 
BRANCH  18  19
ATOM     19  C   UNL     1      -0.061  11.816  19.498  0.00  0.00    +0.000 C 
ATOM     20  O   UNL     1       0.193  12.622  18.595  0.00  0.00    +0.000 OA
ATOM     21  N   UNL     1      -1.416  11.395  19.736  0.00  0.00    +0.000 N 
ATOM     22  H   UNL     1      -1.546  10.565  20.297  0.00  0.00    +0.000 HD
BRANCH  21  23
ATOM     23  C   UNL     1      -2.386  11.571  18.584  0.00  0.00    +0.000 C 
ATOM     24  C   UNL     1      -1.988  10.530  17.508  0.00  0.00    +0.000 C 
ATOM     25  C   UNL     1      -2.651  10.820  16.168  0.00  0.00    +0.000 C 
ATOM     26  C   UNL     1      -4.136  10.639  16.332  0.00  0.00    +0.000 C 
ATOM     27  C   UNL     1      -4.615  11.624  17.360  0.00  0.00    +0.000 A 
ATOM     28  C   UNL     1      -5.713  12.429  17.014  0.00  0.00    +0.000 A 
ATOM     29  C   UNL     1      -6.334  13.179  17.991  0.00  0.00    +0.000 A 
ATOM     30  C   UNL     1      -5.908  13.043  19.302  0.00  0.00    +0.000 A 
ATOM     31  C   UNL     1      -4.715  12.341  19.635  0.00  0.00    +0.000 A 
ATOM     32  C   UNL     1      -3.960  11.717  18.634  0.00  0.00    +0.000 A 
ENDBRANCH  21  23
ENDBRANCH  18  19
ENDBRANCH  17  18
ENDBRANCH   3  17
TORSDOF 8
ENDMDL
