MODEL 1
REMARK VINA RESULT:      -6.5      0.000      0.000
REMARK  Name = 
REMARK  6 active torsions:
REMARK  status: ('A' for Active; 'I' for Inactive)
REMARK    1  A    between atoms: C_1  and  C_2
REMARK    2  A    between atoms: C_2  and  C_4
REMARK    3  A    between atoms: N_7  and  N_8
REMARK    4  A    between atoms: C_9  and  C_10
REMARK    5  A    between atoms: C_9  and  C_11
REMARK    6  A    between atoms: C_17  and  C_18
REMARK                            x       y       z     vdW  Elec       q    Type
REMARK                         _______ _______ _______ _____ _____    ______ ____
ROOT
ATOM      1  C   UNL     1       2.125   3.656  19.206  0.00  0.00    +0.000 A 
ATOM      2  S   UNL     1       2.592   5.127  18.462  0.00  0.00    +0.000 S 
ATOM      3  C   UNL     1       2.201   5.999  19.894  0.00  0.00    +0.000 A 
ATOM      4  N   UNL     1       2.341   7.354  19.901  0.00  0.00    +0.000 N 
ATOM      5  N   UNL     1       1.780   5.246  20.884  0.00  0.00    +0.000 NA
ATOM      6  C   UNL     1       1.756   3.909  20.520  0.00  0.00    +0.000 A 
ATOM      7  C   UNL     1       1.345   2.914  21.548  0.00  0.00    +0.000 C 
ATOM      8  H   UNL     1       2.643   7.744  19.016  0.00  0.00    +0.000 HD
ENDROOT
BRANCH   1  10
ATOM      9  C   UNL     1       3.490   1.713  18.261  0.00  0.00    +0.000 C 
ATOM     10  C   UNL     1       2.155   2.380  18.507  0.00  0.00    +0.000 C 
ATOM     11  O   UNL     1       1.132   1.829  18.092  0.00  0.00    +0.000 OA
ENDBRANCH   1  10
BRANCH   4  12
ATOM     12  N   UNL     1       1.623   8.144  20.751  0.00  0.00    +0.000 NA
ATOM     13  C   UNL     1       0.974   9.180  20.301  0.00  0.00    +0.000 C 
ATOM     14  C   UNL     1       1.000   9.654  18.859  0.00  0.00    +0.000 C 
BRANCH  13  15
ATOM     15  C   UNL     1       0.162   9.915  21.272  0.00  0.00    +0.000 A 
ATOM     16  C   UNL     1      -0.177   9.514  22.554  0.00  0.00    +0.000 A 
ATOM     17  C   UNL     1      -0.989  10.464  23.238  0.00  0.00    +0.000 A 
ATOM     18  C   UNL     1      -1.254  11.566  22.457  0.00  0.00    +0.000 A 
ATOM     19  S   UNL     1      -0.529  11.444  20.916  0.00  0.00    +0.000 S 
ENDBRANCH  13  15
ENDBRANCH   4  12
TORSDOF 3
ENDMDL
MODEL 2
REMARK VINA RESULT:      -6.2      5.066      8.160
REMARK  Name = 
REMARK  6 active torsions:
REMARK  status: ('A' for Active; 'I' for Inactive)
REMARK    1  A    between atoms: C_1  and  C_2
REMARK    2  A    between atoms: C_2  and  C_4
REMARK    3  A    between atoms: N_7  and  N_8
REMARK    4  A    between atoms: C_9  and  C_10
REMARK    5  A    between atoms: C_9  and  C_11
REMARK    6  A    between atoms: C_17  and  C_18
REMARK                            x       y       z     vdW  Elec       q    Type
REMARK                         _______ _______ _______ _____ _____    ______ ____
ROOT
ATOM      1  C   UNL     1       3.159   3.511  19.705  0.00  0.00    +0.000 A 
ATOM      2  S   UNL     1       4.138   4.909  19.554  0.00  0.00    +0.000 S 
ATOM      3  C   UNL     1       4.040   4.817  17.837  0.00  0.00    +0.000 A 
ATOM      4  N   UNL     1       4.717   5.731  17.087  0.00  0.00    +0.000 N 
ATOM      5  N   UNL     1       3.297   3.830  17.393  0.00  0.00    +0.000 NA
ATOM      6  C   UNL     1       2.767   3.093  18.441  0.00  0.00    +0.000 A 
ATOM      7  C   UNL     1       1.860   1.961  18.107  0.00  0.00    +0.000 C 
ATOM      8  H   UNL     1       5.265   6.388  17.630  0.00  0.00    +0.000 HD
ENDROOT
BRANCH   1  10
ATOM      9  C   UNL     1       1.457   3.193  21.585  0.00  0.00    +0.000 C 
ATOM     10  C   UNL     1       2.824   2.925  20.994  0.00  0.00    +0.000 C 
ATOM     11  O   UNL     1       3.619   2.230  21.632  0.00  0.00    +0.000 OA
ENDBRANCH   1  10
BRANCH   4  12
ATOM     12  N   UNL     1       5.100   5.463  15.806  0.00  0.00    +0.000 NA
ATOM     13  C   UNL     1       6.243   4.885  15.565  0.00  0.00    +0.000 C 
ATOM     14  C   UNL     1       7.268   4.527  16.626  0.00  0.00    +0.000 C 
BRANCH  13  15
ATOM     15  C   UNL     1       6.529   4.558  14.167  0.00  0.00    +0.000 A 
ATOM     16  C   UNL     1       5.889   3.614  13.380  0.00  0.00    +0.000 A 
ATOM     17  C   UNL     1       6.418   3.540  12.059  0.00  0.00    +0.000 A 
ATOM     18  C   UNL     1       7.452   4.429  11.872  0.00  0.00    +0.000 A 
ATOM     19  S   UNL     1       7.777   5.335  13.283  0.00  0.00    +0.000 S 
ENDBRANCH  13  15
ENDBRANCH   4  12
TORSDOF 3
ENDMDL
MODEL 3
REMARK VINA RESULT:      -6.1      4.968      8.130
REMARK  Name = 
REMARK  6 active torsions:
REMARK  status: ('A' for Active; 'I' for Inactive)
REMARK    1  A    between atoms: C_1  and  C_2
REMARK    2  A    between atoms: C_2  and  C_4
REMARK    3  A    between atoms: N_7  and  N_8
REMARK    4  A    between atoms: C_9  and  C_10
REMARK    5  A    between atoms: C_9  and  C_11
REMARK    6  A    between atoms: C_17  and  C_18
REMARK                            x       y       z     vdW  Elec       q    Type
REMARK                         _______ _______ _______ _____ _____    ______ ____
ROOT
ATOM      1  C   UNL     1       3.225   3.676  19.590  0.00  0.00    +0.000 A 
ATOM      2  S   UNL     1       4.102   5.145  19.506  0.00  0.00    +0.000 S 
ATOM      3  C   UNL     1       4.117   5.062  17.787  0.00  0.00    +0.000 A 
ATOM      4  N   UNL     1       4.768   6.031  17.084  0.00  0.00    +0.000 N 
ATOM      5  N   UNL     1       3.481   4.025  17.293  0.00  0.00    +0.000 NA
ATOM      6  C   UNL     1       2.945   3.241  18.302  0.00  0.00    +0.000 A 
ATOM      7  C   UNL     1       2.149   2.046  17.908  0.00  0.00    +0.000 C 
ATOM      8  H   UNL     1       5.230   6.723  17.663  0.00  0.00    +0.000 HD
ENDROOT
BRANCH   1  10
ATOM      9  C   UNL     1       1.501   3.363  21.451  0.00  0.00    +0.000 C 
ATOM     10  C   UNL     1       2.856   3.055  20.853  0.00  0.00    +0.000 C 
ATOM     11  O   UNL     1       3.614   2.297  21.464  0.00  0.00    +0.000 OA
ENDBRANCH   1  10
BRANCH   4  12
ATOM     12  N   UNL     1       5.249   5.804  15.828  0.00  0.00    +0.000 NA
ATOM     13  C   UNL     1       6.357   5.140  15.655  0.00  0.00    +0.000 C 
ATOM     14  C   UNL     1       7.241   4.630  16.778  0.00  0.00    +0.000 C 
BRANCH  13  15
ATOM     15  C   UNL     1       6.748   4.871  14.270  0.00  0.00    +0.000 A 
ATOM     16  C   UNL     1       7.744   5.502  13.543  0.00  0.00    +0.000 A 
ATOM     17  C   UNL     1       7.863   5.005  12.213  0.00  0.00    +0.000 A 
ATOM     18  C   UNL     1       6.950   4.007  11.958  0.00  0.00    +0.000 A 
ATOM     19  S   UNL     1       5.962   3.685  13.312  0.00  0.00    +0.000 S 
ENDBRANCH  13  15
ENDBRANCH   4  12
TORSDOF 3
ENDMDL
MODEL 4
REMARK VINA RESULT:      -6.0      3.596      4.249
REMARK  Name = 
REMARK  6 active torsions:
REMARK  status: ('A' for Active; 'I' for Inactive)
REMARK    1  A    between atoms: C_1  and  C_2
REMARK    2  A    between atoms: C_2  and  C_4
REMARK    3  A    between atoms: N_7  and  N_8
REMARK    4  A    between atoms: C_9  and  C_10
REMARK    5  A    between atoms: C_9  and  C_11
REMARK    6  A    between atoms: C_17  and  C_18
REMARK                            x       y       z     vdW  Elec       q    Type
REMARK                         _______ _______ _______ _____ _____    ______ ____
ROOT
ATOM      1  C   UNL     1       6.002   5.421  16.768  0.00  0.00    +0.000 A 
ATOM      2  S   UNL     1       4.407   4.801  16.840  0.00  0.00    +0.000 S 
ATOM      3  C   UNL     1       3.886   6.188  17.718  0.00  0.00    +0.000 A 
ATOM      4  N   UNL     1       2.590   6.259  18.133  0.00  0.00    +0.000 N 
ATOM      5  N   UNL     1       4.827   7.080  17.921  0.00  0.00    +0.000 NA
ATOM      6  C   UNL     1       6.030   6.674  17.365  0.00  0.00    +0.000 A 
ATOM      7  C   UNL     1       7.192   7.598  17.467  0.00  0.00    +0.000 C 
ATOM      8  H   UNL     1       2.037   5.441  17.906  0.00  0.00    +0.000 HD
ENDROOT
BRANCH   1  10
ATOM      9  C   UNL     1       7.091   4.504  14.645  0.00  0.00    +0.000 C 
ATOM     10  C   UNL     1       7.098   4.693  16.147  0.00  0.00    +0.000 C 
ATOM     11  O   UNL     1       8.026   4.209  16.799  0.00  0.00    +0.000 OA
ENDBRANCH   1  10
BRANCH   4  12
ATOM     12  N   UNL     1       2.221   7.018  19.204  0.00  0.00    +0.000 NA
ATOM     13  C   UNL     1       1.728   8.212  19.031  0.00  0.00    +0.000 C 
ATOM     14  C   UNL     1       1.582   8.896  17.684  0.00  0.00    +0.000 C 
BRANCH  13  15
ATOM     15  C   UNL     1       1.280   8.915  20.234  0.00  0.00    +0.000 A 
ATOM     16  C   UNL     1       1.279   8.435  21.534  0.00  0.00    +0.000 A 
ATOM     17  C   UNL     1       0.769   9.376  22.474  0.00  0.00    +0.000 A 
ATOM     18  C   UNL     1       0.390  10.551  21.867  0.00  0.00    +0.000 A 
ATOM     19  S   UNL     1       0.646  10.508  20.179  0.00  0.00    +0.000 S 
ENDBRANCH  13  15
ENDBRANCH   4  12
TORSDOF 3
ENDMDL
MODEL 5
REMARK VINA RESULT:      -5.9      2.745      3.147
REMARK  Name = 
REMARK  6 active torsions:
REMARK  status: ('A' for Active; 'I' for Inactive)
REMARK    1  A    between atoms: C_1  and  C_2
REMARK    2  A    between atoms: C_2  and  C_4
REMARK    3  A    between atoms: N_7  and  N_8
REMARK    4  A    between atoms: C_9  and  C_10
REMARK    5  A    between atoms: C_9  and  C_11
REMARK    6  A    between atoms: C_17  and  C_18
REMARK                            x       y       z     vdW  Elec       q    Type
REMARK                         _______ _______ _______ _____ _____    ______ ____
ROOT
ATOM      1  C   UNL     1       3.799   5.270  18.848  0.00  0.00    +0.000 A 
ATOM      2  S   UNL     1       3.979   6.539  17.712  0.00  0.00    +0.000 S 
ATOM      3  C   UNL     1       2.648   7.379  18.408  0.00  0.00    +0.000 A 
ATOM      4  N   UNL     1       2.248   8.558  17.854  0.00  0.00    +0.000 N 
ATOM      5  N   UNL     1       2.115   6.777  19.446  0.00  0.00    +0.000 NA
ATOM      6  C   UNL     1       2.774   5.590  19.727  0.00  0.00    +0.000 A 
ATOM      7  C   UNL     1       2.321   4.805  20.908  0.00  0.00    +0.000 C 
ATOM      8  H   UNL     1       2.771   8.827  17.030  0.00  0.00    +0.000 HD
ENDROOT
BRANCH   1  10
ATOM      9  C   UNL     1       4.072   2.791  18.289  0.00  0.00    +0.000 C 
ATOM     10  C   UNL     1       4.640   4.082  18.836  0.00  0.00    +0.000 C 
ATOM     11  O   UNL     1       5.794   4.085  19.269  0.00  0.00    +0.000 OA
ENDBRANCH   1  10
BRANCH   4  12
ATOM     12  N   UNL     1       0.972   9.020  17.997  0.00  0.00    +0.000 NA
ATOM     13  C   UNL     1       0.750  10.266  18.304  0.00  0.00    +0.000 C 
ATOM     14  C   UNL     1       1.834  11.287  18.601  0.00  0.00    +0.000 C 
BRANCH  13  15
ATOM     15  C   UNL     1      -0.651  10.690  18.349  0.00  0.00    +0.000 A 
ATOM     16  C   UNL     1      -1.712  10.148  17.641  0.00  0.00    +0.000 A 
ATOM     17  C   UNL     1      -2.950  10.800  17.910  0.00  0.00    +0.000 A 
ATOM     18  C   UNL     1      -2.801  11.827  18.814  0.00  0.00    +0.000 A 
ATOM     19  S   UNL     1      -1.180  11.997  19.324  0.00  0.00    +0.000 S 
ENDBRANCH  13  15
ENDBRANCH   4  12
TORSDOF 3
ENDMDL
MODEL 6
REMARK VINA RESULT:      -5.8      2.010      2.307
REMARK  Name = 
REMARK  6 active torsions:
REMARK  status: ('A' for Active; 'I' for Inactive)
REMARK    1  A    between atoms: C_1  and  C_2
REMARK    2  A    between atoms: C_2  and  C_4
REMARK    3  A    between atoms: N_7  and  N_8
REMARK    4  A    between atoms: C_9  and  C_10
REMARK    5  A    between atoms: C_9  and  C_11
REMARK    6  A    between atoms: C_17  and  C_18
REMARK                            x       y       z     vdW  Elec       q    Type
REMARK                         _______ _______ _______ _____ _____    ______ ____
ROOT
ATOM      1  C   UNL     1       3.035   3.917  19.576  0.00  0.00    +0.000 A 
ATOM      2  S   UNL     1       3.891   5.391  19.396  0.00  0.00    +0.000 S 
ATOM      3  C   UNL     1       2.520   6.278  19.943  0.00  0.00    +0.000 A 
ATOM      4  N   UNL     1       2.587   7.638  19.985  0.00  0.00    +0.000 N 
ATOM      5  N   UNL     1       1.493   5.529  20.274  0.00  0.00    +0.000 NA
ATOM      6  C   UNL     1       1.777   4.184  20.098  0.00  0.00    +0.000 A 
ATOM      7  C   UNL     1       0.729   3.196  20.474  0.00  0.00    +0.000 C 
ATOM      8  H   UNL     1       3.461   8.020  19.645  0.00  0.00    +0.000 HD
ENDROOT
BRANCH   1  10
ATOM      9  C   UNL     1       3.163   1.945  17.956  0.00  0.00    +0.000 C 
ATOM     10  C   UNL     1       3.613   2.628  19.229  0.00  0.00    +0.000 C 
ATOM     11  O   UNL     1       4.447   2.063  19.941  0.00  0.00    +0.000 OA
ENDBRANCH   1  10
BRANCH   4  12
ATOM     12  N   UNL     1       1.466   8.412  19.916  0.00  0.00    +0.000 NA
ATOM     13  C   UNL     1       1.283   9.224  18.913  0.00  0.00    +0.000 C 
ATOM     14  C   UNL     1       2.284   9.450  17.794  0.00  0.00    +0.000 C 
BRANCH  13  15
ATOM     15  C   UNL     1       0.011   9.948  18.882  0.00  0.00    +0.000 A 
ATOM     16  C   UNL     1      -0.938   9.929  17.873  0.00  0.00    +0.000 A 
ATOM     17  C   UNL     1      -2.065  10.755  18.154  0.00  0.00    +0.000 A 
ATOM     18  C   UNL     1      -1.944  11.388  19.370  0.00  0.00    +0.000 A 
ATOM     19  S   UNL     1      -0.482  10.986  20.155  0.00  0.00    +0.000 S 
ENDBRANCH  13  15
ENDBRANCH   4  12
TORSDOF 3
ENDMDL
MODEL 7
REMARK VINA RESULT:      -5.8      2.549      2.892
REMARK  Name = 
REMARK  6 active torsions:
REMARK  status: ('A' for Active; 'I' for Inactive)
REMARK    1  A    between atoms: C_1  and  C_2
REMARK    2  A    between atoms: C_2  and  C_4
REMARK    3  A    between atoms: N_7  and  N_8
REMARK    4  A    between atoms: C_9  and  C_10
REMARK    5  A    between atoms: C_9  and  C_11
REMARK    6  A    between atoms: C_17  and  C_18
REMARK                            x       y       z     vdW  Elec       q    Type
REMARK                         _______ _______ _______ _____ _____    ______ ____
ROOT
ATOM      1  C   UNL     1       3.648   5.103  18.883  0.00  0.00    +0.000 A 
ATOM      2  S   UNL     1       3.876   6.410  17.799  0.00  0.00    +0.000 S 
ATOM      3  C   UNL     1       2.670   7.326  18.618  0.00  0.00    +0.000 A 
ATOM      4  N   UNL     1       2.347   8.564  18.148  0.00  0.00    +0.000 N 
ATOM      5  N   UNL     1       2.147   6.718  19.657  0.00  0.00    +0.000 NA
ATOM      6  C   UNL     1       2.709   5.465  19.839  0.00  0.00    +0.000 A 
ATOM      7  C   UNL     1       2.257   4.661  21.007  0.00  0.00    +0.000 C 
ATOM      8  H   UNL     1       2.844   8.829  17.305  0.00  0.00    +0.000 HD
ENDROOT
BRANCH   1  10
ATOM      9  C   UNL     1       3.805   2.756  17.884  0.00  0.00    +0.000 C 
ATOM     10  C   UNL     1       4.376   3.849  18.761  0.00  0.00    +0.000 C 
ATOM     11  O   UNL     1       5.433   3.636  19.359  0.00  0.00    +0.000 OA
ENDBRANCH   1  10
BRANCH   4  12
ATOM     12  N   UNL     1       1.129   9.127  18.392  0.00  0.00    +0.000 NA
ATOM     13  C   UNL     1       0.995  10.423  18.426  0.00  0.00    +0.000 C 
ATOM     14  C   UNL     1       2.137  11.412  18.280  0.00  0.00    +0.000 C 
BRANCH  13  15
ATOM     15  C   UNL     1      -0.365  10.935  18.607  0.00  0.00    +0.000 A 
ATOM     16  C   UNL     1      -0.778  11.917  19.492  0.00  0.00    +0.000 A 
ATOM     17  C   UNL     1      -2.178  12.176  19.421  0.00  0.00    +0.000 A 
ATOM     18  C   UNL     1      -2.798  11.381  18.485  0.00  0.00    +0.000 A 
ATOM     19  S   UNL     1      -1.696  10.332  17.709  0.00  0.00    +0.000 S 
ENDBRANCH  13  15
ENDBRANCH   4  12
TORSDOF 3
ENDMDL
MODEL 8
REMARK VINA RESULT:      -5.8      2.943      3.619
REMARK  Name = 
REMARK  6 active torsions:
REMARK  status: ('A' for Active; 'I' for Inactive)
REMARK    1  A    between atoms: C_1  and  C_2
REMARK    2  A    between atoms: C_2  and  C_4
REMARK    3  A    between atoms: N_7  and  N_8
REMARK    4  A    between atoms: C_9  and  C_10
REMARK    5  A    between atoms: C_9  and  C_11
REMARK    6  A    between atoms: C_17  and  C_18
REMARK                            x       y       z     vdW  Elec       q    Type
REMARK                         _______ _______ _______ _____ _____    ______ ____
ROOT
ATOM      1  C   UNL     1       4.040   5.490  17.860  0.00  0.00    +0.000 A 
ATOM      2  S   UNL     1       4.391   7.147  17.602  0.00  0.00    +0.000 S 
ATOM      3  C   UNL     1       2.763   7.570  17.967  0.00  0.00    +0.000 A 
ATOM      4  N   UNL     1       2.385   8.877  17.886  0.00  0.00    +0.000 N 
ATOM      5  N   UNL     1       2.003   6.550  18.295  0.00  0.00    +0.000 NA
ATOM      6  C   UNL     1       2.719   5.364  18.266  0.00  0.00    +0.000 A 
ATOM      7  C   UNL     1       2.013   4.114  18.659  0.00  0.00    +0.000 C 
ATOM      8  H   UNL     1       3.119   9.501  17.573  0.00  0.00    +0.000 HD
ENDROOT
BRANCH   1  10
ATOM      9  C   UNL     1       5.272   3.899  16.284  0.00  0.00    +0.000 C 
ATOM     10  C   UNL     1       5.033   4.442  17.676  0.00  0.00    +0.000 C 
ATOM     11  O   UNL     1       5.676   3.967  18.615  0.00  0.00    +0.000 OA
ENDBRANCH   1  10
BRANCH   4  12
ATOM     12  N   UNL     1       1.087   9.235  17.667  0.00  0.00    +0.000 NA
ATOM     13  C   UNL     1       0.430   9.917  18.561  0.00  0.00    +0.000 C 
ATOM     14  C   UNL     1       0.979  10.311  19.920  0.00  0.00    +0.000 C 
BRANCH  13  15
ATOM     15  C   UNL     1      -0.928  10.330  18.200  0.00  0.00    +0.000 A 
ATOM     16  C   UNL     1      -1.707   9.835  17.167  0.00  0.00    +0.000 A 
ATOM     17  C   UNL     1      -2.984  10.461  17.084  0.00  0.00    +0.000 A 
ATOM     18  C   UNL     1      -3.146  11.423  18.055  0.00  0.00    +0.000 A 
ATOM     19  S   UNL     1      -1.764  11.565  19.049  0.00  0.00    +0.000 S 
ENDBRANCH  13  15
ENDBRANCH   4  12
TORSDOF 3
ENDMDL
MODEL 9
REMARK VINA RESULT:      -5.7      1.898      2.416
REMARK  Name = 
REMARK  6 active torsions:
REMARK  status: ('A' for Active; 'I' for Inactive)
REMARK    1  A    between atoms: C_1  and  C_2
REMARK    2  A    between atoms: C_2  and  C_4
REMARK    3  A    between atoms: N_7  and  N_8
REMARK    4  A    between atoms: C_9  and  C_10
REMARK    5  A    between atoms: C_9  and  C_11
REMARK    6  A    between atoms: C_17  and  C_18
REMARK                            x       y       z     vdW  Elec       q    Type
REMARK                         _______ _______ _______ _____ _____    ______ ____
ROOT
ATOM      1  C   UNL     1       3.322   3.833  19.541  0.00  0.00    +0.000 A 
ATOM      2  S   UNL     1       4.224   5.261  19.253  0.00  0.00    +0.000 S 
ATOM      3  C   UNL     1       2.811   6.222  19.467  0.00  0.00    +0.000 A 
ATOM      4  N   UNL     1       2.899   7.572  19.307  0.00  0.00    +0.000 N 
ATOM      5  N   UNL     1       1.734   5.534  19.768  0.00  0.00    +0.000 NA
ATOM      6  C   UNL     1       2.011   4.177  19.841  0.00  0.00    +0.000 A 
ATOM      7  C   UNL     1       0.903   3.260  20.220  0.00  0.00    +0.000 C 
ATOM      8  H   UNL     1       3.819   7.897  19.034  0.00  0.00    +0.000 HD
ENDROOT
BRANCH   1  10
ATOM      9  C   UNL     1       3.479   1.564  18.376  0.00  0.00    +0.000 C 
ATOM     10  C   UNL     1       3.915   2.506  19.477  0.00  0.00    +0.000 C 
ATOM     11  O   UNL     1       4.749   2.114  20.296  0.00  0.00    +0.000 OA
ENDBRANCH   1  10
BRANCH   4  12
ATOM     12  N   UNL     1       1.814   8.326  18.970  0.00  0.00    +0.000 NA
ATOM     13  C   UNL     1       1.159   8.987  19.882  0.00  0.00    +0.000 C 
ATOM     14  C   UNL     1       1.464   8.940  21.368  0.00  0.00    +0.000 C 
BRANCH  13  15
ATOM     15  C   UNL     1       0.063   9.837  19.412  0.00  0.00    +0.000 A 
ATOM     16  C   UNL     1      -0.494   9.861  18.143  0.00  0.00    +0.000 A 
ATOM     17  C   UNL     1      -1.545  10.814  18.015  0.00  0.00    +0.000 A 
ATOM     18  C   UNL     1      -1.761  11.497  19.189  0.00  0.00    +0.000 A 
ATOM     19  S   UNL     1      -0.700  10.991  20.427  0.00  0.00    +0.000 S 
ENDBRANCH  13  15
ENDBRANCH   4  12
TORSDOF 3
ENDMDL
