MODEL 1
REMARK VINA RESULT:      -7.7      0.000      0.000
REMARK  Name = 
REMARK  7 active torsions:
REMARK  status: ('A' for Active; 'I' for Inactive)
REMARK    1  A    between atoms: C_1  and  O_2
REMARK    2  A    between atoms: O_2  and  C_3
REMARK    3  A    between atoms: C_6  and  O_7
REMARK    4  A    between atoms: O_7  and  C_8
REMARK    5  A    between atoms: C_8  and  C_9
REMARK    6  A    between atoms: N_11  and  S_12
REMARK    7  A    between atoms: S_12  and  C_15
REMARK                            x       y       z     vdW  Elec       q    Type
REMARK                         _______ _______ _______ _____ _____    ______ ____
ROOT
ATOM      1  C   UNL     1       7.250   7.304  17.654  0.00  0.00    +0.000 C 
ATOM      2  C   UNL     1       5.711   7.152  17.604  0.00  0.00    +0.000 C 
ATOM      3  N   UNL     1       5.899   5.903  16.773  0.00  0.00    +0.000 NA
ATOM      4  C   UNL     1       7.218   6.496  16.338  0.00  0.00    +0.000 C 
ENDROOT
BRANCH   3   5
ATOM      5  S   UNL     1       5.804   4.322  17.453  0.00  0.00    +0.000 S 
ATOM      6  O   UNL     1       5.791   3.361  16.369  0.00  0.00    +0.000 OA
ATOM      7  O   UNL     1       6.764   4.242  18.532  0.00  0.00    +0.000 OA
BRANCH   5   8
ATOM      8  C   UNL     1       4.174   4.377  18.155  0.00  0.00    +0.000 A 
ATOM      9  C   UNL     1       3.041   4.321  17.314  0.00  0.00    +0.000 A 
ATOM     10  C   UNL     1       1.778   4.101  17.871  0.00  0.00    +0.000 A 
ATOM     11  C   UNL     1       1.716   3.906  19.234  0.00  0.00    +0.000 A 
ATOM     12  C   UNL     1       2.827   4.021  20.046  0.00  0.00    +0.000 A 
ATOM     13  C   UNL     1       4.072   4.295  19.543  0.00  0.00    +0.000 A 
ATOM     14  O   UNL     1       2.550   3.709  21.341  0.00  0.00    +0.000 OA
ATOM     15  C   UNL     1       1.272   3.069  21.156  0.00  0.00    +0.000 C 
ATOM     16  O   UNL     1       0.625   3.485  19.934  0.00  0.00    +0.000 OA
ENDBRANCH   5   8
ENDBRANCH   3   5
BRANCH   1  17
ATOM     17  C   UNL     1       7.832   8.705  17.638  0.00  0.00    +0.000 C 
BRANCH  17  18
ATOM     18  O   UNL     1       8.695   8.808  18.768  0.00  0.00    +0.000 OA
BRANCH  18  22
ATOM     19  C   UNL     1      10.065  12.690  19.415  0.00  0.00    +0.000 A 
ATOM     20  C   UNL     1       9.876  12.180  18.134  0.00  0.00    +0.000 A 
ATOM     21  C   UNL     1       9.411  10.873  17.955  0.00  0.00    +0.000 A 
ATOM     22  C   UNL     1       9.171  10.054  19.058  0.00  0.00    +0.000 A 
ATOM     23  C   UNL     1       9.368  10.562  20.340  0.00  0.00    +0.000 A 
ATOM     24  C   UNL     1       9.819  11.874  20.522  0.00  0.00    +0.000 A 
BRANCH  19  26
ATOM     25  C   UNL     1      10.281  14.771  18.312  0.00  0.00    +0.000 C 
ATOM     26  O   UNL     1      10.524  13.976  19.468  0.00  0.00    +0.000 OA
ENDBRANCH  19  26
ENDBRANCH  18  22
ENDBRANCH  17  18
ENDBRANCH   1  17
TORSDOF 6
ENDMDL
MODEL 2
REMARK VINA RESULT:      -7.6      4.982      7.564
REMARK  Name = 
REMARK  7 active torsions:
REMARK  status: ('A' for Active; 'I' for Inactive)
REMARK    1  A    between atoms: C_1  and  O_2
REMARK    2  A    between atoms: O_2  and  C_3
REMARK    3  A    between atoms: C_6  and  O_7
REMARK    4  A    between atoms: O_7  and  C_8
REMARK    5  A    between atoms: C_8  and  C_9
REMARK    6  A    between atoms: N_11  and  S_12
REMARK    7  A    between atoms: S_12  and  C_15
REMARK                            x       y       z     vdW  Elec       q    Type
REMARK                         _______ _______ _______ _____ _____    ______ ____
ROOT
ATOM      1  C   UNL     1       2.272   5.299  20.306  0.00  0.00    +0.000 C 
ATOM      2  C   UNL     1       1.584   3.986  19.863  0.00  0.00    +0.000 C 
ATOM      3  N   UNL     1       2.499   3.958  18.659  0.00  0.00    +0.000 NA
ATOM      4  C   UNL     1       2.590   5.458  18.803  0.00  0.00    +0.000 C 
ENDROOT
BRANCH   3   5
ATOM      5  S   UNL     1       3.910   2.971  18.598  0.00  0.00    +0.000 S 
ATOM      6  O   UNL     1       4.485   2.917  19.927  0.00  0.00    +0.000 OA
ATOM      7  O   UNL     1       3.584   1.772  17.858  0.00  0.00    +0.000 OA
BRANCH   5   8
ATOM      8  C   UNL     1       4.962   3.985  17.588  0.00  0.00    +0.000 A 
ATOM      9  C   UNL     1       6.122   4.570  18.142  0.00  0.00    +0.000 A 
ATOM     10  C   UNL     1       7.077   5.142  17.298  0.00  0.00    +0.000 A 
ATOM     11  C   UNL     1       6.846   5.063  15.941  0.00  0.00    +0.000 A 
ATOM     12  C   UNL     1       5.680   4.539  15.421  0.00  0.00    +0.000 A 
ATOM     13  C   UNL     1       4.693   4.023  16.221  0.00  0.00    +0.000 A 
ATOM     14  O   UNL     1       5.701   4.488  14.062  0.00  0.00    +0.000 OA
ATOM     15  C   UNL     1       7.109   4.703  13.845  0.00  0.00    +0.000 C 
ATOM     16  O   UNL     1       7.736   5.377  14.958  0.00  0.00    +0.000 OA
ENDBRANCH   5   8
ENDBRANCH   3   5
BRANCH   1  17
ATOM     17  C   UNL     1       1.423   6.356  20.989  0.00  0.00    +0.000 C 
BRANCH  17  18
ATOM     18  O   UNL     1       1.796   7.613  20.428  0.00  0.00    +0.000 OA
BRANCH  18  22
ATOM     19  C   UNL     1      -0.296  11.012  21.627  0.00  0.00    +0.000 A 
ATOM     20  C   UNL     1       0.157  10.848  20.320  0.00  0.00    +0.000 A 
ATOM     21  C   UNL     1       0.853   9.692  19.953  0.00  0.00    +0.000 A 
ATOM     22  C   UNL     1       1.136   8.710  20.901  0.00  0.00    +0.000 A 
ATOM     23  C   UNL     1       0.690   8.876  22.210  0.00  0.00    +0.000 A 
ATOM     24  C   UNL     1      -0.020  10.026  22.577  0.00  0.00    +0.000 A 
BRANCH  19  26
ATOM     25  C   UNL     1      -2.099  12.082  22.718  0.00  0.00    +0.000 C 
ATOM     26  O   UNL     1      -0.960  12.180  21.870  0.00  0.00    +0.000 OA
ENDBRANCH  19  26
ENDBRANCH  18  22
ENDBRANCH  17  18
ENDBRANCH   1  17
TORSDOF 6
ENDMDL
MODEL 3
REMARK VINA RESULT:      -7.6      5.056      7.576
REMARK  Name = 
REMARK  7 active torsions:
REMARK  status: ('A' for Active; 'I' for Inactive)
REMARK    1  A    between atoms: C_1  and  O_2
REMARK    2  A    between atoms: O_2  and  C_3
REMARK    3  A    between atoms: C_6  and  O_7
REMARK    4  A    between atoms: O_7  and  C_8
REMARK    5  A    between atoms: C_8  and  C_9
REMARK    6  A    between atoms: N_11  and  S_12
REMARK    7  A    between atoms: S_12  and  C_15
REMARK                            x       y       z     vdW  Elec       q    Type
REMARK                         _______ _______ _______ _____ _____    ______ ____
ROOT
ATOM      1  C   UNL     1       2.173   5.497  20.342  0.00  0.00    +0.000 C 
ATOM      2  C   UNL     1       1.454   4.260  19.755  0.00  0.00    +0.000 C 
ATOM      3  N   UNL     1       2.470   4.248  18.635  0.00  0.00    +0.000 NA
ATOM      4  C   UNL     1       2.634   5.728  18.885  0.00  0.00    +0.000 C 
ENDROOT
BRANCH   3   5
ATOM      5  S   UNL     1       3.823   3.180  18.631  0.00  0.00    +0.000 S 
ATOM      6  O   UNL     1       4.383   3.149  19.966  0.00  0.00    +0.000 OA
ATOM      7  O   UNL     1       3.434   1.971  17.938  0.00  0.00    +0.000 OA
BRANCH   5   8
ATOM      8  C   UNL     1       4.940   4.088  17.590  0.00  0.00    +0.000 A 
ATOM      9  C   UNL     1       6.179   4.531  18.103  0.00  0.00    +0.000 A 
ATOM     10  C   UNL     1       7.157   5.008  17.226  0.00  0.00    +0.000 A 
ATOM     11  C   UNL     1       6.865   4.977  15.879  0.00  0.00    +0.000 A 
ATOM     12  C   UNL     1       5.627   4.595  15.402  0.00  0.00    +0.000 A 
ATOM     13  C   UNL     1       4.622   4.178  16.236  0.00  0.00    +0.000 A 
ATOM     14  O   UNL     1       5.589   4.565  14.042  0.00  0.00    +0.000 OA
ATOM     15  C   UNL     1       7.002   4.626  13.770  0.00  0.00    +0.000 C 
ATOM     16  O   UNL     1       7.745   5.207  14.864  0.00  0.00    +0.000 OA
ENDBRANCH   5   8
ENDBRANCH   3   5
BRANCH   1  17
ATOM     17  C   UNL     1       1.328   6.562  21.018  0.00  0.00    +0.000 C 
BRANCH  17  18
ATOM     18  O   UNL     1       1.569   7.784  20.324  0.00  0.00    +0.000 OA
BRANCH  18  22
ATOM     19  C   UNL     1      -0.342  11.062  22.048  0.00  0.00    +0.000 A 
ATOM     20  C   UNL     1      -0.354   9.804  22.645  0.00  0.00    +0.000 A 
ATOM     21  C   UNL     1       0.302   8.728  22.039  0.00  0.00    +0.000 A 
ATOM     22  C   UNL     1       0.940   8.893  20.810  0.00  0.00    +0.000 A 
ATOM     23  C   UNL     1       0.945  10.149  20.208  0.00  0.00    +0.000 A 
ATOM     24  C   UNL     1       0.302  11.232  20.820  0.00  0.00    +0.000 A 
BRANCH  19  26
ATOM     25  C   UNL     1      -0.723  13.376  22.349  0.00  0.00    +0.000 C 
ATOM     26  O   UNL     1      -1.017  12.036  22.728  0.00  0.00    +0.000 OA
ENDBRANCH  19  26
ENDBRANCH  18  22
ENDBRANCH  17  18
ENDBRANCH   1  17
TORSDOF 6
ENDMDL
MODEL 4
REMARK VINA RESULT:      -7.6      1.328      1.852
REMARK  Name = 
REMARK  7 active torsions:
REMARK  status: ('A' for Active; 'I' for Inactive)
REMARK    1  A    between atoms: C_1  and  O_2
REMARK    2  A    between atoms: O_2  and  C_3
REMARK    3  A    between atoms: C_6  and  O_7
REMARK    4  A    between atoms: O_7  and  C_8
REMARK    5  A    between atoms: C_8  and  C_9
REMARK    6  A    between atoms: N_11  and  S_12
REMARK    7  A    between atoms: S_12  and  C_15
REMARK                            x       y       z     vdW  Elec       q    Type
REMARK                         _______ _______ _______ _____ _____    ______ ____
ROOT
ATOM      1  C   UNL     1       7.410   7.898  17.315  0.00  0.00    +0.000 C 
ATOM      2  C   UNL     1       7.662   6.764  18.336  0.00  0.00    +0.000 C 
ATOM      3  N   UNL     1       6.302   6.201  17.989  0.00  0.00    +0.000 NA
ATOM      4  C   UNL     1       5.919   7.606  17.592  0.00  0.00    +0.000 C 
ENDROOT
BRANCH   3   5
ATOM      5  S   UNL     1       6.104   4.874  16.908  0.00  0.00    +0.000 S 
ATOM      6  O   UNL     1       5.399   5.345  15.733  0.00  0.00    +0.000 OA
ATOM      7  O   UNL     1       7.371   4.183  16.812  0.00  0.00    +0.000 OA
BRANCH   5   8
ATOM      8  C   UNL     1       4.985   3.864  17.848  0.00  0.00    +0.000 A 
ATOM      9  C   UNL     1       5.149   3.741  19.245  0.00  0.00    +0.000 A 
ATOM     10  C   UNL     1       4.130   3.169  20.011  0.00  0.00    +0.000 A 
ATOM     11  C   UNL     1       2.981   2.790  19.350  0.00  0.00    +0.000 A 
ATOM     12  C   UNL     1       2.863   2.865  17.977  0.00  0.00    +0.000 A 
ATOM     13  C   UNL     1       3.864   3.364  17.185  0.00  0.00    +0.000 A 
ATOM     14  O   UNL     1       1.619   2.514  17.550  0.00  0.00    +0.000 OA
ATOM     15  C   UNL     1       0.921   2.561  18.809  0.00  0.00    +0.000 C 
ATOM     16  O   UNL     1       1.813   2.403  19.934  0.00  0.00    +0.000 OA
ENDBRANCH   5   8
ENDBRANCH   3   5
BRANCH   1  17
ATOM     17  C   UNL     1       7.955   9.279  17.630  0.00  0.00    +0.000 C 
BRANCH  17  18
ATOM     18  O   UNL     1       8.705   9.163  18.838  0.00  0.00    +0.000 OA
BRANCH  18  22
ATOM     19  C   UNL     1      10.596  12.712  19.929  0.00  0.00    +0.000 A 
ATOM     20  C   UNL     1      10.550  12.279  18.607  0.00  0.00    +0.000 A 
ATOM     21  C   UNL     1       9.903  11.084  18.277  0.00  0.00    +0.000 A 
ATOM     22  C   UNL     1       9.333  10.293  19.274  0.00  0.00    +0.000 A 
ATOM     23  C   UNL     1       9.386  10.723  20.598  0.00  0.00    +0.000 A 
ATOM     24  C   UNL     1      10.020  11.926  20.930  0.00  0.00    +0.000 A 
BRANCH  19  26
ATOM     25  C   UNL     1      12.320  14.172  19.228  0.00  0.00    +0.000 C 
ATOM     26  O   UNL     1      11.257  13.891  20.132  0.00  0.00    +0.000 OA
ENDBRANCH  19  26
ENDBRANCH  18  22
ENDBRANCH  17  18
ENDBRANCH   1  17
TORSDOF 6
ENDMDL
MODEL 5
REMARK VINA RESULT:      -7.6      4.258      7.272
REMARK  Name = 
REMARK  7 active torsions:
REMARK  status: ('A' for Active; 'I' for Inactive)
REMARK    1  A    between atoms: C_1  and  O_2
REMARK    2  A    between atoms: O_2  and  C_3
REMARK    3  A    between atoms: C_6  and  O_7
REMARK    4  A    between atoms: O_7  and  C_8
REMARK    5  A    between atoms: C_8  and  C_9
REMARK    6  A    between atoms: N_11  and  S_12
REMARK    7  A    between atoms: S_12  and  C_15
REMARK                            x       y       z     vdW  Elec       q    Type
REMARK                         _______ _______ _______ _____ _____    ______ ____
ROOT
ATOM      1  C   UNL     1       2.115   5.355  20.220  0.00  0.00    +0.000 C 
ATOM      2  C   UNL     1       1.380   4.149  19.591  0.00  0.00    +0.000 C 
ATOM      3  N   UNL     1       2.478   4.069  18.554  0.00  0.00    +0.000 NA
ATOM      4  C   UNL     1       2.699   5.542  18.802  0.00  0.00    +0.000 C 
ENDROOT
BRANCH   3   5
ATOM      5  S   UNL     1       3.770   2.933  18.665  0.00  0.00    +0.000 S 
ATOM      6  O   UNL     1       4.123   2.782  20.062  0.00  0.00    +0.000 OA
ATOM      7  O   UNL     1       3.437   1.797  17.835  0.00  0.00    +0.000 OA
BRANCH   5   8
ATOM      8  C   UNL     1       5.067   3.849  17.870  0.00  0.00    +0.000 A 
ATOM      9  C   UNL     1       5.044   4.034  16.470  0.00  0.00    +0.000 A 
ATOM     10  C   UNL     1       5.907   4.963  15.883  0.00  0.00    +0.000 A 
ATOM     11  C   UNL     1       6.719   5.690  16.727  0.00  0.00    +0.000 A 
ATOM     12  C   UNL     1       6.769   5.453  18.086  0.00  0.00    +0.000 A 
ATOM     13  C   UNL     1       5.981   4.509  18.691  0.00  0.00    +0.000 A 
ATOM     14  O   UNL     1       7.577   6.338  18.731  0.00  0.00    +0.000 OA
ATOM     15  C   UNL     1       7.721   7.321  17.688  0.00  0.00    +0.000 C 
ATOM     16  O   UNL     1       7.477   6.767  16.377  0.00  0.00    +0.000 OA
ENDBRANCH   5   8
ENDBRANCH   3   5
BRANCH   1  17
ATOM     17  C   UNL     1       1.278   6.471  20.818  0.00  0.00    +0.000 C 
BRANCH  17  18
ATOM     18  O   UNL     1       1.984   7.688  20.589  0.00  0.00    +0.000 OA
BRANCH  18  22
ATOM     19  C   UNL     1      -0.192  10.825  18.919  0.00  0.00    +0.000 A 
ATOM     20  C   UNL     1      -0.428  10.373  20.214  0.00  0.00    +0.000 A 
ATOM     21  C   UNL     1       0.325   9.319  20.743  0.00  0.00    +0.000 A 
ATOM     22  C   UNL     1       1.292   8.685  19.964  0.00  0.00    +0.000 A 
ATOM     23  C   UNL     1       1.523   9.132  18.665  0.00  0.00    +0.000 A 
ATOM     24  C   UNL     1       0.782  10.196  18.139  0.00  0.00    +0.000 A 
BRANCH  19  26
ATOM     25  C   UNL     1      -2.310  11.869  19.036  0.00  0.00    +0.000 C 
ATOM     26  O   UNL     1      -0.989  11.856  18.508  0.00  0.00    +0.000 OA
ENDBRANCH  19  26
ENDBRANCH  18  22
ENDBRANCH  17  18
ENDBRANCH   1  17
TORSDOF 6
ENDMDL
MODEL 6
REMARK VINA RESULT:      -7.5      1.307      1.738
REMARK  Name = 
REMARK  7 active torsions:
REMARK  status: ('A' for Active; 'I' for Inactive)
REMARK    1  A    between atoms: C_1  and  O_2
REMARK    2  A    between atoms: O_2  and  C_3
REMARK    3  A    between atoms: C_6  and  O_7
REMARK    4  A    between atoms: O_7  and  C_8
REMARK    5  A    between atoms: C_8  and  C_9
REMARK    6  A    between atoms: N_11  and  S_12
REMARK    7  A    between atoms: S_12  and  C_15
REMARK                            x       y       z     vdW  Elec       q    Type
REMARK                         _______ _______ _______ _____ _____    ______ ____
ROOT
ATOM      1  C   UNL     1       7.623   7.047  17.742  0.00  0.00    +0.000 C 
ATOM      2  C   UNL     1       6.898   6.024  18.648  0.00  0.00    +0.000 C 
ATOM      3  N   UNL     1       5.735   6.050  17.681  0.00  0.00    +0.000 NA
ATOM      4  C   UNL     1       6.194   7.437  17.302  0.00  0.00    +0.000 C 
ENDROOT
BRANCH   3   5
ATOM      5  S   UNL     1       5.497   4.824  16.494  0.00  0.00    +0.000 S 
ATOM      6  O   UNL     1       5.096   5.460  15.256  0.00  0.00    +0.000 OA
ATOM      7  O   UNL     1       6.623   3.918  16.557  0.00  0.00    +0.000 OA
BRANCH   5   8
ATOM      8  C   UNL     1       4.076   3.999  17.170  0.00  0.00    +0.000 A 
ATOM      9  C   UNL     1       4.003   2.589  17.152  0.00  0.00    +0.000 A 
ATOM     10  C   UNL     1       3.024   1.939  17.908  0.00  0.00    +0.000 A 
ATOM     11  C   UNL     1       2.195   2.728  18.677  0.00  0.00    +0.000 A 
ATOM     12  C   UNL     1       2.245   4.107  18.637  0.00  0.00    +0.000 A 
ATOM     13  C   UNL     1       3.152   4.782  17.861  0.00  0.00    +0.000 A 
ATOM     14  O   UNL     1       1.394   4.677  19.534  0.00  0.00    +0.000 OA
ATOM     15  C   UNL     1       1.099   3.520  20.339  0.00  0.00    +0.000 C 
ATOM     16  O   UNL     1       1.321   2.285  19.624  0.00  0.00    +0.000 OA
ENDBRANCH   5   8
ENDBRANCH   3   5
BRANCH   1  17
ATOM     17  C   UNL     1       8.496   8.096  18.405  0.00  0.00    +0.000 C 
BRANCH  17  18
ATOM     18  O   UNL     1       8.144   9.352  17.827  0.00  0.00    +0.000 OA
BRANCH  18  22
ATOM     19  C   UNL     1      10.135  12.561  19.590  0.00  0.00    +0.000 A 
ATOM     20  C   UNL     1      10.120  11.295  20.170  0.00  0.00    +0.000 A 
ATOM     21  C   UNL     1       9.444  10.241  19.548  0.00  0.00    +0.000 A 
ATOM     22  C   UNL     1       8.745  10.456  18.361  0.00  0.00    +0.000 A 
ATOM     23  C   UNL     1       8.753  11.724  17.785  0.00  0.00    +0.000 A 
ATOM     24  C   UNL     1       9.441  12.778  18.398  0.00  0.00    +0.000 A 
BRANCH  19  26
ATOM     25  C   UNL     1      11.956  14.069  19.629  0.00  0.00    +0.000 C 
ATOM     26  O   UNL     1      10.824  13.512  20.288  0.00  0.00    +0.000 OA
ENDBRANCH  19  26
ENDBRANCH  18  22
ENDBRANCH  17  18
ENDBRANCH   1  17
TORSDOF 6
ENDMDL
MODEL 7
REMARK VINA RESULT:      -7.5      4.953      7.471
REMARK  Name = 
REMARK  7 active torsions:
REMARK  status: ('A' for Active; 'I' for Inactive)
REMARK    1  A    between atoms: C_1  and  O_2
REMARK    2  A    between atoms: O_2  and  C_3
REMARK    3  A    between atoms: C_6  and  O_7
REMARK    4  A    between atoms: O_7  and  C_8
REMARK    5  A    between atoms: C_8  and  C_9
REMARK    6  A    between atoms: N_11  and  S_12
REMARK    7  A    between atoms: S_12  and  C_15
REMARK                            x       y       z     vdW  Elec       q    Type
REMARK                         _______ _______ _______ _____ _____    ______ ____
ROOT
ATOM      1  C   UNL     1       5.949   4.995  17.507  0.00  0.00    +0.000 C 
ATOM      2  C   UNL     1       5.840   5.116  19.045  0.00  0.00    +0.000 C 
ATOM      3  N   UNL     1       4.770   6.166  18.849  0.00  0.00    +0.000 NA
ATOM      4  C   UNL     1       5.410   6.443  17.510  0.00  0.00    +0.000 C 
ENDROOT
BRANCH   3   5
ATOM      5  S   UNL     1       3.090   5.806  18.987  0.00  0.00    +0.000 S 
ATOM      6  O   UNL     1       2.649   5.208  17.744  0.00  0.00    +0.000 OA
ATOM      7  O   UNL     1       2.876   5.160  20.263  0.00  0.00    +0.000 OA
BRANCH   5   8
ATOM      8  C   UNL     1       2.420   7.449  19.071  0.00  0.00    +0.000 A 
ATOM      9  C   UNL     1       2.321   8.232  17.900  0.00  0.00    +0.000 A 
ATOM     10  C   UNL     1       1.563   9.405  17.916  0.00  0.00    +0.000 A 
ATOM     11  C   UNL     1       0.907   9.716  19.088  0.00  0.00    +0.000 A 
ATOM     12  C   UNL     1       1.062   8.969  20.239  0.00  0.00    +0.000 A 
ATOM     13  C   UNL     1       1.845   7.845  20.279  0.00  0.00    +0.000 A 
ATOM     14  O   UNL     1       0.262   9.409  21.248  0.00  0.00    +0.000 OA
ATOM     15  C   UNL     1      -0.623  10.254  20.487  0.00  0.00    +0.000 C 
ATOM     16  O   UNL     1      -0.028  10.694  19.248  0.00  0.00    +0.000 OA
ENDBRANCH   5   8
ENDBRANCH   3   5
BRANCH   1  17
ATOM     17  C   UNL     1       7.316   4.726  16.906  0.00  0.00    +0.000 C 
BRANCH  17  18
ATOM     18  O   UNL     1       7.390   5.473  15.694  0.00  0.00    +0.000 OA
BRANCH  18  22
ATOM     19  C   UNL     1       5.920   3.501  12.330  0.00  0.00    +0.000 A 
ATOM     20  C   UNL     1       5.304   3.395  13.574  0.00  0.00    +0.000 A 
ATOM     21  C   UNL     1       5.823   4.075  14.680  0.00  0.00    +0.000 A 
ATOM     22  C   UNL     1       6.988   4.832  14.558  0.00  0.00    +0.000 A 
ATOM     23  C   UNL     1       7.609   4.932  13.316  0.00  0.00    +0.000 A 
ATOM     24  C   UNL     1       7.083   4.265  12.203  0.00  0.00    +0.000 A 
BRANCH  19  26
ATOM     25  C   UNL     1       3.963   3.106  11.064  0.00  0.00    +0.000 C 
ATOM     26  O   UNL     1       5.327   2.792  11.324  0.00  0.00    +0.000 OA
ENDBRANCH  19  26
ENDBRANCH  18  22
ENDBRANCH  17  18
ENDBRANCH   1  17
TORSDOF 6
ENDMDL
MODEL 8
REMARK VINA RESULT:      -7.4      1.321      1.470
REMARK  Name = 
REMARK  7 active torsions:
REMARK  status: ('A' for Active; 'I' for Inactive)
REMARK    1  A    between atoms: C_1  and  O_2
REMARK    2  A    between atoms: O_2  and  C_3
REMARK    3  A    between atoms: C_6  and  O_7
REMARK    4  A    between atoms: O_7  and  C_8
REMARK    5  A    between atoms: C_8  and  C_9
REMARK    6  A    between atoms: N_11  and  S_12
REMARK    7  A    between atoms: S_12  and  C_15
REMARK                            x       y       z     vdW  Elec       q    Type
REMARK                         _______ _______ _______ _____ _____    ______ ____
ROOT
ATOM      1  C   UNL     1       7.871   7.987  17.537  0.00  0.00    +0.000 C 
ATOM      2  C   UNL     1       8.019   6.953  18.677  0.00  0.00    +0.000 C 
ATOM      3  N   UNL     1       6.707   6.341  18.241  0.00  0.00    +0.000 NA
ATOM      4  C   UNL     1       6.360   7.699  17.680  0.00  0.00    +0.000 C 
ENDROOT
BRANCH   3   5
ATOM      5  S   UNL     1       6.631   4.919  17.270  0.00  0.00    +0.000 S 
ATOM      6  O   UNL     1       6.530   5.321  15.882  0.00  0.00    +0.000 OA
ATOM      7  O   UNL     1       7.659   4.011  17.730  0.00  0.00    +0.000 OA
BRANCH   5   8
ATOM      8  C   UNL     1       5.052   4.278  17.770  0.00  0.00    +0.000 A 
ATOM      9  C   UNL     1       4.431   3.261  17.012  0.00  0.00    +0.000 A 
ATOM     10  C   UNL     1       3.331   2.581  17.540  0.00  0.00    +0.000 A 
ATOM     11  C   UNL     1       2.934   2.920  18.816  0.00  0.00    +0.000 A 
ATOM     12  C   UNL     1       3.517   3.956  19.518  0.00  0.00    +0.000 A 
ATOM     13  C   UNL     1       4.559   4.686  19.009  0.00  0.00    +0.000 A 
ATOM     14  O   UNL     1       3.022   4.061  20.781  0.00  0.00    +0.000 OA
ATOM     15  C   UNL     1       2.354   2.787  20.874  0.00  0.00    +0.000 C 
ATOM     16  O   UNL     1       2.024   2.248  19.576  0.00  0.00    +0.000 OA
ENDBRANCH   5   8
ENDBRANCH   3   5
BRANCH   1  17
ATOM     17  C   UNL     1       8.372   9.399  17.781  0.00  0.00    +0.000 C 
BRANCH  17  18
ATOM     18  O   UNL     1       8.985   9.404  19.068  0.00  0.00    +0.000 OA
BRANCH  18  22
ATOM     19  C   UNL     1      10.675  13.083  20.055  0.00  0.00    +0.000 A 
ATOM     20  C   UNL     1      10.797  12.535  18.781  0.00  0.00    +0.000 A 
ATOM     21  C   UNL     1      10.213  11.299  18.485  0.00  0.00    +0.000 A 
ATOM     22  C   UNL     1       9.538  10.584  19.474  0.00  0.00    +0.000 A 
ATOM     23  C   UNL     1       9.422  11.129  20.750  0.00  0.00    +0.000 A 
ATOM     24  C   UNL     1       9.993  12.373  21.046  0.00  0.00    +0.000 A 
BRANCH  19  26
ATOM     25  C   UNL     1      10.664  15.177  21.153  0.00  0.00    +0.000 C 
ATOM     26  O   UNL     1      11.287  14.292  20.229  0.00  0.00    +0.000 OA
ENDBRANCH  19  26
ENDBRANCH  18  22
ENDBRANCH  17  18
ENDBRANCH   1  17
TORSDOF 6
ENDMDL
MODEL 9
REMARK VINA RESULT:      -7.4      4.474      7.162
REMARK  Name = 
REMARK  7 active torsions:
REMARK  status: ('A' for Active; 'I' for Inactive)
REMARK    1  A    between atoms: C_1  and  O_2
REMARK    2  A    between atoms: O_2  and  C_3
REMARK    3  A    between atoms: C_6  and  O_7
REMARK    4  A    between atoms: O_7  and  C_8
REMARK    5  A    between atoms: C_8  and  C_9
REMARK    6  A    between atoms: N_11  and  S_12
REMARK    7  A    between atoms: S_12  and  C_15
REMARK                            x       y       z     vdW  Elec       q    Type
REMARK                         _______ _______ _______ _____ _____    ______ ____
ROOT
ATOM      1  C   UNL     1       2.233   5.514  20.208  0.00  0.00    +0.000 C 
ATOM      2  C   UNL     1       1.439   4.299  19.672  0.00  0.00    +0.000 C 
ATOM      3  N   UNL     1       2.481   4.146  18.587  0.00  0.00    +0.000 NA
ATOM      4  C   UNL     1       2.748   5.622  18.755  0.00  0.00    +0.000 C 
ENDROOT
BRANCH   3   5
ATOM      5  S   UNL     1       3.750   2.984  18.686  0.00  0.00    +0.000 S 
ATOM      6  O   UNL     1       4.107   2.818  20.080  0.00  0.00    +0.000 OA
ATOM      7  O   UNL     1       3.390   1.859  17.851  0.00  0.00    +0.000 OA
BRANCH   5   8
ATOM      8  C   UNL     1       5.061   3.877  17.889  0.00  0.00    +0.000 A 
ATOM      9  C   UNL     1       5.055   4.038  16.486  0.00  0.00    +0.000 A 
ATOM     10  C   UNL     1       5.930   4.950  15.892  0.00  0.00    +0.000 A 
ATOM     11  C   UNL     1       6.737   5.688  16.732  0.00  0.00    +0.000 A 
ATOM     12  C   UNL     1       6.770   5.476  18.095  0.00  0.00    +0.000 A 
ATOM     13  C   UNL     1       5.970   4.547  18.708  0.00  0.00    +0.000 A 
ATOM     14  O   UNL     1       7.576   6.367  18.734  0.00  0.00    +0.000 OA
ATOM     15  C   UNL     1       7.738   7.331  17.675  0.00  0.00    +0.000 C 
ATOM     16  O   UNL     1       7.505   6.754  16.372  0.00  0.00    +0.000 OA
ENDBRANCH   5   8
ENDBRANCH   3   5
BRANCH   1  17
ATOM     17  C   UNL     1       1.452   6.676  20.794  0.00  0.00    +0.000 C 
BRANCH  17  18
ATOM     18  O   UNL     1       1.973   7.865  20.205  0.00  0.00    +0.000 OA
BRANCH  18  22
ATOM     19  C   UNL     1      -0.560  11.163  19.936  0.00  0.00    +0.000 A 
ATOM     20  C   UNL     1       0.199  10.727  18.853  0.00  0.00    +0.000 A 
ATOM     21  C   UNL     1       1.036   9.614  18.979  0.00  0.00    +0.000 A 
ATOM     22  C   UNL     1       1.150   8.954  20.202  0.00  0.00    +0.000 A 
ATOM     23  C   UNL     1       0.397   9.394  21.288  0.00  0.00    +0.000 A 
ATOM     24  C   UNL     1      -0.453  10.499  21.161  0.00  0.00    +0.000 A 
BRANCH  19  26
ATOM     25  C   UNL     1      -0.675  13.376  19.111  0.00  0.00    +0.000 C 
ATOM     26  O   UNL     1      -1.338  12.261  19.697  0.00  0.00    +0.000 OA
ENDBRANCH  19  26
ENDBRANCH  18  22
ENDBRANCH  17  18
ENDBRANCH   1  17
TORSDOF 6
ENDMDL
