MODEL 1
REMARK VINA RESULT:      -8.9      0.000      0.000
REMARK  Name = 
REMARK  7 active torsions:
REMARK  status: ('A' for Active; 'I' for Inactive)
REMARK    1  A    between atoms: N_3  and  C_4
REMARK    2  A    between atoms: C_7  and  O_8
REMARK    3  A    between atoms: O_8  and  C_9
REMARK    4  A    between atoms: N_17  and  C_18
REMARK    5  A    between atoms: N_25  and  C_26
REMARK    6  A    between atoms: C_26  and  C_27
REMARK    7  A    between atoms: C_27  and  N_28
REMARK                            x       y       z     vdW  Elec       q    Type
REMARK                         _______ _______ _______ _____ _____    ______ ____
ROOT
ATOM      1  O   UNL     1      -0.631   8.613  20.700  0.00  0.00    +0.000 OA
ATOM      2  C   UNL     1       0.400   9.060  21.186  0.00  0.00    +0.000 C 
ATOM      3  N   UNL     1       0.492  10.275  21.850  0.00  0.00    +0.000 N 
ATOM      4  N   UNL     1       1.631   8.443  21.074  0.00  0.00    +0.000 N 
ATOM      5  H   UNL     1       1.404  10.673  21.970  0.00  0.00    +0.000 HD
ATOM      6  H   UNL     1       2.426   8.976  21.396  0.00  0.00    +0.000 HD
ENDROOT
BRANCH   4   7
ATOM      7  C   UNL     1       1.908   7.431  20.126  0.00  0.00    +0.000 A 
ATOM      8  C   UNL     1       2.348   7.661  18.814  0.00  0.00    +0.000 A 
ATOM      9  C   UNL     1       2.893   6.637  18.025  0.00  0.00    +0.000 A 
ATOM     10  C   UNL     1       3.056   5.388  18.643  0.00  0.00    +0.000 A 
ATOM     11  C   UNL     1       2.553   5.138  19.919  0.00  0.00    +0.000 A 
ATOM     12  C   UNL     1       2.952   3.835  20.223  0.00  0.00    +0.000 A 
ATOM     13  N   UNL     1       3.730   3.313  19.285  0.00  0.00    +0.000 NA
ATOM     14  N   UNL     1       3.628   4.195  18.273  0.00  0.00    +0.000 N 
ATOM     15  C   UNL     1       1.873   6.131  20.628  0.00  0.00    +0.000 A 
BRANCH  14  16
ATOM     16  C   UNL     1       3.994   3.719  16.955  0.00  0.00    +0.000 C 
BRANCH  16  17
ATOM     17  C   UNL     1       5.507   3.923  16.704  0.00  0.00    +0.000 C 
BRANCH  17  18
ATOM     18  N   UNL     1       6.074   5.082  17.407  0.00  0.00    +0.000 NA
ATOM     19  C   UNL     1       7.305   4.718  18.122  0.00  0.00    +0.000 C 
ATOM     20  C   UNL     1       7.783   5.896  18.971  0.00  0.00    +0.000 C 
ATOM     21  C   UNL     1       7.937   7.162  18.135  0.00  0.00    +0.000 C 
ATOM     22  C   UNL     1       6.669   7.439  17.338  0.00  0.00    +0.000 C 
ATOM     23  C   UNL     1       6.274   6.222  16.520  0.00  0.00    +0.000 C 
ENDBRANCH  17  18
ENDBRANCH  16  17
ENDBRANCH  14  16
ENDBRANCH   4   7
BRANCH   3  24
ATOM     24  C   UNL     1      -0.599  11.148  22.078  0.00  0.00    +0.000 A 
ATOM     25  C   UNL     1      -1.418  11.052  23.207  0.00  0.00    +0.000 A 
ATOM     26  C   UNL     1      -2.494  11.918  23.385  0.00  0.00    +0.000 A 
ATOM     27  C   UNL     1      -2.755  12.904  22.444  0.00  0.00    +0.000 A 
ATOM     28  C   UNL     1      -1.965  12.992  21.297  0.00  0.00    +0.000 A 
ATOM     29  C   UNL     1      -0.868  12.142  21.130  0.00  0.00    +0.000 A 
BRANCH  27  30
ATOM     30  O   UNL     1      -3.850  13.692  22.699  0.00  0.00    +0.000 OA
BRANCH  30  31
ATOM     31  C   UNL     1      -5.109  13.142  22.663  0.00  0.00    +0.000 A 
ATOM     32  C   UNL     1      -5.520  12.673  21.413  0.00  0.00    +0.000 A 
ATOM     33  C   UNL     1      -6.787  12.114  21.255  0.00  0.00    +0.000 A 
ATOM     34  C   UNL     1      -7.645  12.019  22.350  0.00  0.00    +0.000 A 
ATOM     35  C   UNL     1      -7.222  12.446  23.609  0.00  0.00    +0.000 A 
ATOM     36  C   UNL     1      -5.945  12.980  23.772  0.00  0.00    +0.000 A 
ENDBRANCH  30  31
ENDBRANCH  27  30
ENDBRANCH   3  24
TORSDOF 7
ENDMDL
MODEL 2
REMARK VINA RESULT:      -8.5      6.751     11.262
REMARK  Name = 
REMARK  7 active torsions:
REMARK  status: ('A' for Active; 'I' for Inactive)
REMARK    1  A    between atoms: N_3  and  C_4
REMARK    2  A    between atoms: C_7  and  O_8
REMARK    3  A    between atoms: O_8  and  C_9
REMARK    4  A    between atoms: N_17  and  C_18
REMARK    5  A    between atoms: N_25  and  C_26
REMARK    6  A    between atoms: C_26  and  C_27
REMARK    7  A    between atoms: C_27  and  N_28
REMARK                            x       y       z     vdW  Elec       q    Type
REMARK                         _______ _______ _______ _____ _____    ______ ____
ROOT
ATOM      1  O   UNL     1       7.765   9.268  17.731  0.00  0.00    +0.000 OA
ATOM      2  C   UNL     1       8.522   8.755  18.544  0.00  0.00    +0.000 C 
ATOM      3  N   UNL     1       8.484   7.420  18.919  0.00  0.00    +0.000 N 
ATOM      4  N   UNL     1       9.476   9.459  19.255  0.00  0.00    +0.000 N 
ATOM      5  H   UNL     1       8.950   7.159  19.768  0.00  0.00    +0.000 HD
ATOM      6  H   UNL     1       9.943   8.953  19.993  0.00  0.00    +0.000 HD
ENDROOT
BRANCH   4   7
ATOM      7  C   UNL     1       9.466  10.868  19.381  0.00  0.00    +0.000 A 
ATOM      8  C   UNL     1       9.438  11.767  18.305  0.00  0.00    +0.000 A 
ATOM      9  C   UNL     1       9.126  13.123  18.481  0.00  0.00    +0.000 A 
ATOM     10  C   UNL     1       8.759  13.519  19.775  0.00  0.00    +0.000 A 
ATOM     11  C   UNL     1       8.857  12.647  20.858  0.00  0.00    +0.000 A 
ATOM     12  C   UNL     1       8.357  13.356  21.950  0.00  0.00    +0.000 A 
ATOM     13  N   UNL     1       7.877  14.543  21.605  0.00  0.00    +0.000 NA
ATOM     14  N   UNL     1       8.294  14.686  20.333  0.00  0.00    +0.000 N 
ATOM     15  C   UNL     1       9.322  11.340  20.684  0.00  0.00    +0.000 A 
BRANCH  14  16
ATOM     16  C   UNL     1       8.321  16.034  19.804  0.00  0.00    +0.000 C 
BRANCH  16  17
ATOM     17  C   UNL     1       7.365  16.163  18.594  0.00  0.00    +0.000 C 
BRANCH  17  18
ATOM     18  N   UNL     1       5.987  15.739  18.879  0.00  0.00    +0.000 NA
ATOM     19  C   UNL     1       5.138  16.889  19.219  0.00  0.00    +0.000 C 
ATOM     20  C   UNL     1       3.758  16.404  19.666  0.00  0.00    +0.000 C 
ATOM     21  C   UNL     1       3.124  15.487  18.626  0.00  0.00    +0.000 C 
ATOM     22  C   UNL     1       4.083  14.370  18.235  0.00  0.00    +0.000 C 
ATOM     23  C   UNL     1       5.421  14.940  17.798  0.00  0.00    +0.000 C 
ENDBRANCH  17  18
ENDBRANCH  16  17
ENDBRANCH  14  16
ENDBRANCH   4   7
BRANCH   3  24
ATOM     24  C   UNL     1       7.582   6.465  18.391  0.00  0.00    +0.000 A 
ATOM     25  C   UNL     1       7.311   6.358  17.023  0.00  0.00    +0.000 A 
ATOM     26  C   UNL     1       6.400   5.419  16.546  0.00  0.00    +0.000 A 
ATOM     27  C   UNL     1       5.762   4.560  17.429  0.00  0.00    +0.000 A 
ATOM     28  C   UNL     1       5.998   4.675  18.800  0.00  0.00    +0.000 A 
ATOM     29  C   UNL     1       6.932   5.599  19.279  0.00  0.00    +0.000 A 
BRANCH  27  30
ATOM     30  O   UNL     1       4.867   3.686  16.863  0.00  0.00    +0.000 OA
BRANCH  30  31
ATOM     31  C   UNL     1       3.628   3.513  17.433  0.00  0.00    +0.000 A 
ATOM     32  C   UNL     1       3.382   2.237  17.948  0.00  0.00    +0.000 A 
ATOM     33  C   UNL     1       2.151   1.942  18.530  0.00  0.00    +0.000 A 
ATOM     34  C   UNL     1       1.164   2.924  18.604  0.00  0.00    +0.000 A 
ATOM     35  C   UNL     1       1.422   4.211  18.131  0.00  0.00    +0.000 A 
ATOM     36  C   UNL     1       2.662   4.514  17.572  0.00  0.00    +0.000 A 
ENDBRANCH  30  31
ENDBRANCH  27  30
ENDBRANCH   3  24
TORSDOF 7
ENDMDL
MODEL 3
REMARK VINA RESULT:      -8.3      6.688     11.209
REMARK  Name = 
REMARK  7 active torsions:
REMARK  status: ('A' for Active; 'I' for Inactive)
REMARK    1  A    between atoms: N_3  and  C_4
REMARK    2  A    between atoms: C_7  and  O_8
REMARK    3  A    between atoms: O_8  and  C_9
REMARK    4  A    between atoms: N_17  and  C_18
REMARK    5  A    between atoms: N_25  and  C_26
REMARK    6  A    between atoms: C_26  and  C_27
REMARK    7  A    between atoms: C_27  and  N_28
REMARK                            x       y       z     vdW  Elec       q    Type
REMARK                         _______ _______ _______ _____ _____    ______ ____
ROOT
ATOM      1  O   UNL     1       7.608   9.166  17.739  0.00  0.00    +0.000 OA
ATOM      2  C   UNL     1       8.407   8.618  18.488  0.00  0.00    +0.000 C 
ATOM      3  N   UNL     1       8.379   7.269  18.814  0.00  0.00    +0.000 N 
ATOM      4  N   UNL     1       9.406   9.288  19.168  0.00  0.00    +0.000 N 
ATOM      5  H   UNL     1       8.890   6.974  19.624  0.00  0.00    +0.000 HD
ATOM      6  H   UNL     1       9.910   8.752  19.858  0.00  0.00    +0.000 HD
ENDROOT
BRANCH   4   7
ATOM      7  C   UNL     1       9.415  10.691  19.347  0.00  0.00    +0.000 A 
ATOM      8  C   UNL     1       9.166  11.628  18.334  0.00  0.00    +0.000 A 
ATOM      9  C   UNL     1       8.890  12.974  18.621  0.00  0.00    +0.000 A 
ATOM     10  C   UNL     1       8.790  13.318  19.977  0.00  0.00    +0.000 A 
ATOM     11  C   UNL     1       9.111  12.408  20.983  0.00  0.00    +0.000 A 
ATOM     12  C   UNL     1       8.838  13.071  22.180  0.00  0.00    +0.000 A 
ATOM     13  N   UNL     1       8.293  14.263  21.985  0.00  0.00    +0.000 NA
ATOM     14  N   UNL     1       8.443  14.458  20.661  0.00  0.00    +0.000 N 
ATOM     15  C   UNL     1       9.536  11.114  20.669  0.00  0.00    +0.000 A 
BRANCH  14  16
ATOM     16  C   UNL     1       8.356  15.824  20.189  0.00  0.00    +0.000 C 
BRANCH  16  17
ATOM     17  C   UNL     1       6.959  16.416  20.491  0.00  0.00    +0.000 C 
BRANCH  17  18
ATOM     18  N   UNL     1       5.859  15.714  19.817  0.00  0.00    +0.000 NA
ATOM     19  C   UNL     1       4.566  16.348  20.110  0.00  0.00    +0.000 C 
ATOM     20  C   UNL     1       3.428  15.506  19.531  0.00  0.00    +0.000 C 
ATOM     21  C   UNL     1       3.632  15.239  18.044  0.00  0.00    +0.000 C 
ATOM     22  C   UNL     1       5.022  14.675  17.783  0.00  0.00    +0.000 C 
ATOM     23  C   UNL     1       6.088  15.576  18.383  0.00  0.00    +0.000 C 
ENDBRANCH  17  18
ENDBRANCH  16  17
ENDBRANCH  14  16
ENDBRANCH   4   7
BRANCH   3  24
ATOM     24  C   UNL     1       7.440   6.341  18.304  0.00  0.00    +0.000 A 
ATOM     25  C   UNL     1       6.674   5.512  19.130  0.00  0.00    +0.000 A 
ATOM     26  C   UNL     1       5.776   4.596  18.589  0.00  0.00    +0.000 A 
ATOM     27  C   UNL     1       5.616   4.511  17.212  0.00  0.00    +0.000 A 
ATOM     28  C   UNL     1       6.395   5.310  16.374  0.00  0.00    +0.000 A 
ATOM     29  C   UNL     1       7.278   6.249  16.917  0.00  0.00    +0.000 A 
BRANCH  27  30
ATOM     30  O   UNL     1       4.723   3.563  16.777  0.00  0.00    +0.000 OA
BRANCH  30  31
ATOM     31  C   UNL     1       3.529   3.397  17.436  0.00  0.00    +0.000 A 
ATOM     32  C   UNL     1       3.356   2.154  18.051  0.00  0.00    +0.000 A 
ATOM     33  C   UNL     1       2.173   1.867  18.730  0.00  0.00    +0.000 A 
ATOM     34  C   UNL     1       1.162   2.825  18.800  0.00  0.00    +0.000 A 
ATOM     35  C   UNL     1       1.349   4.081  18.225  0.00  0.00    +0.000 A 
ATOM     36  C   UNL     1       2.542   4.378  17.568  0.00  0.00    +0.000 A 
ENDBRANCH  30  31
ENDBRANCH  27  30
ENDBRANCH   3  24
TORSDOF 7
ENDMDL
MODEL 4
REMARK VINA RESULT:      -8.3      7.457     11.604
REMARK  Name = 
REMARK  7 active torsions:
REMARK  status: ('A' for Active; 'I' for Inactive)
REMARK    1  A    between atoms: N_3  and  C_4
REMARK    2  A    between atoms: C_7  and  O_8
REMARK    3  A    between atoms: O_8  and  C_9
REMARK    4  A    between atoms: N_17  and  C_18
REMARK    5  A    between atoms: N_25  and  C_26
REMARK    6  A    between atoms: C_26  and  C_27
REMARK    7  A    between atoms: C_27  and  N_28
REMARK                            x       y       z     vdW  Elec       q    Type
REMARK                         _______ _______ _______ _____ _____    ______ ____
ROOT
ATOM      1  O   UNL     1       7.628   9.196  17.713  0.00  0.00    +0.000 OA
ATOM      2  C   UNL     1       8.418   8.676  18.491  0.00  0.00    +0.000 C 
ATOM      3  N   UNL     1       8.403   7.335  18.844  0.00  0.00    +0.000 N 
ATOM      4  N   UNL     1       9.391   9.377  19.179  0.00  0.00    +0.000 N 
ATOM      5  H   UNL     1       8.901   7.065  19.672  0.00  0.00    +0.000 HD
ATOM      6  H   UNL     1       9.888   8.863  19.891  0.00  0.00    +0.000 HD
ENDROOT
BRANCH   4   7
ATOM      7  C   UNL     1       9.375  10.783  19.328  0.00  0.00    +0.000 A 
ATOM      8  C   UNL     1       9.291  11.457  20.554  0.00  0.00    +0.000 A 
ATOM      9  C   UNL     1       9.582  12.824  20.671  0.00  0.00    +0.000 A 
ATOM     10  C   UNL     1      10.046  13.467  19.513  0.00  0.00    +0.000 A 
ATOM     11  C   UNL     1      10.060  12.819  18.279  0.00  0.00    +0.000 A 
ATOM     12  C   UNL     1      10.632  13.731  17.390  0.00  0.00    +0.000 A 
ATOM     13  N   UNL     1      11.051  14.833  17.997  0.00  0.00    +0.000 NA
ATOM     14  N   UNL     1      10.526  14.723  19.233  0.00  0.00    +0.000 N 
ATOM     15  C   UNL     1       9.616  11.500  18.158  0.00  0.00    +0.000 A 
BRANCH  14  16
ATOM     16  C   UNL     1      10.421  15.943  20.006  0.00  0.00    +0.000 C 
BRANCH  16  17
ATOM     17  C   UNL     1       9.016  16.571  19.843  0.00  0.00    +0.000 C 
BRANCH  17  18
ATOM     18  N   UNL     1       8.152  16.406  21.019  0.00  0.00    +0.000 NA
ATOM     19  C   UNL     1       7.054  15.469  20.743  0.00  0.00    +0.000 C 
ATOM     20  C   UNL     1       6.083  15.440  21.924  0.00  0.00    +0.000 C 
ATOM     21  C   UNL     1       6.804  15.137  23.233  0.00  0.00    +0.000 C 
ATOM     22  C   UNL     1       7.992  16.072  23.422  0.00  0.00    +0.000 C 
ATOM     23  C   UNL     1       8.906  16.030  22.210  0.00  0.00    +0.000 C 
ENDBRANCH  17  18
ENDBRANCH  16  17
ENDBRANCH  14  16
ENDBRANCH   4   7
BRANCH   3  24
ATOM     24  C   UNL     1       7.491   6.381  18.334  0.00  0.00    +0.000 A 
ATOM     25  C   UNL     1       6.815   5.470  19.152  0.00  0.00    +0.000 A 
ATOM     26  C   UNL     1       5.940   4.533  18.608  0.00  0.00    +0.000 A 
ATOM     27  C   UNL     1       5.714   4.507  17.239  0.00  0.00    +0.000 A 
ATOM     28  C   UNL     1       6.404   5.390  16.407  0.00  0.00    +0.000 A 
ATOM     29  C   UNL     1       7.263   6.349  16.953  0.00  0.00    +0.000 A 
BRANCH  27  30
ATOM     30  O   UNL     1       4.852   3.533  16.799  0.00  0.00    +0.000 OA
BRANCH  30  31
ATOM     31  C   UNL     1       3.645   3.353  17.431  0.00  0.00    +0.000 A 
ATOM     32  C   UNL     1       2.791   4.459  17.411  0.00  0.00    +0.000 A 
ATOM     33  C   UNL     1       1.549   4.397  18.039  0.00  0.00    +0.000 A 
ATOM     34  C   UNL     1       1.156   3.226  18.686  0.00  0.00    +0.000 A 
ATOM     35  C   UNL     1       1.987   2.106  18.671  0.00  0.00    +0.000 A 
ATOM     36  C   UNL     1       3.218   2.159  18.020  0.00  0.00    +0.000 A 
ENDBRANCH  30  31
ENDBRANCH  27  30
ENDBRANCH   3  24
TORSDOF 7
ENDMDL
MODEL 5
REMARK VINA RESULT:      -8.3      6.683     11.164
REMARK  Name = 
REMARK  7 active torsions:
REMARK  status: ('A' for Active; 'I' for Inactive)
REMARK    1  A    between atoms: N_3  and  C_4
REMARK    2  A    between atoms: C_7  and  O_8
REMARK    3  A    between atoms: O_8  and  C_9
REMARK    4  A    between atoms: N_17  and  C_18
REMARK    5  A    between atoms: N_25  and  C_26
REMARK    6  A    between atoms: C_26  and  C_27
REMARK    7  A    between atoms: C_27  and  N_28
REMARK                            x       y       z     vdW  Elec       q    Type
REMARK                         _______ _______ _______ _____ _____    ______ ____
ROOT
ATOM      1  O   UNL     1       7.610   8.927  17.589  0.00  0.00    +0.000 OA
ATOM      2  C   UNL     1       8.356   8.426  18.421  0.00  0.00    +0.000 C 
ATOM      3  N   UNL     1       8.286   7.106  18.844  0.00  0.00    +0.000 N 
ATOM      4  N   UNL     1       9.327   9.132  19.105  0.00  0.00    +0.000 N 
ATOM      5  H   UNL     1       8.746   6.867  19.702  0.00  0.00    +0.000 HD
ATOM      6  H   UNL     1       9.782   8.643  19.861  0.00  0.00    +0.000 HD
ENDROOT
BRANCH   4   7
ATOM      7  C   UNL     1       9.351  10.545  19.178  0.00  0.00    +0.000 A 
ATOM      8  C   UNL     1       9.010  11.406  18.126  0.00  0.00    +0.000 A 
ATOM      9  C   UNL     1       8.760  12.771  18.337  0.00  0.00    +0.000 A 
ATOM     10  C   UNL     1       8.783  13.214  19.667  0.00  0.00    +0.000 A 
ATOM     11  C   UNL     1       9.194  12.378  20.705  0.00  0.00    +0.000 A 
ATOM     12  C   UNL     1       9.030  13.129  21.870  0.00  0.00    +0.000 A 
ATOM     13  N   UNL     1       8.469  14.307  21.637  0.00  0.00    +0.000 NA
ATOM     14  N   UNL     1       8.498  14.403  20.294  0.00  0.00    +0.000 N 
ATOM     15  C   UNL     1       9.590  11.063  20.449  0.00  0.00    +0.000 A 
BRANCH  14  16
ATOM     16  C   UNL     1       8.368  15.731  19.733  0.00  0.00    +0.000 C 
BRANCH  16  17
ATOM     17  C   UNL     1       7.137  16.455  20.328  0.00  0.00    +0.000 C 
BRANCH  17  18
ATOM     18  N   UNL     1       5.862  16.060  19.714  0.00  0.00    +0.000 NA
ATOM     19  C   UNL     1       6.071  15.487  18.378  0.00  0.00    +0.000 C 
ATOM     20  C   UNL     1       4.724  15.235  17.700  0.00  0.00    +0.000 C 
ATOM     21  C   UNL     1       3.810  14.381  18.573  0.00  0.00    +0.000 C 
ATOM     22  C   UNL     1       3.706  14.964  19.976  0.00  0.00    +0.000 C 
ATOM     23  C   UNL     1       5.086  15.173  20.575  0.00  0.00    +0.000 C 
ENDBRANCH  17  18
ENDBRANCH  16  17
ENDBRANCH  14  16
ENDBRANCH   4   7
BRANCH   3  24
ATOM     24  C   UNL     1       7.361   6.155  18.353  0.00  0.00    +0.000 A 
ATOM     25  C   UNL     1       6.501   5.437  19.190  0.00  0.00    +0.000 A 
ATOM     26  C   UNL     1       5.619   4.493  18.669  0.00  0.00    +0.000 A 
ATOM     27  C   UNL     1       5.571   4.269  17.300  0.00  0.00    +0.000 A 
ATOM     28  C   UNL     1       6.445   4.956  16.455  0.00  0.00    +0.000 A 
ATOM     29  C   UNL     1       7.312   5.922  16.974  0.00  0.00    +0.000 A 
BRANCH  27  30
ATOM     30  O   UNL     1       4.685   3.305  16.888  0.00  0.00    +0.000 OA
BRANCH  30  31
ATOM     31  C   UNL     1       3.515   3.112  17.582  0.00  0.00    +0.000 A 
ATOM     32  C   UNL     1       2.553   4.111  17.417  0.00  0.00    +0.000 A 
ATOM     33  C   UNL     1       1.335   4.030  18.091  0.00  0.00    +0.000 A 
ATOM     34  C   UNL     1       1.075   2.945  18.927  0.00  0.00    +0.000 A 
ATOM     35  C   UNL     1       2.015   1.923  19.060  0.00  0.00    +0.000 A 
ATOM     36  C   UNL     1       3.223   1.992  18.366  0.00  0.00    +0.000 A 
ENDBRANCH  30  31
ENDBRANCH  27  30
ENDBRANCH   3  24
TORSDOF 7
ENDMDL
MODEL 6
REMARK VINA RESULT:      -8.2      7.589     11.687
REMARK  Name = 
REMARK  7 active torsions:
REMARK  status: ('A' for Active; 'I' for Inactive)
REMARK    1  A    between atoms: N_3  and  C_4
REMARK    2  A    between atoms: C_7  and  O_8
REMARK    3  A    between atoms: O_8  and  C_9
REMARK    4  A    between atoms: N_17  and  C_18
REMARK    5  A    between atoms: N_25  and  C_26
REMARK    6  A    between atoms: C_26  and  C_27
REMARK    7  A    between atoms: C_27  and  N_28
REMARK                            x       y       z     vdW  Elec       q    Type
REMARK                         _______ _______ _______ _____ _____    ______ ____
ROOT
ATOM      1  O   UNL     1       7.783   9.045  17.448  0.00  0.00    +0.000 OA
ATOM      2  C   UNL     1       8.427   8.628  18.402  0.00  0.00    +0.000 C 
ATOM      3  N   UNL     1       8.286   7.361  18.950  0.00  0.00    +0.000 N 
ATOM      4  N   UNL     1       9.334   9.394  19.110  0.00  0.00    +0.000 N 
ATOM      5  H   UNL     1       8.649   7.208  19.872  0.00  0.00    +0.000 HD
ATOM      6  H   UNL     1       9.698   8.982  19.956  0.00  0.00    +0.000 HD
ENDROOT
BRANCH   4   7
ATOM      7  C   UNL     1       9.379  10.806  19.039  0.00  0.00    +0.000 A 
ATOM      8  C   UNL     1       9.094  11.669  20.106  0.00  0.00    +0.000 A 
ATOM      9  C   UNL     1       9.443  13.028  20.073  0.00  0.00    +0.000 A 
ATOM     10  C   UNL     1      10.169  13.461  18.954  0.00  0.00    +0.000 A 
ATOM     11  C   UNL     1      10.388  12.624  17.860  0.00  0.00    +0.000 A 
ATOM     12  C   UNL     1      11.183  13.364  16.984  0.00  0.00    +0.000 A 
ATOM     13  N   UNL     1      11.543  14.534  17.492  0.00  0.00    +0.000 NA
ATOM     14  N   UNL     1      10.776  14.641  18.593  0.00  0.00    +0.000 N 
ATOM     15  C   UNL     1       9.893  11.318  17.850  0.00  0.00    +0.000 A 
BRANCH  14  16
ATOM     16  C   UNL     1      10.596  15.971  19.136  0.00  0.00    +0.000 C 
BRANCH  16  17
ATOM     17  C   UNL     1       9.367  16.659  18.495  0.00  0.00    +0.000 C 
BRANCH  17  18
ATOM     18  N   UNL     1       8.173  16.658  19.351  0.00  0.00    +0.000 NA
ATOM     19  C   UNL     1       8.174  17.809  20.264  0.00  0.00    +0.000 C 
ATOM     20  C   UNL     1       7.008  17.695  21.248  0.00  0.00    +0.000 C 
ATOM     21  C   UNL     1       5.679  17.517  20.522  0.00  0.00    +0.000 C 
ATOM     22  C   UNL     1       5.763  16.376  19.516  0.00  0.00    +0.000 C 
ATOM     23  C   UNL     1       6.940  16.574  18.576  0.00  0.00    +0.000 C 
ENDBRANCH  17  18
ENDBRANCH  16  17
ENDBRANCH  14  16
ENDBRANCH   4   7
BRANCH   3  24
ATOM     24  C   UNL     1       7.399   6.371  18.463  0.00  0.00    +0.000 A 
ATOM     25  C   UNL     1       6.716   5.489  19.307  0.00  0.00    +0.000 A 
ATOM     26  C   UNL     1       5.868   4.515  18.787  0.00  0.00    +0.000 A 
ATOM     27  C   UNL     1       5.675   4.422  17.416  0.00  0.00    +0.000 A 
ATOM     28  C   UNL     1       6.373   5.275  16.560  0.00  0.00    +0.000 A 
ATOM     29  C   UNL     1       7.205   6.271  17.081  0.00  0.00    +0.000 A 
BRANCH  27  30
ATOM     30  O   UNL     1       4.837   3.416  17.002  0.00  0.00    +0.000 OA
BRANCH  30  31
ATOM     31  C   UNL     1       3.618   3.248  17.614  0.00  0.00    +0.000 A 
ATOM     32  C   UNL     1       2.718   4.303  17.449  0.00  0.00    +0.000 A 
ATOM     33  C   UNL     1       1.459   4.249  18.044  0.00  0.00    +0.000 A 
ATOM     34  C   UNL     1       1.095   3.136  18.801  0.00  0.00    +0.000 A 
ATOM     35  C   UNL     1       1.975   2.062  18.931  0.00  0.00    +0.000 A 
ATOM     36  C   UNL     1       3.224   2.104  18.315  0.00  0.00    +0.000 A 
ENDBRANCH  30  31
ENDBRANCH  27  30
ENDBRANCH   3  24
TORSDOF 7
ENDMDL
MODEL 7
REMARK VINA RESULT:      -8.2      7.494     11.451
REMARK  Name = 
REMARK  7 active torsions:
REMARK  status: ('A' for Active; 'I' for Inactive)
REMARK    1  A    between atoms: N_3  and  C_4
REMARK    2  A    between atoms: C_7  and  O_8
REMARK    3  A    between atoms: O_8  and  C_9
REMARK    4  A    between atoms: N_17  and  C_18
REMARK    5  A    between atoms: N_25  and  C_26
REMARK    6  A    between atoms: C_26  and  C_27
REMARK    7  A    between atoms: C_27  and  N_28
REMARK                            x       y       z     vdW  Elec       q    Type
REMARK                         _______ _______ _______ _____ _____    ______ ____
ROOT
ATOM      1  O   UNL     1       7.453   9.034  17.759  0.00  0.00    +0.000 OA
ATOM      2  C   UNL     1       8.275   8.441  18.447  0.00  0.00    +0.000 C 
ATOM      3  N   UNL     1       8.239   7.080  18.714  0.00  0.00    +0.000 N 
ATOM      4  N   UNL     1       9.312   9.067  19.111  0.00  0.00    +0.000 N 
ATOM      5  H   UNL     1       8.781   6.742  19.487  0.00  0.00    +0.000 HD
ATOM      6  H   UNL     1       9.838   8.494  19.754  0.00  0.00    +0.000 HD
ENDROOT
BRANCH   4   7
ATOM      7  C   UNL     1       9.352  10.461  19.351  0.00  0.00    +0.000 A 
ATOM      8  C   UNL     1       9.399  11.053  20.620  0.00  0.00    +0.000 A 
ATOM      9  C   UNL     1       9.740  12.402  20.796  0.00  0.00    +0.000 A 
ATOM     10  C   UNL     1      10.117  13.109  19.645  0.00  0.00    +0.000 A 
ATOM     11  C   UNL     1      10.000  12.545  18.375  0.00  0.00    +0.000 A 
ATOM     12  C   UNL     1      10.517  13.500  17.499  0.00  0.00    +0.000 A 
ATOM     13  N   UNL     1      11.022  14.548  18.134  0.00  0.00    +0.000 NA
ATOM     14  N   UNL     1      10.607  14.369  19.402  0.00  0.00    +0.000 N 
ATOM     15  C   UNL     1       9.507  11.248  18.212  0.00  0.00    +0.000 A 
BRANCH  14  16
ATOM     16  C   UNL     1      10.609  15.537  20.259  0.00  0.00    +0.000 C 
BRANCH  16  17
ATOM     17  C   UNL     1       9.258  15.667  21.003  0.00  0.00    +0.000 C 
BRANCH  17  18
ATOM     18  N   UNL     1       8.101  15.812  20.110  0.00  0.00    +0.000 NA
ATOM     19  C   UNL     1       6.941  15.067  20.620  0.00  0.00    +0.000 C 
ATOM     20  C   UNL     1       5.806  15.102  19.595  0.00  0.00    +0.000 C 
ATOM     21  C   UNL     1       5.460  16.532  19.193  0.00  0.00    +0.000 C 
ATOM     22  C   UNL     1       6.712  17.290  18.768  0.00  0.00    +0.000 C 
ATOM     23  C   UNL     1       7.779  17.210  19.845  0.00  0.00    +0.000 C 
ENDBRANCH  17  18
ENDBRANCH  16  17
ENDBRANCH  14  16
ENDBRANCH   4   7
BRANCH   3  24
ATOM     24  C   UNL     1       7.264   6.189  18.206  0.00  0.00    +0.000 A 
ATOM     25  C   UNL     1       6.346   5.527  19.028  0.00  0.00    +0.000 A 
ATOM     26  C   UNL     1       5.416   4.641  18.491  0.00  0.00    +0.000 A 
ATOM     27  C   UNL     1       5.378   4.419  17.121  0.00  0.00    +0.000 A 
ATOM     28  C   UNL     1       6.308   5.049  16.292  0.00  0.00    +0.000 A 
ATOM     29  C   UNL     1       7.225   5.959  16.826  0.00  0.00    +0.000 A 
BRANCH  27  30
ATOM     30  O   UNL     1       4.440   3.512  16.694  0.00  0.00    +0.000 OA
BRANCH  30  31
ATOM     31  C   UNL     1       3.390   3.177  17.515  0.00  0.00    +0.000 A 
ATOM     32  C   UNL     1       2.302   4.051  17.477  0.00  0.00    +0.000 A 
ATOM     33  C   UNL     1       1.189   3.821  18.285  0.00  0.00    +0.000 A 
ATOM     34  C   UNL     1       1.162   2.712  19.130  0.00  0.00    +0.000 A 
ATOM     35  C   UNL     1       2.229   1.813  19.137  0.00  0.00    +0.000 A 
ATOM     36  C   UNL     1       3.330   2.029  18.310  0.00  0.00    +0.000 A 
ENDBRANCH  30  31
ENDBRANCH  27  30
ENDBRANCH   3  24
TORSDOF 7
ENDMDL
MODEL 8
REMARK VINA RESULT:      -8.2      7.473     11.507
REMARK  Name = 
REMARK  7 active torsions:
REMARK  status: ('A' for Active; 'I' for Inactive)
REMARK    1  A    between atoms: N_3  and  C_4
REMARK    2  A    between atoms: C_7  and  O_8
REMARK    3  A    between atoms: O_8  and  C_9
REMARK    4  A    between atoms: N_17  and  C_18
REMARK    5  A    between atoms: N_25  and  C_26
REMARK    6  A    between atoms: C_26  and  C_27
REMARK    7  A    between atoms: C_27  and  N_28
REMARK                            x       y       z     vdW  Elec       q    Type
REMARK                         _______ _______ _______ _____ _____    ______ ____
ROOT
ATOM      1  O   UNL     1       7.499   9.007  17.788  0.00  0.00    +0.000 OA
ATOM      2  C   UNL     1       8.334   8.447  18.486  0.00  0.00    +0.000 C 
ATOM      3  N   UNL     1       8.331   7.090  18.776  0.00  0.00    +0.000 N 
ATOM      4  N   UNL     1       9.355   9.108  19.141  0.00  0.00    +0.000 N 
ATOM      5  H   UNL     1       8.880   6.778  19.555  0.00  0.00    +0.000 HD
ATOM      6  H   UNL     1       9.894   8.558  19.793  0.00  0.00    +0.000 HD
ENDROOT
BRANCH   4   7
ATOM      7  C   UNL     1       9.361  10.506  19.357  0.00  0.00    +0.000 A 
ATOM      8  C   UNL     1       9.361  11.121  20.617  0.00  0.00    +0.000 A 
ATOM      9  C   UNL     1       9.671  12.479  20.779  0.00  0.00    +0.000 A 
ATOM     10  C   UNL     1      10.065  13.174  19.626  0.00  0.00    +0.000 A 
ATOM     11  C   UNL     1       9.994  12.586  18.363  0.00  0.00    +0.000 A 
ATOM     12  C   UNL     1      10.516  13.537  17.485  0.00  0.00    +0.000 A 
ATOM     13  N   UNL     1      10.982  14.605  18.115  0.00  0.00    +0.000 NA
ATOM     14  N   UNL     1      10.537  14.440  19.375  0.00  0.00    +0.000 N 
ATOM     15  C   UNL     1       9.532  11.277  18.209  0.00  0.00    +0.000 A 
BRANCH  14  16
ATOM     16  C   UNL     1      10.492  15.622  20.211  0.00  0.00    +0.000 C 
BRANCH  16  17
ATOM     17  C   UNL     1       9.292  15.553  21.185  0.00  0.00    +0.000 C 
BRANCH  17  18
ATOM     18  N   UNL     1       8.034  16.052  20.614  0.00  0.00    +0.000 NA
ATOM     19  C   UNL     1       8.267  16.736  19.334  0.00  0.00    +0.000 C 
ATOM     20  C   UNL     1       6.970  17.383  18.845  0.00  0.00    +0.000 C 
ATOM     21  C   UNL     1       5.832  16.370  18.775  0.00  0.00    +0.000 C 
ATOM     22  C   UNL     1       5.698  15.620  20.094  0.00  0.00    +0.000 C 
ATOM     23  C   UNL     1       7.026  15.004  20.499  0.00  0.00    +0.000 C 
ENDBRANCH  17  18
ENDBRANCH  16  17
ENDBRANCH  14  16
ENDBRANCH   4   7
BRANCH   3  24
ATOM     24  C   UNL     1       7.379   6.167  18.282  0.00  0.00    +0.000 A 
ATOM     25  C   UNL     1       7.220   5.904  16.917  0.00  0.00    +0.000 A 
ATOM     26  C   UNL     1       6.257   5.004  16.470  0.00  0.00    +0.000 A 
ATOM     27  C   UNL     1       5.451   4.338  17.383  0.00  0.00    +0.000 A 
ATOM     28  C   UNL     1       5.577   4.613  18.746  0.00  0.00    +0.000 A 
ATOM     29  C   UNL     1       6.561   5.496  19.199  0.00  0.00    +0.000 A 
BRANCH  27  30
ATOM     30  O   UNL     1       4.518   3.488  16.842  0.00  0.00    +0.000 OA
BRANCH  30  31
ATOM     31  C   UNL     1       3.335   3.264  17.503  0.00  0.00    +0.000 A 
ATOM     32  C   UNL     1       3.238   2.029  18.149  0.00  0.00    +0.000 A 
ATOM     33  C   UNL     1       2.074   1.685  18.834  0.00  0.00    +0.000 A 
ATOM     34  C   UNL     1       1.004   2.578  18.877  0.00  0.00    +0.000 A 
ATOM     35  C   UNL     1       1.113   3.829  18.270  0.00  0.00    +0.000 A 
ATOM     36  C   UNL     1       2.288   4.184  17.608  0.00  0.00    +0.000 A 
ENDBRANCH  30  31
ENDBRANCH  27  30
ENDBRANCH   3  24
TORSDOF 7
ENDMDL
MODEL 9
REMARK VINA RESULT:      -8.1      3.200     11.546
REMARK  Name = 
REMARK  7 active torsions:
REMARK  status: ('A' for Active; 'I' for Inactive)
REMARK    1  A    between atoms: N_3  and  C_4
REMARK    2  A    between atoms: C_7  and  O_8
REMARK    3  A    between atoms: O_8  and  C_9
REMARK    4  A    between atoms: N_17  and  C_18
REMARK    5  A    between atoms: N_25  and  C_26
REMARK    6  A    between atoms: C_26  and  C_27
REMARK    7  A    between atoms: C_27  and  N_28
REMARK                            x       y       z     vdW  Elec       q    Type
REMARK                         _______ _______ _______ _____ _____    ______ ____
ROOT
ATOM      1  O   UNL     1      -0.956  10.695  19.737  0.00  0.00    +0.000 OA
ATOM      2  C   UNL     1      -0.173  10.950  20.643  0.00  0.00    +0.000 C 
ATOM      3  N   UNL     1       1.004  10.255  20.882  0.00  0.00    +0.000 N 
ATOM      4  N   UNL     1      -0.395  11.925  21.597  0.00  0.00    +0.000 N 
ATOM      5  H   UNL     1       1.431  10.357  21.784  0.00  0.00    +0.000 HD
ATOM      6  H   UNL     1       0.255  11.947  22.369  0.00  0.00    +0.000 HD
ENDROOT
BRANCH   4   7
ATOM      7  C   UNL     1      -1.665  12.497  21.842  0.00  0.00    +0.000 A 
ATOM      8  C   UNL     1      -2.547  12.942  20.847  0.00  0.00    +0.000 A 
ATOM      9  C   UNL     1      -3.896  13.214  21.119  0.00  0.00    +0.000 A 
ATOM     10  C   UNL     1      -4.341  12.935  22.420  0.00  0.00    +0.000 A 
ATOM     11  C   UNL     1      -3.453  12.563  23.428  0.00  0.00    +0.000 A 
ATOM     12  C   UNL     1      -4.249  12.313  24.547  0.00  0.00    +0.000 A 
ATOM     13  N   UNL     1      -5.543  12.408  24.277  0.00  0.00    +0.000 NA
ATOM     14  N   UNL     1      -5.563  12.956  23.047  0.00  0.00    +0.000 N 
ATOM     15  C   UNL     1      -2.084  12.450  23.170  0.00  0.00    +0.000 A 
BRANCH  14  16
ATOM     16  C   UNL     1      -6.798  13.592  22.637  0.00  0.00    +0.000 C 
BRANCH  16  17
ATOM     17  C   UNL     1      -7.586  12.677  21.670  0.00  0.00    +0.000 C 
BRANCH  17  18
ATOM     18  N   UNL     1      -7.092  12.711  20.287  0.00  0.00    +0.000 NA
ATOM     19  C   UNL     1      -7.346  11.436  19.602  0.00  0.00    +0.000 C 
ATOM     20  C   UNL     1      -6.681  11.442  18.225  0.00  0.00    +0.000 C 
ATOM     21  C   UNL     1      -7.113  12.651  17.402  0.00  0.00    +0.000 C 
ATOM     22  C   UNL     1      -6.922  13.938  18.194  0.00  0.00    +0.000 C 
ATOM     23  C   UNL     1      -7.620  13.848  19.540  0.00  0.00    +0.000 C 
ENDBRANCH  17  18
ENDBRANCH  16  17
ENDBRANCH  14  16
ENDBRANCH   4   7
BRANCH   3  24
ATOM     24  C   UNL     1       1.470   9.175  20.096  0.00  0.00    +0.000 A 
ATOM     25  C   UNL     1       1.773   9.307  18.736  0.00  0.00    +0.000 A 
ATOM     26  C   UNL     1       2.210   8.215  17.992  0.00  0.00    +0.000 A 
ATOM     27  C   UNL     1       2.369   6.978  18.601  0.00  0.00    +0.000 A 
ATOM     28  C   UNL     1       2.042   6.823  19.949  0.00  0.00    +0.000 A 
ATOM     29  C   UNL     1       1.629   7.925  20.705  0.00  0.00    +0.000 A 
BRANCH  27  30
ATOM     30  O   UNL     1       2.783   5.960  17.778  0.00  0.00    +0.000 OA
BRANCH  30  31
ATOM     31  C   UNL     1       2.729   4.660  18.219  0.00  0.00    +0.000 A 
ATOM     32  C   UNL     1       1.525   3.997  17.973  0.00  0.00    +0.000 A 
ATOM     33  C   UNL     1       1.351   2.680  18.396  0.00  0.00    +0.000 A 
ATOM     34  C   UNL     1       2.384   2.022  19.062  0.00  0.00    +0.000 A 
ATOM     35  C   UNL     1       3.603   2.667  19.271  0.00  0.00    +0.000 A 
ATOM     36  C   UNL     1       3.787   3.974  18.825  0.00  0.00    +0.000 A 
ENDBRANCH  30  31
ENDBRANCH  27  30
ENDBRANCH   3  24
TORSDOF 7
ENDMDL
