MODEL 1
REMARK VINA RESULT:      -7.0      0.000      0.000
REMARK  Name = 
REMARK  3 active torsions:
REMARK  status: ('A' for Active; 'I' for Inactive)
REMARK    1  A    between atoms: C_2  and  C_4
REMARK    2  A    between atoms: C_7  and  C_8
REMARK    3  A    between atoms: C_13  and  O_14
REMARK                            x       y       z     vdW  Elec       q    Type
REMARK                         _______ _______ _______ _____ _____    ______ ____
ROOT
ATOM      1  C   UNK     1       7.341   4.901  17.489  0.00  0.00    +0.000 C 
ATOM      2  C   UNK     1       7.074   4.531  16.047  0.00  0.00    +0.000 C 
ATOM      3  S   UNK     1       5.284   4.480  15.947  0.00  0.00    +0.000 S 
ATOM      4  C   UNK     1       5.157   4.212  17.676  0.00  0.00    +0.000 C 
ATOM      5  N   UNK     1       6.225   4.402  18.393  0.00  0.00    +0.000 NA
ENDROOT
BRANCH   4   6
ATOM      6  C   UNK     1       3.850   3.742  18.204  0.00  0.00    +0.000 A 
ATOM      7  C   UNK     1       2.643   4.275  17.696  0.00  0.00    +0.000 A 
ATOM      8  C   UNK     1       1.404   3.787  18.111  0.00  0.00    +0.000 A 
ATOM      9  C   UNK     1       1.338   2.772  19.059  0.00  0.00    +0.000 A 
ATOM     10  C   UNK     1       2.515   2.249  19.597  0.00  0.00    +0.000 A 
ATOM     11  C   UNK     1       3.763   2.737  19.180  0.00  0.00    +0.000 A 
BRANCH  11  12
ATOM     12  O   UNK     1       4.888   2.186  19.738  0.00  0.00    +0.000 OA
ATOM     13  H   UNK     1       4.720   2.033  20.685  0.00  0.00    +0.000 HD
ENDBRANCH  11  12
ENDBRANCH   4   6
BRANCH   1  15
ATOM     14  O   UNK     1       8.062   6.596  18.962  0.00  0.00    +0.000 OA
ATOM     15  C   UNK     1       7.626   6.403  17.774  0.00  0.00    +0.000 C 
ATOM     16  O   UNK     1       7.400   7.233  16.866  0.00  0.00    +0.000 OA
ENDBRANCH   1  15
TORSDOF 3
ENDMDL
MODEL 2
REMARK VINA RESULT:      -7.0      1.311      1.560
REMARK  Name = 
REMARK  3 active torsions:
REMARK  status: ('A' for Active; 'I' for Inactive)
REMARK    1  A    between atoms: C_2  and  C_4
REMARK    2  A    between atoms: C_7  and  C_8
REMARK    3  A    between atoms: C_13  and  O_14
REMARK                            x       y       z     vdW  Elec       q    Type
REMARK                         _______ _______ _______ _____ _____    ______ ____
ROOT
ATOM      1  C   UNK     1       7.122   4.756  17.611  0.00  0.00    +0.000 C 
ATOM      2  C   UNK     1       6.355   4.348  16.374  0.00  0.00    +0.000 C 
ATOM      3  S   UNK     1       4.638   4.503  16.870  0.00  0.00    +0.000 S 
ATOM      4  C   UNK     1       5.072   4.337  18.561  0.00  0.00    +0.000 C 
ATOM      5  N   UNK     1       6.332   4.436  18.870  0.00  0.00    +0.000 NA
ENDROOT
BRANCH   4   6
ATOM      6  C   UNK     1       3.979   4.051  19.526  0.00  0.00    +0.000 A 
ATOM      7  C   UNK     1       2.953   4.999  19.743  0.00  0.00    +0.000 A 
ATOM      8  C   UNK     1       1.870   4.718  20.575  0.00  0.00    +0.000 A 
ATOM      9  C   UNK     1       1.794   3.494  21.229  0.00  0.00    +0.000 A 
ATOM     10  C   UNK     1       2.809   2.551  21.054  0.00  0.00    +0.000 A 
ATOM     11  C   UNK     1       3.900   2.831  20.216  0.00  0.00    +0.000 A 
BRANCH  11  12
ATOM     12  O   UNK     1       4.867   1.869  20.077  0.00  0.00    +0.000 OA
ATOM     13  H   UNK     1       5.676   2.177  20.523  0.00  0.00    +0.000 HD
ENDBRANCH  11  12
ENDBRANCH   4   6
BRANCH   1  15
ATOM     14  O   UNK     1       7.584   6.789  16.509  0.00  0.00    +0.000 OA
ATOM     15  C   UNK     1       7.626   6.226  17.658  0.00  0.00    +0.000 C 
ATOM     16  O   UNK     1       8.014   6.686  18.755  0.00  0.00    +0.000 OA
ENDBRANCH   1  15
TORSDOF 3
ENDMDL
MODEL 3
REMARK VINA RESULT:      -6.9      1.533      1.831
REMARK  Name = 
REMARK  3 active torsions:
REMARK  status: ('A' for Active; 'I' for Inactive)
REMARK    1  A    between atoms: C_2  and  C_4
REMARK    2  A    between atoms: C_7  and  C_8
REMARK    3  A    between atoms: C_13  and  O_14
REMARK                            x       y       z     vdW  Elec       q    Type
REMARK                         _______ _______ _______ _____ _____    ______ ____
ROOT
ATOM      1  C   UNK     1       6.843   4.990  18.204  0.00  0.00    +0.000 C 
ATOM      2  C   UNK     1       6.163   5.764  17.098  0.00  0.00    +0.000 C 
ATOM      3  S   UNK     1       4.489   5.986  17.704  0.00  0.00    +0.000 S 
ATOM      4  C   UNK     1       4.650   4.601  18.768  0.00  0.00    +0.000 C 
ATOM      5  N   UNK     1       5.845   4.122  18.953  0.00  0.00    +0.000 NA
ENDROOT
BRANCH   4   6
ATOM      6  C   UNK     1       3.407   4.036  19.354  0.00  0.00    +0.000 A 
ATOM      7  C   UNK     1       2.515   4.868  20.070  0.00  0.00    +0.000 A 
ATOM      8  C   UNK     1       1.300   4.382  20.552  0.00  0.00    +0.000 A 
ATOM      9  C   UNK     1       0.954   3.050  20.352  0.00  0.00    +0.000 A 
ATOM     10  C   UNK     1       1.830   2.202  19.673  0.00  0.00    +0.000 A 
ATOM     11  C   UNK     1       3.053   2.688  19.185  0.00  0.00    +0.000 A 
BRANCH  11  12
ATOM     12  O   UNK     1       3.875   1.813  18.523  0.00  0.00    +0.000 OA
ATOM     13  H   UNK     1       4.631   1.603  19.099  0.00  0.00    +0.000 HD
ENDBRANCH  11  12
ENDBRANCH   4   6
BRANCH   1  15
ATOM     14  O   UNK     1       8.132   6.904  18.693  0.00  0.00    +0.000 OA
ATOM     15  C   UNK     1       7.685   5.823  19.212  0.00  0.00    +0.000 C 
ATOM     16  O   UNK     1       7.845   5.371  20.368  0.00  0.00    +0.000 OA
ENDBRANCH   1  15
TORSDOF 3
ENDMDL
MODEL 4
REMARK VINA RESULT:      -6.8      1.761      1.980
REMARK  Name = 
REMARK  3 active torsions:
REMARK  status: ('A' for Active; 'I' for Inactive)
REMARK    1  A    between atoms: C_2  and  C_4
REMARK    2  A    between atoms: C_7  and  C_8
REMARK    3  A    between atoms: C_13  and  O_14
REMARK                            x       y       z     vdW  Elec       q    Type
REMARK                         _______ _______ _______ _____ _____    ______ ____
ROOT
ATOM      1  C   UNK     1       5.742   5.173  16.337  0.00  0.00    +0.000 C 
ATOM      2  C   UNK     1       4.911   6.419  16.125  0.00  0.00    +0.000 C 
ATOM      3  S   UNK     1       4.024   6.605  17.672  0.00  0.00    +0.000 S 
ATOM      4  C   UNK     1       4.212   4.899  18.031  0.00  0.00    +0.000 C 
ATOM      5  N   UNK     1       5.058   4.224  17.308  0.00  0.00    +0.000 NA
ENDROOT
BRANCH   4   6
ATOM      6  C   UNK     1       3.363   4.324  19.106  0.00  0.00    +0.000 A 
ATOM      7  C   UNK     1       2.088   4.872  19.377  0.00  0.00    +0.000 A 
ATOM      8  C   UNK     1       1.237   4.295  20.319  0.00  0.00    +0.000 A 
ATOM      9  C   UNK     1       1.644   3.172  21.029  0.00  0.00    +0.000 A 
ATOM     10  C   UNK     1       2.910   2.629  20.801  0.00  0.00    +0.000 A 
ATOM     11  C   UNK     1       3.768   3.206  19.852  0.00  0.00    +0.000 A 
BRANCH  11  12
ATOM     12  O   UNK     1       4.998   2.632  19.665  0.00  0.00    +0.000 OA
ATOM     13  H   UNK     1       5.485   2.659  20.508  0.00  0.00    +0.000 HD
ENDBRANCH  11  12
ENDBRANCH   4   6
BRANCH   1  15
ATOM     14  O   UNK     1       7.628   6.580  16.501  0.00  0.00    +0.000 OA
ATOM     15  C   UNK     1       7.221   5.395  16.763  0.00  0.00    +0.000 C 
ATOM     16  O   UNK     1       7.839   4.438  17.280  0.00  0.00    +0.000 OA
ENDBRANCH   1  15
TORSDOF 3
ENDMDL
MODEL 5
REMARK VINA RESULT:      -6.8      1.620      1.787
REMARK  Name = 
REMARK  3 active torsions:
REMARK  status: ('A' for Active; 'I' for Inactive)
REMARK    1  A    between atoms: C_2  and  C_4
REMARK    2  A    between atoms: C_7  and  C_8
REMARK    3  A    between atoms: C_13  and  O_14
REMARK                            x       y       z     vdW  Elec       q    Type
REMARK                         _______ _______ _______ _____ _____    ______ ____
ROOT
ATOM      1  C   UNK     1       7.003   4.879  18.059  0.00  0.00    +0.000 C 
ATOM      2  C   UNK     1       6.575   5.471  16.735  0.00  0.00    +0.000 C 
ATOM      3  S   UNK     1       4.827   5.800  16.963  0.00  0.00    +0.000 S 
ATOM      4  C   UNK     1       4.729   4.602  18.241  0.00  0.00    +0.000 C 
ATOM      5  N   UNK     1       5.848   4.150  18.726  0.00  0.00    +0.000 NA
ENDROOT
BRANCH   4   6
ATOM      6  C   UNK     1       3.377   4.149  18.656  0.00  0.00    +0.000 A 
ATOM      7  C   UNK     1       2.783   3.022  18.043  0.00  0.00    +0.000 A 
ATOM      8  C   UNK     1       1.555   2.523  18.476  0.00  0.00    +0.000 A 
ATOM      9  C   UNK     1       0.878   3.149  19.517  0.00  0.00    +0.000 A 
ATOM     10  C   UNK     1       1.429   4.280  20.120  0.00  0.00    +0.000 A 
ATOM     11  C   UNK     1       2.666   4.783  19.687  0.00  0.00    +0.000 A 
BRANCH  11  12
ATOM     12  O   UNK     1       3.164   5.895  20.316  0.00  0.00    +0.000 OA
ATOM     13  H   UNK     1       2.962   5.829  21.267  0.00  0.00    +0.000 HD
ENDBRANCH  11  12
ENDBRANCH   4   6
BRANCH   1  15
ATOM     14  O   UNK     1       7.664   5.397  20.263  0.00  0.00    +0.000 OA
ATOM     15  C   UNK     1       7.670   5.856  19.068  0.00  0.00    +0.000 C 
ATOM     16  O   UNK     1       8.112   6.944  18.637  0.00  0.00    +0.000 OA
ENDBRANCH   1  15
TORSDOF 3
ENDMDL
MODEL 6
REMARK VINA RESULT:      -6.7      1.273      1.607
REMARK  Name = 
REMARK  3 active torsions:
REMARK  status: ('A' for Active; 'I' for Inactive)
REMARK    1  A    between atoms: C_2  and  C_4
REMARK    2  A    between atoms: C_7  and  C_8
REMARK    3  A    between atoms: C_13  and  O_14
REMARK                            x       y       z     vdW  Elec       q    Type
REMARK                         _______ _______ _______ _____ _____    ______ ____
ROOT
ATOM      1  C   UNK     1       7.149   4.756  17.663  0.00  0.00    +0.000 C 
ATOM      2  C   UNK     1       6.864   4.315  16.246  0.00  0.00    +0.000 C 
ATOM      3  S   UNK     1       5.076   4.403  16.127  0.00  0.00    +0.000 S 
ATOM      4  C   UNK     1       4.914   4.259  17.867  0.00  0.00    +0.000 C 
ATOM      5  N   UNK     1       5.990   4.409  18.584  0.00  0.00    +0.000 NA
ENDROOT
BRANCH   4   6
ATOM      6  C   UNK     1       3.570   3.932  18.408  0.00  0.00    +0.000 A 
ATOM      7  C   UNK     1       2.832   2.850  17.876  0.00  0.00    +0.000 A 
ATOM      8  C   UNK     1       1.608   2.468  18.426  0.00  0.00    +0.000 A 
ATOM      9  C   UNK     1       1.081   3.168  19.505  0.00  0.00    +0.000 A 
ATOM     10  C   UNK     1       1.777   4.258  20.030  0.00  0.00    +0.000 A 
ATOM     11  C   UNK     1       3.009   4.644  19.480  0.00  0.00    +0.000 A 
BRANCH  11  12
ATOM     12  O   UNK     1       3.653   5.719  20.036  0.00  0.00    +0.000 OA
ATOM     13  H   UNK     1       3.079   6.502  19.950  0.00  0.00    +0.000 HD
ENDBRANCH  11  12
ENDBRANCH   4   6
BRANCH   1  15
ATOM     14  O   UNK     1       7.287   6.956  16.823  0.00  0.00    +0.000 OA
ATOM     15  C   UNK     1       7.552   6.246  17.855  0.00  0.00    +0.000 C 
ATOM     16  O   UNK     1       8.081   6.583  18.937  0.00  0.00    +0.000 OA
ENDBRANCH   1  15
TORSDOF 3
ENDMDL
MODEL 7
REMARK VINA RESULT:      -6.7      2.282      2.636
REMARK  Name = 
REMARK  3 active torsions:
REMARK  status: ('A' for Active; 'I' for Inactive)
REMARK    1  A    between atoms: C_2  and  C_4
REMARK    2  A    between atoms: C_7  and  C_8
REMARK    3  A    between atoms: C_13  and  O_14
REMARK                            x       y       z     vdW  Elec       q    Type
REMARK                         _______ _______ _______ _____ _____    ______ ____
ROOT
ATOM      1  C   UNK     1       5.446   5.203  15.760  0.00  0.00    +0.000 C 
ATOM      2  C   UNK     1       5.020   6.653  15.807  0.00  0.00    +0.000 C 
ATOM      3  S   UNK     1       4.275   6.823  17.429  0.00  0.00    +0.000 S 
ATOM      4  C   UNK     1       3.955   5.100  17.506  0.00  0.00    +0.000 C 
ATOM      5  N   UNK     1       4.539   4.342  16.624  0.00  0.00    +0.000 NA
ENDROOT
BRANCH   4   6
ATOM      6  C   UNK     1       3.006   4.622  18.544  0.00  0.00    +0.000 A 
ATOM      7  C   UNK     1       2.965   5.244  19.813  0.00  0.00    +0.000 A 
ATOM      8  C   UNK     1       2.022   4.873  20.772  0.00  0.00    +0.000 A 
ATOM      9  C   UNK     1       1.112   3.859  20.497  0.00  0.00    +0.000 A 
ATOM     10  C   UNK     1       1.150   3.210  19.261  0.00  0.00    +0.000 A 
ATOM     11  C   UNK     1       2.096   3.583  18.294  0.00  0.00    +0.000 A 
BRANCH  11  12
ATOM     12  O   UNK     1       2.087   2.916  17.096  0.00  0.00    +0.000 OA
ATOM     13  H   UNK     1       1.277   3.159  16.612  0.00  0.00    +0.000 HD
ENDBRANCH  11  12
ENDBRANCH   4   6
BRANCH   1  15
ATOM     14  O   UNK     1       7.727   5.292  15.165  0.00  0.00    +0.000 OA
ATOM     15  C   UNK     1       6.936   4.911  16.097  0.00  0.00    +0.000 C 
ATOM     16  O   UNK     1       7.200   4.350  17.183  0.00  0.00    +0.000 OA
ENDBRANCH   1  15
TORSDOF 3
ENDMDL
MODEL 8
REMARK VINA RESULT:      -6.6      1.691      1.903
REMARK  Name = 
REMARK  3 active torsions:
REMARK  status: ('A' for Active; 'I' for Inactive)
REMARK    1  A    between atoms: C_2  and  C_4
REMARK    2  A    between atoms: C_7  and  C_8
REMARK    3  A    between atoms: C_13  and  O_14
REMARK                            x       y       z     vdW  Elec       q    Type
REMARK                         _______ _______ _______ _____ _____    ______ ____
ROOT
ATOM      1  C   UNK     1       6.920   4.954  18.157  0.00  0.00    +0.000 C 
ATOM      2  C   UNK     1       6.391   5.614  16.904  0.00  0.00    +0.000 C 
ATOM      3  S   UNK     1       4.686   5.993  17.313  0.00  0.00    +0.000 S 
ATOM      4  C   UNK     1       4.665   4.748  18.548  0.00  0.00    +0.000 C 
ATOM      5  N   UNK     1       5.807   4.238  18.905  0.00  0.00    +0.000 NA
ENDROOT
BRANCH   4   6
ATOM      6  C   UNK     1       3.342   4.325  19.075  0.00  0.00    +0.000 A 
ATOM      7  C   UNK     1       2.874   4.825  20.312  0.00  0.00    +0.000 A 
ATOM      8  C   UNK     1       1.599   4.514  20.784  0.00  0.00    +0.000 A 
ATOM      9  C   UNK     1       0.768   3.679  20.046  0.00  0.00    +0.000 A 
ATOM     10  C   UNK     1       1.217   3.150  18.835  0.00  0.00    +0.000 A 
ATOM     11  C   UNK     1       2.499   3.463  18.356  0.00  0.00    +0.000 A 
BRANCH  11  12
ATOM     12  O   UNK     1       2.888   2.919  17.159  0.00  0.00    +0.000 OA
ATOM     13  H   UNK     1       2.134   2.953  16.544  0.00  0.00    +0.000 HD
ENDBRANCH  11  12
ENDBRANCH   4   6
BRANCH   1  15
ATOM     14  O   UNK     1       7.786   5.370  20.311  0.00  0.00    +0.000 OA
ATOM     15  C   UNK     1       7.717   5.866  19.133  0.00  0.00    +0.000 C 
ATOM     16  O   UNK     1       8.177   6.944  18.696  0.00  0.00    +0.000 OA
ENDBRANCH   1  15
TORSDOF 3
ENDMDL
MODEL 9
REMARK VINA RESULT:      -6.5      2.292      2.729
REMARK  Name = 
REMARK  3 active torsions:
REMARK  status: ('A' for Active; 'I' for Inactive)
REMARK    1  A    between atoms: C_2  and  C_4
REMARK    2  A    between atoms: C_7  and  C_8
REMARK    3  A    between atoms: C_13  and  O_14
REMARK                            x       y       z     vdW  Elec       q    Type
REMARK                         _______ _______ _______ _____ _____    ______ ____
ROOT
ATOM      1  C   UNK     1       5.805   5.852  16.526  0.00  0.00    +0.000 C 
ATOM      2  C   UNK     1       6.561   6.248  17.774  0.00  0.00    +0.000 C 
ATOM      3  S   UNK     1       5.847   5.209  19.050  0.00  0.00    +0.000 S 
ATOM      4  C   UNK     1       4.376   5.006  18.115  0.00  0.00    +0.000 C 
ATOM      5  N   UNK     1       4.401   5.378  16.869  0.00  0.00    +0.000 NA
ENDROOT
BRANCH   4   6
ATOM      6  C   UNK     1       3.185   4.464  18.817  0.00  0.00    +0.000 A 
ATOM      7  C   UNK     1       2.919   4.830  20.157  0.00  0.00    +0.000 A 
ATOM      8  C   UNK     1       1.760   4.407  20.808  0.00  0.00    +0.000 A 
ATOM      9  C   UNK     1       0.849   3.590  20.147  0.00  0.00    +0.000 A 
ATOM     10  C   UNK     1       1.103   3.191  18.833  0.00  0.00    +0.000 A 
ATOM     11  C   UNK     1       2.267   3.618  18.175  0.00  0.00    +0.000 A 
BRANCH  11  12
ATOM     12  O   UNK     1       2.466   3.200  16.885  0.00  0.00    +0.000 OA
ATOM     13  H   UNK     1       1.980   2.366  16.751  0.00  0.00    +0.000 HD
ENDBRANCH  11  12
ENDBRANCH   4   6
BRANCH   1  15
ATOM     14  O   UNK     1       7.515   5.319  14.992  0.00  0.00    +0.000 OA
ATOM     15  C   UNK     1       6.503   4.820  15.595  0.00  0.00    +0.000 C 
ATOM     16  O   UNK     1       6.023   3.667  15.522  0.00  0.00    +0.000 OA
ENDBRANCH   1  15
TORSDOF 3
ENDMDL
