MODEL 1
REMARK VINA RESULT:      -7.6      0.000      0.000
REMARK  Name = 
REMARK  12 active torsions:
REMARK  status: ('A' for Active; 'I' for Inactive)
REMARK    1  A    between atoms: C_1  and  C_2
REMARK    2  A    between atoms: C_2  and  O_3
REMARK    3  A    between atoms: C_2  and  C_4
REMARK    4  A    between atoms: C_4  and  C_5
REMARK    5  A    between atoms: C_4  and  C_6
REMARK    6  A    between atoms: C_8  and  C_9
REMARK    7  A    between atoms: C_9  and  C_10
REMARK    8  A    between atoms: C_13  and  C_14
REMARK    9  A    between atoms: C_14  and  N_15
REMARK   10  A    between atoms: C_18  and  C_19
REMARK   11  A    between atoms: C_26  and  O_27
REMARK   12  A    between atoms: C_28  and  O_29
REMARK                            x       y       z     vdW  Elec       q    Type
REMARK                         _______ _______ _______ _____ _____    ______ ____
ROOT
ATOM      1  C   UNL     1       2.810   2.748  18.355  0.00  0.00    +0.000 C 
ATOM      2  C   UNL     1       3.345   2.453  19.765  0.00  0.00    +0.000 C 
ATOM      3  O   UNL     1       2.358   2.548  20.796  0.00  0.00    +0.000 OA
ATOM      4  C   UNL     1       1.649   3.804  20.855  0.00  0.00    +0.000 C 
ATOM      5  C   UNL     1       0.898   3.953  19.529  0.00  0.00    +0.000 C 
ATOM      6  C   UNL     1       1.872   3.965  18.343  0.00  0.00    +0.000 C 
ENDROOT
BRANCH   5   7
ATOM      7  O   UNL     1       0.029   2.809  19.357  0.00  0.00    +0.000 OA
ATOM      8  H   UNL     1       0.547   2.022  19.627  0.00  0.00    +0.000 HD
ENDBRANCH   5   7
BRANCH   6   9
ATOM      9  O   UNL     1       1.115   3.943  17.126  0.00  0.00    +0.000 OA
ATOM     10  H   UNL     1       0.543   4.739  17.158  0.00  0.00    +0.000 HD
ENDBRANCH   6   9
BRANCH   1  11
ATOM     11  C   UNL     1       3.964   2.945  17.345  0.00  0.00    +0.000 C 
BRANCH  11  14
ATOM     12  C   UNL     1       6.019   4.610  17.534  0.00  0.00    +0.000 C 
ATOM     13  O   UNL     1       5.342   4.687  16.278  0.00  0.00    +0.000 OA
ATOM     14  C   UNL     1       4.531   4.329  17.397  0.00  0.00    +0.000 C 
BRANCH  12  15
ATOM     15  C   UNL     1       6.451   5.925  18.137  0.00  0.00    +0.000 C 
ATOM     16  C   UNL     1       7.541   5.638  19.181  0.00  0.00    +0.000 C 
BRANCH  15  18
ATOM     17  C   UNL     1       7.866   8.050  17.684  0.00  0.00    +0.000 C 
ATOM     18  C   UNL     1       6.940   6.976  17.111  0.00  0.00    +0.000 C 
BRANCH  18  19
ATOM     19  O   UNL     1       7.652   6.300  16.064  0.00  0.00    +0.000 OA
ATOM     20  H   UNL     1       7.068   5.617  15.689  0.00  0.00    +0.000 HD
ENDBRANCH  18  19
ENDBRANCH  15  18
ENDBRANCH  12  15
ENDBRANCH  11  14
ENDBRANCH   1  11
BRANCH   4  21
ATOM     21  C   UNL     1       2.573   4.963  21.244  0.00  0.00    +0.000 C 
BRANCH  21  22
ATOM     22  N   UNL     1       2.082   6.251  20.824  0.00  0.00    +0.000 N 
ATOM     23  N   UNL     1       2.532   6.840  19.710  0.00  0.00    +0.000 NA
ATOM     24  N   UNL     1       1.869   7.984  19.646  0.00  0.00    +0.000 NA
ATOM     25  C   UNL     1       1.034   8.031  20.744  0.00  0.00    +0.000 A 
ATOM     26  N   UNL     1       1.139   6.924  21.508  0.00  0.00    +0.000 NA
BRANCH  25  27
ATOM     27  C   UNL     1       0.219   9.201  21.045  0.00  0.00    +0.000 A 
ATOM     28  C   UNL     1      -0.193  10.048  20.001  0.00  0.00    +0.000 A 
ATOM     29  C   UNL     1      -0.884  11.231  20.264  0.00  0.00    +0.000 A 
ATOM     30  C   UNL     1      -1.189  11.579  21.580  0.00  0.00    +0.000 A 
ATOM     31  C   UNL     1      -0.820  10.732  22.624  0.00  0.00    +0.000 A 
ATOM     32  C   UNL     1      -0.121   9.548  22.358  0.00  0.00    +0.000 A 
ENDBRANCH  25  27
ENDBRANCH  21  22
ENDBRANCH   4  21
TORSDOF 10
ENDMDL
MODEL 2
REMARK VINA RESULT:      -7.6      1.351      1.886
REMARK  Name = 
REMARK  12 active torsions:
REMARK  status: ('A' for Active; 'I' for Inactive)
REMARK    1  A    between atoms: C_1  and  C_2
REMARK    2  A    between atoms: C_2  and  O_3
REMARK    3  A    between atoms: C_2  and  C_4
REMARK    4  A    between atoms: C_4  and  C_5
REMARK    5  A    between atoms: C_4  and  C_6
REMARK    6  A    between atoms: C_8  and  C_9
REMARK    7  A    between atoms: C_9  and  C_10
REMARK    8  A    between atoms: C_13  and  C_14
REMARK    9  A    between atoms: C_14  and  N_15
REMARK   10  A    between atoms: C_18  and  C_19
REMARK   11  A    between atoms: C_26  and  O_27
REMARK   12  A    between atoms: C_28  and  O_29
REMARK                            x       y       z     vdW  Elec       q    Type
REMARK                         _______ _______ _______ _____ _____    ______ ____
ROOT
ATOM      1  C   UNL     1       2.769   2.565  19.103  0.00  0.00    +0.000 C 
ATOM      2  C   UNL     1       3.761   3.303  20.016  0.00  0.00    +0.000 C 
ATOM      3  O   UNL     1       3.141   4.069  21.052  0.00  0.00    +0.000 OA
ATOM      4  C   UNL     1       2.165   5.034  20.604  0.00  0.00    +0.000 C 
ATOM      5  C   UNL     1       1.042   4.245  19.925  0.00  0.00    +0.000 C 
ATOM      6  C   UNL     1       1.574   3.453  18.723  0.00  0.00    +0.000 C 
ENDROOT
BRANCH   5   7
ATOM      7  O   UNL     1       0.511   3.286  20.869  0.00  0.00    +0.000 OA
ATOM      8  H   UNL     1      -0.457   3.436  20.904  0.00  0.00    +0.000 HD
ENDBRANCH   5   7
BRANCH   6   9
ATOM      9  O   UNL     1       0.525   2.612  18.226  0.00  0.00    +0.000 OA
ATOM     10  H   UNL     1       0.821   2.322  17.337  0.00  0.00    +0.000 HD
ENDBRANCH   6   9
BRANCH   1  11
ATOM     11  C   UNL     1       3.468   2.028  17.832  0.00  0.00    +0.000 C 
BRANCH  11  14
ATOM     12  C   UNL     1       4.779   3.506  16.064  0.00  0.00    +0.000 C 
ATOM     13  O   UNL     1       4.347   4.244  17.207  0.00  0.00    +0.000 OA
ATOM     14  C   UNL     1       4.643   2.866  17.436  0.00  0.00    +0.000 C 
BRANCH  12  15
ATOM     15  C   UNL     1       6.164   3.825  15.553  0.00  0.00    +0.000 C 
ATOM     16  C   UNL     1       6.081   4.015  14.029  0.00  0.00    +0.000 C 
BRANCH  15  18
ATOM     17  C   UNL     1       7.659   4.734  17.465  0.00  0.00    +0.000 C 
ATOM     18  C   UNL     1       6.832   5.052  16.220  0.00  0.00    +0.000 C 
BRANCH  18  19
ATOM     19  O   UNL     1       7.702   5.678  15.266  0.00  0.00    +0.000 OA
ATOM     20  H   UNL     1       7.296   6.517  14.986  0.00  0.00    +0.000 HD
ENDBRANCH  18  19
ENDBRANCH  15  18
ENDBRANCH  12  15
ENDBRANCH  11  14
ENDBRANCH   1  11
BRANCH   4  21
ATOM     21  C   UNL     1       2.806   6.151  19.775  0.00  0.00    +0.000 C 
BRANCH  21  22
ATOM     22  N   UNL     1       2.073   7.391  19.823  0.00  0.00    +0.000 N 
ATOM     23  N   UNL     1       2.049   8.229  18.782  0.00  0.00    +0.000 NA
ATOM     24  N   UNL     1       1.293   9.239  19.182  0.00  0.00    +0.000 NA
ATOM     25  C   UNL     1       0.888   8.956  20.471  0.00  0.00    +0.000 A 
ATOM     26  N   UNL     1       1.361   7.768  20.901  0.00  0.00    +0.000 NA
BRANCH  25  27
ATOM     27  C   UNL     1       0.112   9.903  21.262  0.00  0.00    +0.000 A 
ATOM     28  C   UNL     1      -0.113  11.201  20.769  0.00  0.00    +0.000 A 
ATOM     29  C   UNL     1      -0.760  12.163  21.544  0.00  0.00    +0.000 A 
ATOM     30  C   UNL     1      -1.208  11.836  22.824  0.00  0.00    +0.000 A 
ATOM     31  C   UNL     1      -1.026  10.544  23.313  0.00  0.00    +0.000 A 
ATOM     32  C   UNL     1      -0.371   9.581  22.536  0.00  0.00    +0.000 A 
ENDBRANCH  25  27
ENDBRANCH  21  22
ENDBRANCH   4  21
TORSDOF 10
ENDMDL
MODEL 3
REMARK VINA RESULT:      -7.5      3.542      7.635
REMARK  Name = 
REMARK  12 active torsions:
REMARK  status: ('A' for Active; 'I' for Inactive)
REMARK    1  A    between atoms: C_1  and  C_2
REMARK    2  A    between atoms: C_2  and  O_3
REMARK    3  A    between atoms: C_2  and  C_4
REMARK    4  A    between atoms: C_4  and  C_5
REMARK    5  A    between atoms: C_4  and  C_6
REMARK    6  A    between atoms: C_8  and  C_9
REMARK    7  A    between atoms: C_9  and  C_10
REMARK    8  A    between atoms: C_13  and  C_14
REMARK    9  A    between atoms: C_14  and  N_15
REMARK   10  A    between atoms: C_18  and  C_19
REMARK   11  A    between atoms: C_26  and  O_27
REMARK   12  A    between atoms: C_28  and  O_29
REMARK                            x       y       z     vdW  Elec       q    Type
REMARK                         _______ _______ _______ _____ _____    ______ ____
ROOT
ATOM      1  C   UNL     1       1.568   4.573  19.951  0.00  0.00    +0.000 C 
ATOM      2  C   UNL     1       2.243   5.006  18.639  0.00  0.00    +0.000 C 
ATOM      3  O   UNL     1       2.845   3.931  17.912  0.00  0.00    +0.000 OA
ATOM      4  C   UNL     1       3.802   3.146  18.654  0.00  0.00    +0.000 C 
ATOM      5  C   UNL     1       3.041   2.502  19.816  0.00  0.00    +0.000 C 
ATOM      6  C   UNL     1       2.429   3.569  20.733  0.00  0.00    +0.000 C 
ENDROOT
BRANCH   5   7
ATOM      7  O   UNL     1       1.949   1.720  19.279  0.00  0.00    +0.000 OA
ATOM      8  H   UNL     1       1.565   1.224  20.032  0.00  0.00    +0.000 HD
ENDBRANCH   5   7
BRANCH   6   9
ATOM      9  O   UNL     1       1.599   2.919  21.704  0.00  0.00    +0.000 OA
ATOM     10  H   UNL     1       1.074   3.635  22.121  0.00  0.00    +0.000 HD
ENDBRANCH   6   9
BRANCH   1  11
ATOM     11  C   UNL     1       1.225   5.794  20.836  0.00  0.00    +0.000 C 
BRANCH  11  14
ATOM     12  C   UNL     1       1.142   8.337  20.087  0.00  0.00    +0.000 C 
ATOM     13  O   UNL     1       1.881   8.125  21.291  0.00  0.00    +0.000 OA
ATOM     14  C   UNL     1       1.896   7.044  20.359  0.00  0.00    +0.000 C 
BRANCH  12  15
ATOM     15  C   UNL     1       1.734   9.323  19.109  0.00  0.00    +0.000 C 
ATOM     16  C   UNL     1       1.980   8.590  17.780  0.00  0.00    +0.000 C 
BRANCH  15  18
ATOM     17  C   UNL     1       1.690  11.884  18.710  0.00  0.00    +0.000 C 
ATOM     18  C   UNL     1       0.884  10.596  18.881  0.00  0.00    +0.000 C 
BRANCH  18  19
ATOM     19  O   UNL     1       0.093  10.415  17.698  0.00  0.00    +0.000 OA
ATOM     20  H   UNL     1       0.483  10.950  16.984  0.00  0.00    +0.000 HD
ENDBRANCH  18  19
ENDBRANCH  15  18
ENDBRANCH  12  15
ENDBRANCH  11  14
ENDBRANCH   1  11
BRANCH   4  21
ATOM     21  C   UNL     1       5.044   3.962  19.026  0.00  0.00    +0.000 C 
BRANCH  21  22
ATOM     22  N   UNL     1       5.891   4.261  17.899  0.00  0.00    +0.000 N 
ATOM     23  N   UNL     1       7.090   4.831  18.058  0.00  0.00    +0.000 NA
ATOM     24  N   UNL     1       7.569   4.950  16.830  0.00  0.00    +0.000 NA
ATOM     25  C   UNL     1       6.618   4.436  15.972  0.00  0.00    +0.000 A 
ATOM     26  N   UNL     1       5.537   3.973  16.633  0.00  0.00    +0.000 NA
BRANCH  25  27
ATOM     27  C   UNL     1       6.774   4.492  14.524  0.00  0.00    +0.000 A 
ATOM     28  C   UNL     1       6.017   3.631  13.709  0.00  0.00    +0.000 A 
ATOM     29  C   UNL     1       6.218   3.585  12.329  0.00  0.00    +0.000 A 
ATOM     30  C   UNL     1       7.172   4.414  11.738  0.00  0.00    +0.000 A 
ATOM     31  C   UNL     1       7.904   5.300  12.528  0.00  0.00    +0.000 A 
ATOM     32  C   UNL     1       7.706   5.340  13.913  0.00  0.00    +0.000 A 
ENDBRANCH  25  27
ENDBRANCH  21  22
ENDBRANCH   4  21
TORSDOF 10
ENDMDL
MODEL 4
REMARK VINA RESULT:      -7.4      3.586      7.758
REMARK  Name = 
REMARK  12 active torsions:
REMARK  status: ('A' for Active; 'I' for Inactive)
REMARK    1  A    between atoms: C_1  and  C_2
REMARK    2  A    between atoms: C_2  and  O_3
REMARK    3  A    between atoms: C_2  and  C_4
REMARK    4  A    between atoms: C_4  and  C_5
REMARK    5  A    between atoms: C_4  and  C_6
REMARK    6  A    between atoms: C_8  and  C_9
REMARK    7  A    between atoms: C_9  and  C_10
REMARK    8  A    between atoms: C_13  and  C_14
REMARK    9  A    between atoms: C_14  and  N_15
REMARK   10  A    between atoms: C_18  and  C_19
REMARK   11  A    between atoms: C_26  and  O_27
REMARK   12  A    between atoms: C_28  and  O_29
REMARK                            x       y       z     vdW  Elec       q    Type
REMARK                         _______ _______ _______ _____ _____    ______ ____
ROOT
ATOM      1  C   UNL     1       1.370   4.970  19.788  0.00  0.00    +0.000 C 
ATOM      2  C   UNL     1       2.199   5.412  18.571  0.00  0.00    +0.000 C 
ATOM      3  O   UNL     1       2.396   4.384  17.596  0.00  0.00    +0.000 OA
ATOM      4  C   UNL     1       2.981   3.164  18.098  0.00  0.00    +0.000 C 
ATOM      5  C   UNL     1       2.001   2.594  19.128  0.00  0.00    +0.000 C 
ATOM      6  C   UNL     1       1.784   3.576  20.286  0.00  0.00    +0.000 C 
ENDROOT
BRANCH   5   7
ATOM      7  O   UNL     1       0.718   2.396  18.487  0.00  0.00    +0.000 OA
ATOM      8  H   UNL     1       0.342   1.575  18.866  0.00  0.00    +0.000 HD
ENDBRANCH   5   7
BRANCH   6   9
ATOM      9  O   UNL     1       0.744   3.069  21.131  0.00  0.00    +0.000 OA
ATOM     10  H   UNL     1       0.711   3.677  21.900  0.00  0.00    +0.000 HD
ENDBRANCH   6   9
BRANCH   1  11
ATOM     11  C   UNL     1       1.462   6.003  20.935  0.00  0.00    +0.000 C 
BRANCH  11  14
ATOM     12  C   UNL     1       1.010   8.464  20.057  0.00  0.00    +0.000 C 
ATOM     13  O   UNL     1       1.654   8.427  21.331  0.00  0.00    +0.000 OA
ATOM     14  C   UNL     1       1.947   7.335  20.459  0.00  0.00    +0.000 C 
BRANCH  12  15
ATOM     15  C   UNL     1       1.514   9.507  19.088  0.00  0.00    +0.000 C 
ATOM     16  C   UNL     1       1.282   8.986  17.660  0.00  0.00    +0.000 C 
BRANCH  15  18
ATOM     17  C   UNL     1      -0.622  10.974  19.024  0.00  0.00    +0.000 C 
ATOM     18  C   UNL     1       0.886  10.910  19.266  0.00  0.00    +0.000 C 
BRANCH  18  19
ATOM     19  O   UNL     1       1.131  11.357  20.608  0.00  0.00    +0.000 OA
ATOM     20  H   UNL     1       1.312  12.314  20.583  0.00  0.00    +0.000 HD
ENDBRANCH  18  19
ENDBRANCH  15  18
ENDBRANCH  12  15
ENDBRANCH  11  14
ENDBRANCH   1  11
BRANCH   4  21
ATOM     21  C   UNL     1       4.420   3.376  18.578  0.00  0.00    +0.000 C 
BRANCH  21  22
ATOM     22  N   UNL     1       5.277   3.958  17.576  0.00  0.00    +0.000 N 
ATOM     23  N   UNL     1       6.138   4.936  17.876  0.00  0.00    +0.000 NA
ATOM     24  N   UNL     1       6.742   5.213  16.731  0.00  0.00    +0.000 NA
ATOM     25  C   UNL     1       6.206   4.372  15.777  0.00  0.00    +0.000 A 
ATOM     26  N   UNL     1       5.275   3.545  16.295  0.00  0.00    +0.000 NA
BRANCH  25  27
ATOM     27  C   UNL     1       6.575   4.467  14.369  0.00  0.00    +0.000 A 
ATOM     28  C   UNL     1       5.959   3.621  13.430  0.00  0.00    +0.000 A 
ATOM     29  C   UNL     1       6.363   3.613  12.095  0.00  0.00    +0.000 A 
ATOM     30  C   UNL     1       7.383   4.466  11.673  0.00  0.00    +0.000 A 
ATOM     31  C   UNL     1       7.978   5.338  12.584  0.00  0.00    +0.000 A 
ATOM     32  C   UNL     1       7.576   5.339  13.925  0.00  0.00    +0.000 A 
ENDBRANCH  25  27
ENDBRANCH  21  22
ENDBRANCH   4  21
TORSDOF 10
ENDMDL
MODEL 5
REMARK VINA RESULT:      -7.3      1.104      1.352
REMARK  Name = 
REMARK  12 active torsions:
REMARK  status: ('A' for Active; 'I' for Inactive)
REMARK    1  A    between atoms: C_1  and  C_2
REMARK    2  A    between atoms: C_2  and  O_3
REMARK    3  A    between atoms: C_2  and  C_4
REMARK    4  A    between atoms: C_4  and  C_5
REMARK    5  A    between atoms: C_4  and  C_6
REMARK    6  A    between atoms: C_8  and  C_9
REMARK    7  A    between atoms: C_9  and  C_10
REMARK    8  A    between atoms: C_13  and  C_14
REMARK    9  A    between atoms: C_14  and  N_15
REMARK   10  A    between atoms: C_18  and  C_19
REMARK   11  A    between atoms: C_26  and  O_27
REMARK   12  A    between atoms: C_28  and  O_29
REMARK                            x       y       z     vdW  Elec       q    Type
REMARK                         _______ _______ _______ _____ _____    ______ ____
ROOT
ATOM      1  C   UNL     1       2.895   2.701  19.094  0.00  0.00    +0.000 C 
ATOM      2  C   UNL     1       3.750   3.388  20.171  0.00  0.00    +0.000 C 
ATOM      3  O   UNL     1       2.990   4.080  21.166  0.00  0.00    +0.000 OA
ATOM      4  C   UNL     1       2.061   5.061  20.658  0.00  0.00    +0.000 C 
ATOM      5  C   UNL     1       1.048   4.307  19.793  0.00  0.00    +0.000 C 
ATOM      6  C   UNL     1       1.741   3.599  18.622  0.00  0.00    +0.000 C 
ENDROOT
BRANCH   5   7
ATOM      7  O   UNL     1       0.419   3.284  20.600  0.00  0.00    +0.000 OA
ATOM      8  H   UNL     1       0.060   2.619  19.977  0.00  0.00    +0.000 HD
ENDBRANCH   5   7
BRANCH   6   9
ATOM      9  O   UNL     1       0.779   2.783  17.943  0.00  0.00    +0.000 OA
ATOM     10  H   UNL     1       1.304   2.153  17.403  0.00  0.00    +0.000 HD
ENDBRANCH   6   9
BRANCH   1  11
ATOM     11  C   UNL     1       3.759   2.254  17.892  0.00  0.00    +0.000 C 
BRANCH  11  14
ATOM     12  C   UNL     1       5.417   4.187  17.152  0.00  0.00    +0.000 C 
ATOM     13  O   UNL     1       5.257   3.169  16.163  0.00  0.00    +0.000 OA
ATOM     14  C   UNL     1       4.124   3.399  17.001  0.00  0.00    +0.000 C 
BRANCH  12  15
ATOM     15  C   UNL     1       5.458   5.608  16.643  0.00  0.00    +0.000 C 
ATOM     16  C   UNL     1       4.798   6.513  17.696  0.00  0.00    +0.000 C 
BRANCH  15  18
ATOM     17  C   UNL     1       7.542   6.963  17.377  0.00  0.00    +0.000 C 
ATOM     18  C   UNL     1       6.873   6.126  16.287  0.00  0.00    +0.000 C 
BRANCH  18  19
ATOM     19  O   UNL     1       7.721   4.999  16.019  0.00  0.00    +0.000 OA
ATOM     20  H   UNL     1       7.785   4.464  16.831  0.00  0.00    +0.000 HD
ENDBRANCH  18  19
ENDBRANCH  15  18
ENDBRANCH  12  15
ENDBRANCH  11  14
ENDBRANCH   1  11
BRANCH   4  21
ATOM     21  C   UNL     1       2.782   6.236  19.989  0.00  0.00    +0.000 C 
BRANCH  21  22
ATOM     22  N   UNL     1       2.003   7.449  19.970  0.00  0.00    +0.000 N 
ATOM     23  N   UNL     1       2.022   8.275  18.918  0.00  0.00    +0.000 NA
ATOM     24  N   UNL     1       1.204   9.260  19.251  0.00  0.00    +0.000 NA
ATOM     25  C   UNL     1       0.718   8.974  20.512  0.00  0.00    +0.000 A 
ATOM     26  N   UNL     1       1.202   7.810  20.990  0.00  0.00    +0.000 NA
BRANCH  25  27
ATOM     27  C   UNL     1      -0.146   9.900  21.234  0.00  0.00    +0.000 A 
ATOM     28  C   UNL     1      -0.678  11.018  20.568  0.00  0.00    +0.000 A 
ATOM     29  C   UNL     1      -1.421  11.978  21.254  0.00  0.00    +0.000 A 
ATOM     30  C   UNL     1      -1.658  11.827  22.621  0.00  0.00    +0.000 A 
ATOM     31  C   UNL     1      -1.169  10.705  23.288  0.00  0.00    +0.000 A 
ATOM     32  C   UNL     1      -0.418   9.746  22.599  0.00  0.00    +0.000 A 
ENDBRANCH  25  27
ENDBRANCH  21  22
ENDBRANCH   4  21
TORSDOF 10
ENDMDL
MODEL 6
REMARK VINA RESULT:      -7.3      1.538      2.224
REMARK  Name = 
REMARK  12 active torsions:
REMARK  status: ('A' for Active; 'I' for Inactive)
REMARK    1  A    between atoms: C_1  and  C_2
REMARK    2  A    between atoms: C_2  and  O_3
REMARK    3  A    between atoms: C_2  and  C_4
REMARK    4  A    between atoms: C_4  and  C_5
REMARK    5  A    between atoms: C_4  and  C_6
REMARK    6  A    between atoms: C_8  and  C_9
REMARK    7  A    between atoms: C_9  and  C_10
REMARK    8  A    between atoms: C_13  and  C_14
REMARK    9  A    between atoms: C_14  and  N_15
REMARK   10  A    between atoms: C_18  and  C_19
REMARK   11  A    between atoms: C_26  and  O_27
REMARK   12  A    between atoms: C_28  and  O_29
REMARK                            x       y       z     vdW  Elec       q    Type
REMARK                         _______ _______ _______ _____ _____    ______ ____
ROOT
ATOM      1  C   UNL     1       2.837   2.867  19.043  0.00  0.00    +0.000 C 
ATOM      2  C   UNL     1       3.686   3.598  20.097  0.00  0.00    +0.000 C 
ATOM      3  O   UNL     1       2.921   4.209  21.139  0.00  0.00    +0.000 OA
ATOM      4  C   UNL     1       1.897   5.125  20.696  0.00  0.00    +0.000 C 
ATOM      5  C   UNL     1       0.906   4.310  19.860  0.00  0.00    +0.000 C 
ATOM      6  C   UNL     1       1.597   3.682  18.643  0.00  0.00    +0.000 C 
ENDROOT
BRANCH   5   7
ATOM      7  O   UNL     1       0.396   3.226  20.671  0.00  0.00    +0.000 OA
ATOM      8  H   UNL     1      -0.350   3.593  21.191  0.00  0.00    +0.000 HD
ENDBRANCH   5   7
BRANCH   6   9
ATOM      9  O   UNL     1       0.670   2.805  17.990  0.00  0.00    +0.000 OA
ATOM     10  H   UNL     1       0.337   3.306  17.215  0.00  0.00    +0.000 HD
ENDBRANCH   6   9
BRANCH   1  11
ATOM     11  C   UNL     1       3.676   2.512  17.794  0.00  0.00    +0.000 C 
BRANCH  11  14
ATOM     12  C   UNL     1       5.271   3.807  16.117  0.00  0.00    +0.000 C 
ATOM     13  O   UNL     1       4.297   4.649  16.736  0.00  0.00    +0.000 OA
ATOM     14  C   UNL     1       4.733   3.533  17.513  0.00  0.00    +0.000 C 
BRANCH  12  15
ATOM     15  C   UNL     1       6.659   4.386  15.982  0.00  0.00    +0.000 C 
ATOM     16  C   UNL     1       6.876   4.769  14.509  0.00  0.00    +0.000 C 
BRANCH  15  18
ATOM     17  C   UNL     1       7.692   5.247  18.199  0.00  0.00    +0.000 C 
ATOM     18  C   UNL     1       6.948   5.592  16.908  0.00  0.00    +0.000 C 
BRANCH  18  19
ATOM     19  O   UNL     1       7.744   6.545  16.188  0.00  0.00    +0.000 OA
ATOM     20  H   UNL     1       8.607   6.623  16.633  0.00  0.00    +0.000 HD
ENDBRANCH  18  19
ENDBRANCH  15  18
ENDBRANCH  12  15
ENDBRANCH  11  14
ENDBRANCH   1  11
BRANCH   4  21
ATOM     21  C   UNL     1       2.493   6.365  20.023  0.00  0.00    +0.000 C 
BRANCH  21  22
ATOM     22  N   UNL     1       1.734   7.566  20.261  0.00  0.00    +0.000 N 
ATOM     23  N   UNL     1       1.134   7.792  21.435  0.00  0.00    +0.000 NA
ATOM     24  N   UNL     1       0.545   8.968  21.289  0.00  0.00    +0.000 NA
ATOM     25  C   UNL     1       0.824   9.405  20.010  0.00  0.00    +0.000 A 
ATOM     26  N   UNL     1       1.598   8.532  19.333  0.00  0.00    +0.000 NA
BRANCH  25  27
ATOM     27  C   UNL     1       0.250  10.632  19.471  0.00  0.00    +0.000 A 
ATOM     28  C   UNL     1      -0.935  10.574  18.717  0.00  0.00    +0.000 A 
ATOM     29  C   UNL     1      -1.452  11.714  18.100  0.00  0.00    +0.000 A 
ATOM     30  C   UNL     1      -0.798  12.938  18.243  0.00  0.00    +0.000 A 
ATOM     31  C   UNL     1       0.358  13.020  19.018  0.00  0.00    +0.000 A 
ATOM     32  C   UNL     1       0.879  11.874  19.631  0.00  0.00    +0.000 A 
ENDBRANCH  25  27
ENDBRANCH  21  22
ENDBRANCH   4  21
TORSDOF 10
ENDMDL
MODEL 7
REMARK VINA RESULT:      -7.3      3.604      7.710
REMARK  Name = 
REMARK  12 active torsions:
REMARK  status: ('A' for Active; 'I' for Inactive)
REMARK    1  A    between atoms: C_1  and  C_2
REMARK    2  A    between atoms: C_2  and  O_3
REMARK    3  A    between atoms: C_2  and  C_4
REMARK    4  A    between atoms: C_4  and  C_5
REMARK    5  A    between atoms: C_4  and  C_6
REMARK    6  A    between atoms: C_8  and  C_9
REMARK    7  A    between atoms: C_9  and  C_10
REMARK    8  A    between atoms: C_13  and  C_14
REMARK    9  A    between atoms: C_14  and  N_15
REMARK   10  A    between atoms: C_18  and  C_19
REMARK   11  A    between atoms: C_26  and  O_27
REMARK   12  A    between atoms: C_28  and  O_29
REMARK                            x       y       z     vdW  Elec       q    Type
REMARK                         _______ _______ _______ _____ _____    ______ ____
ROOT
ATOM      1  C   UNL     1       1.627   4.542  19.978  0.00  0.00    +0.000 C 
ATOM      2  C   UNL     1       2.246   4.971  18.638  0.00  0.00    +0.000 C 
ATOM      3  O   UNL     1       2.912   3.915  17.939  0.00  0.00    +0.000 OA
ATOM      4  C   UNL     1       3.936   3.230  18.691  0.00  0.00    +0.000 C 
ATOM      5  C   UNL     1       3.244   2.578  19.892  0.00  0.00    +0.000 C 
ATOM      6  C   UNL     1       2.572   3.633  20.780  0.00  0.00    +0.000 C 
ENDROOT
BRANCH   5   7
ATOM      7  O   UNL     1       2.202   1.699  19.406  0.00  0.00    +0.000 OA
ATOM      8  H   UNL     1       1.353   2.167  19.552  0.00  0.00    +0.000 HD
ENDBRANCH   5   7
BRANCH   6   9
ATOM      9  O   UNL     1       1.808   2.964  21.791  0.00  0.00    +0.000 OA
ATOM     10  H   UNL     1       2.154   2.046  21.817  0.00  0.00    +0.000 HD
ENDBRANCH   6   9
BRANCH   1  11
ATOM     11  C   UNL     1       1.212   5.769  20.823  0.00  0.00    +0.000 C 
BRANCH  11  14
ATOM     12  C   UNL     1       1.093   8.282  19.986  0.00  0.00    +0.000 C 
ATOM     13  O   UNL     1       1.750   8.136  21.246  0.00  0.00    +0.000 OA
ATOM     14  C   UNL     1       1.870   7.028  20.354  0.00  0.00    +0.000 C 
BRANCH  12  15
ATOM     15  C   UNL     1       1.719   9.259  19.020  0.00  0.00    +0.000 C 
ATOM     16  C   UNL     1       1.938   8.535  17.681  0.00  0.00    +0.000 C 
BRANCH  15  18
ATOM     17  C   UNL     1      -0.599  10.374  18.693  0.00  0.00    +0.000 C 
ATOM     18  C   UNL     1       0.914  10.564  18.809  0.00  0.00    +0.000 C 
BRANCH  18  19
ATOM     19  O   UNL     1       1.160  11.441  19.918  0.00  0.00    +0.000 OA
ATOM     20  H   UNL     1       2.092  11.720  19.887  0.00  0.00    +0.000 HD
ENDBRANCH  18  19
ENDBRANCH  15  18
ENDBRANCH  12  15
ENDBRANCH  11  14
ENDBRANCH   1  11
BRANCH   4  21
ATOM     21  C   UNL     1       5.121   4.147  19.007  0.00  0.00    +0.000 C 
BRANCH  21  22
ATOM     22  N   UNL     1       5.898   4.499  17.846  0.00  0.00    +0.000 N 
ATOM     23  N   UNL     1       6.884   5.401  17.911  0.00  0.00    +0.000 NA
ATOM     24  N   UNL     1       7.362   5.463  16.678  0.00  0.00    +0.000 NA
ATOM     25  C   UNL     1       6.629   4.578  15.914  0.00  0.00    +0.000 A 
ATOM     26  N   UNL     1       5.694   3.934  16.641  0.00  0.00    +0.000 NA
BRANCH  25  27
ATOM     27  C   UNL     1       6.825   4.456  14.474  0.00  0.00    +0.000 A 
ATOM     28  C   UNL     1       7.730   5.310  13.821  0.00  0.00    +0.000 A 
ATOM     29  C   UNL     1       7.863   5.290  12.432  0.00  0.00    +0.000 A 
ATOM     30  C   UNL     1       7.102   4.401  11.674  0.00  0.00    +0.000 A 
ATOM     31  C   UNL     1       6.227   3.521  12.310  0.00  0.00    +0.000 A 
ATOM     32  C   UNL     1       6.090   3.547  13.703  0.00  0.00    +0.000 A 
ENDBRANCH  25  27
ENDBRANCH  21  22
ENDBRANCH   4  21
TORSDOF 10
ENDMDL
MODEL 8
REMARK VINA RESULT:      -7.2      3.493      8.001
REMARK  Name = 
REMARK  12 active torsions:
REMARK  status: ('A' for Active; 'I' for Inactive)
REMARK    1  A    between atoms: C_1  and  C_2
REMARK    2  A    between atoms: C_2  and  O_3
REMARK    3  A    between atoms: C_2  and  C_4
REMARK    4  A    between atoms: C_4  and  C_5
REMARK    5  A    between atoms: C_4  and  C_6
REMARK    6  A    between atoms: C_8  and  C_9
REMARK    7  A    between atoms: C_9  and  C_10
REMARK    8  A    between atoms: C_13  and  C_14
REMARK    9  A    between atoms: C_14  and  N_15
REMARK   10  A    between atoms: C_18  and  C_19
REMARK   11  A    between atoms: C_26  and  O_27
REMARK   12  A    between atoms: C_28  and  O_29
REMARK                            x       y       z     vdW  Elec       q    Type
REMARK                         _______ _______ _______ _____ _____    ______ ____
ROOT
ATOM      1  C   UNL     1       1.675   4.810  20.129  0.00  0.00    +0.000 C 
ATOM      2  C   UNL     1       2.328   5.276  18.818  0.00  0.00    +0.000 C 
ATOM      3  O   UNL     1       2.615   4.217  17.901  0.00  0.00    +0.000 OA
ATOM      4  C   UNL     1       3.424   3.146  18.431  0.00  0.00    +0.000 C 
ATOM      5  C   UNL     1       2.628   2.515  19.577  0.00  0.00    +0.000 C 
ATOM      6  C   UNL     1       2.344   3.542  20.681  0.00  0.00    +0.000 C 
ENDROOT
BRANCH   5   7
ATOM      7  O   UNL     1       1.350   2.071  19.065  0.00  0.00    +0.000 OA
ATOM      8  H   UNL     1       1.309   1.104  19.218  0.00  0.00    +0.000 HD
ENDBRANCH   5   7
BRANCH   6   9
ATOM      9  O   UNL     1       1.465   2.949  21.645  0.00  0.00    +0.000 OA
ATOM     10  H   UNL     1       2.030   2.355  22.185  0.00  0.00    +0.000 HD
ENDBRANCH   6   9
BRANCH   1  11
ATOM     11  C   UNL     1       1.685   5.933  21.192  0.00  0.00    +0.000 C 
BRANCH  11  14
ATOM     12  C   UNL     1       0.988   8.473  21.499  0.00  0.00    +0.000 C 
ATOM     13  O   UNL     1       1.855   8.255  20.385  0.00  0.00    +0.000 OA
ATOM     14  C   UNL     1       0.989   7.169  20.716  0.00  0.00    +0.000 C 
BRANCH  12  15
ATOM     15  C   UNL     1      -0.147   9.444  21.277  0.00  0.00    +0.000 C 
ATOM     16  C   UNL     1      -0.451  10.139  22.614  0.00  0.00    +0.000 C 
BRANCH  15  18
ATOM     17  C   UNL     1      -1.099  11.360  19.813  0.00  0.00    +0.000 C 
ATOM     18  C   UNL     1       0.108  10.490  20.164  0.00  0.00    +0.000 C 
BRANCH  18  19
ATOM     19  O   UNL     1       1.166  11.363  20.586  0.00  0.00    +0.000 OA
ATOM     20  H   UNL     1       1.527  11.810  19.800  0.00  0.00    +0.000 HD
ENDBRANCH  18  19
ENDBRANCH  15  18
ENDBRANCH  12  15
ENDBRANCH  11  14
ENDBRANCH   1  11
BRANCH   4  21
ATOM     21  C   UNL     1       4.843   3.616  18.769  0.00  0.00    +0.000 C 
BRANCH  21  22
ATOM     22  N   UNL     1       5.536   4.193  17.646  0.00  0.00    +0.000 N 
ATOM     23  N   UNL     1       6.150   5.378  17.738  0.00  0.00    +0.000 NA
ATOM     24  N   UNL     1       6.667   5.581  16.537  0.00  0.00    +0.000 NA
ATOM     25  C   UNL     1       6.335   4.488  15.762  0.00  0.00    +0.000 A 
ATOM     26  N   UNL     1       5.623   3.574  16.454  0.00  0.00    +0.000 NA
BRANCH  25  27
ATOM     27  C   UNL     1       6.665   4.418  14.344  0.00  0.00    +0.000 A 
ATOM     28  C   UNL     1       7.634   5.286  13.812  0.00  0.00    +0.000 A 
ATOM     29  C   UNL     1       7.897   5.317  12.442  0.00  0.00    +0.000 A 
ATOM     30  C   UNL     1       7.204   4.465  11.582  0.00  0.00    +0.000 A 
ATOM     31  C   UNL     1       6.267   3.571  12.099  0.00  0.00    +0.000 A 
ATOM     32  C   UNL     1       6.000   3.546  13.472  0.00  0.00    +0.000 A 
ENDBRANCH  25  27
ENDBRANCH  21  22
ENDBRANCH   4  21
TORSDOF 10
ENDMDL
MODEL 9
REMARK VINA RESULT:      -7.2      1.193      1.849
REMARK  Name = 
REMARK  12 active torsions:
REMARK  status: ('A' for Active; 'I' for Inactive)
REMARK    1  A    between atoms: C_1  and  C_2
REMARK    2  A    between atoms: C_2  and  O_3
REMARK    3  A    between atoms: C_2  and  C_4
REMARK    4  A    between atoms: C_4  and  C_5
REMARK    5  A    between atoms: C_4  and  C_6
REMARK    6  A    between atoms: C_8  and  C_9
REMARK    7  A    between atoms: C_9  and  C_10
REMARK    8  A    between atoms: C_13  and  C_14
REMARK    9  A    between atoms: C_14  and  N_15
REMARK   10  A    between atoms: C_18  and  C_19
REMARK   11  A    between atoms: C_26  and  O_27
REMARK   12  A    between atoms: C_28  and  O_29
REMARK                            x       y       z     vdW  Elec       q    Type
REMARK                         _______ _______ _______ _____ _____    ______ ____
ROOT
ATOM      1  C   UNL     1       2.648   2.443  18.948  0.00  0.00    +0.000 C 
ATOM      2  C   UNL     1       3.596   2.825  20.096  0.00  0.00    +0.000 C 
ATOM      3  O   UNL     1       2.953   3.489  21.187  0.00  0.00    +0.000 OA
ATOM      4  C   UNL     1       2.203   4.670  20.834  0.00  0.00    +0.000 C 
ATOM      5  C   UNL     1       1.086   4.220  19.889  0.00  0.00    +0.000 C 
ATOM      6  C   UNL     1       1.662   3.576  18.621  0.00  0.00    +0.000 C 
ENDROOT
BRANCH   5   7
ATOM      7  O   UNL     1       0.290   3.213  20.558  0.00  0.00    +0.000 OA
ATOM      8  H   UNL     1      -0.624   3.563  20.598  0.00  0.00    +0.000 HD
ENDBRANCH   5   7
BRANCH   6   9
ATOM      9  O   UNL     1       0.583   3.030  17.852  0.00  0.00    +0.000 OA
ATOM     10  H   UNL     1      -0.067   2.700  18.509  0.00  0.00    +0.000 HD
ENDBRANCH   6   9
BRANCH   1  11
ATOM     11  C   UNL     1       3.435   2.030  17.683  0.00  0.00    +0.000 C 
BRANCH  11  14
ATOM     12  C   UNL     1       4.838   3.695  16.170  0.00  0.00    +0.000 C 
ATOM     13  O   UNL     1       4.345   4.298  17.368  0.00  0.00    +0.000 OA
ATOM     14  C   UNL     1       4.629   2.901  17.450  0.00  0.00    +0.000 C 
BRANCH  12  15
ATOM     15  C   UNL     1       6.248   4.063  15.774  0.00  0.00    +0.000 C 
ATOM     16  C   UNL     1       6.311   4.136  14.240  0.00  0.00    +0.000 C 
BRANCH  15  18
ATOM     17  C   UNL     1       7.469   5.203  17.757  0.00  0.00    +0.000 C 
ATOM     18  C   UNL     1       6.775   5.375  16.405  0.00  0.00    +0.000 C 
BRANCH  18  19
ATOM     19  O   UNL     1       7.717   5.973  15.503  0.00  0.00    +0.000 OA
ATOM     20  H   UNL     1       7.909   5.335  14.793  0.00  0.00    +0.000 HD
ENDBRANCH  18  19
ENDBRANCH  15  18
ENDBRANCH  12  15
ENDBRANCH  11  14
ENDBRANCH   1  11
BRANCH   4  21
ATOM     21  C   UNL     1       3.114   5.791  20.321  0.00  0.00    +0.000 C 
BRANCH  21  22
ATOM     22  N   UNL     1       2.396   6.983  19.945  0.00  0.00    +0.000 N 
ATOM     23  N   UNL     1       2.462   7.476  18.703  0.00  0.00    +0.000 NA
ATOM     24  N   UNL     1       1.692   8.552  18.728  0.00  0.00    +0.000 NA
ATOM     25  C   UNL     1       1.187   8.658  20.009  0.00  0.00    +0.000 A 
ATOM     26  N   UNL     1       1.610   7.656  20.806  0.00  0.00    +0.000 NA
BRANCH  25  27
ATOM     27  C   UNL     1       0.367   9.790  20.423  0.00  0.00    +0.000 A 
ATOM     28  C   UNL     1       0.343  10.173  21.776  0.00  0.00    +0.000 A 
ATOM     29  C   UNL     1      -0.510  11.183  22.222  0.00  0.00    +0.000 A 
ATOM     30  C   UNL     1      -1.343  11.839  21.316  0.00  0.00    +0.000 A 
ATOM     31  C   UNL     1      -1.304  11.497  19.965  0.00  0.00    +0.000 A 
ATOM     32  C   UNL     1      -0.452  10.479  19.520  0.00  0.00    +0.000 A 
ENDBRANCH  25  27
ENDBRANCH  21  22
ENDBRANCH   4  21
TORSDOF 10
ENDMDL
