MODEL 1
REMARK VINA RESULT:      -7.7      0.000      0.000
REMARK  Name = 
REMARK  12 active torsions:
REMARK  status: ('A' for Active; 'I' for Inactive)
REMARK    1  A    between atoms: C_1  and  N_2
REMARK    2  A    between atoms: C_3  and  O_5
REMARK    3  A    between atoms: O_5  and  C_6
REMARK    4  A    between atoms: C_6  and  C_7
REMARK    5  A    between atoms: C_8  and  C_9
REMARK    6  A    between atoms: C_9  and  O_10
REMARK    7  A    between atoms: O_10  and  C_11
REMARK    8  A    between atoms: N_13  and  C_14
REMARK    9  A    between atoms: C_15  and  C_16
REMARK   10  A    between atoms: N_17  and  C_18
REMARK   11  A    between atoms: C_21  and  C_22
REMARK   12  A    between atoms: C_25  and  C_26
REMARK                            x       y       z     vdW  Elec       q    Type
REMARK                         _______ _______ _______ _____ _____    ______ ____
ROOT
ATOM      1  C   UNL     1       3.527   3.873  17.508  0.00  0.00    +0.000 A 
ATOM      2  C   UNL     1       4.713   4.613  17.223  0.00  0.00    +0.000 A 
ATOM      3  C   UNL     1       4.448   5.948  17.497  0.00  0.00    +0.000 A 
ATOM      4  C   UNL     1       5.424   7.085  17.464  0.00  0.00    +0.000 C 
ATOM      5  N   UNL     1       3.128   6.060  17.957  0.00  0.00    +0.000 N 
ATOM      6  C   UNL     1       2.555   4.787  17.907  0.00  0.00    +0.000 A 
ATOM      7  C   UNL     1       1.117   4.487  18.184  0.00  0.00    +0.000 C 
ENDROOT
BRANCH   5   8
ATOM      8  C   UNL     1       2.507   7.260  18.442  0.00  0.00    +0.000 A 
ATOM      9  C   UNL     1       2.192   7.406  19.796  0.00  0.00    +0.000 A 
ATOM     10  C   UNL     1       1.490   8.524  20.252  0.00  0.00    +0.000 A 
ATOM     11  C   UNL     1       1.127   9.542  19.367  0.00  0.00    +0.000 A 
ATOM     12  C   UNL     1       0.354  10.734  19.844  0.00  0.00    +0.000 C 
ATOM     13  C   UNL     1       1.491   9.427  18.021  0.00  0.00    +0.000 A 
ATOM     14  C   UNL     1       2.159   8.288  17.556  0.00  0.00    +0.000 A 
ENDBRANCH   5   8
BRANCH   1  15
ATOM     15  C   UNL     1       3.372   2.380  17.407  0.00  0.00    +0.000 C 
BRANCH  15  16
ATOM     16  O   UNL     1       4.122   1.710  18.430  0.00  0.00    +0.000 OA
BRANCH  16  19
ATOM     17  C   UNL     1       2.465   2.627  21.460  0.00  0.00    +0.000 C 
ATOM     18  N   UNL     1       2.804   2.196  20.133  0.00  0.00    +0.000 N 
ATOM     19  C   UNL     1       4.077   2.274  19.656  0.00  0.00    +0.000 C 
ATOM     20  O   UNL     1       5.015   2.773  20.258  0.00  0.00    +0.000 OA
ATOM     21  H   UNL     1       2.127   1.737  19.541  0.00  0.00    +0.000 HD
ENDBRANCH  16  19
ENDBRANCH  15  16
ENDBRANCH   1  15
BRANCH   2  22
ATOM     22  C   UNL     1       6.021   4.041  16.744  0.00  0.00    +0.000 C 
BRANCH  22  23
ATOM     23  O   UNL     1       5.942   3.499  15.419  0.00  0.00    +0.000 OA
BRANCH  23  24
ATOM     24  C   UNL     1       6.621   4.178  14.470  0.00  0.00    +0.000 C 
ATOM     25  O   UNL     1       7.294   5.183  14.644  0.00  0.00    +0.000 OA
ATOM     26  N   UNL     1       6.416   3.577  13.265  0.00  0.00    +0.000 N 
ATOM     27  C   UNL     1       7.036   4.016  12.044  0.00  0.00    +0.000 C 
ATOM     28  H   UNL     1       5.791   2.782  13.271  0.00  0.00    +0.000 HD
ENDBRANCH  23  24
ENDBRANCH  22  23
ENDBRANCH   2  22
TORSDOF 7
ENDMDL
MODEL 2
REMARK VINA RESULT:      -7.5      0.950      1.161
REMARK  Name = 
REMARK  12 active torsions:
REMARK  status: ('A' for Active; 'I' for Inactive)
REMARK    1  A    between atoms: C_1  and  N_2
REMARK    2  A    between atoms: C_3  and  O_5
REMARK    3  A    between atoms: O_5  and  C_6
REMARK    4  A    between atoms: C_6  and  C_7
REMARK    5  A    between atoms: C_8  and  C_9
REMARK    6  A    between atoms: C_9  and  O_10
REMARK    7  A    between atoms: O_10  and  C_11
REMARK    8  A    between atoms: N_13  and  C_14
REMARK    9  A    between atoms: C_15  and  C_16
REMARK   10  A    between atoms: N_17  and  C_18
REMARK   11  A    between atoms: C_21  and  C_22
REMARK   12  A    between atoms: C_25  and  C_26
REMARK                            x       y       z     vdW  Elec       q    Type
REMARK                         _______ _______ _______ _____ _____    ______ ____
ROOT
ATOM      1  C   UNL     1       3.911   4.162  17.521  0.00  0.00    +0.000 A 
ATOM      2  C   UNL     1       5.100   4.945  17.442  0.00  0.00    +0.000 A 
ATOM      3  C   UNL     1       4.753   6.261  17.721  0.00  0.00    +0.000 A 
ATOM      4  C   UNL     1       5.685   7.424  17.873  0.00  0.00    +0.000 C 
ATOM      5  N   UNL     1       3.377   6.318  17.984  0.00  0.00    +0.000 N 
ATOM      6  C   UNL     1       2.860   5.032  17.804  0.00  0.00    +0.000 A 
ATOM      7  C   UNL     1       1.408   4.682  17.854  0.00  0.00    +0.000 C 
ENDROOT
BRANCH   5   8
ATOM      8  C   UNL     1       2.653   7.480  18.413  0.00  0.00    +0.000 A 
ATOM      9  C   UNL     1       2.160   7.575  19.718  0.00  0.00    +0.000 A 
ATOM     10  C   UNL     1       1.362   8.653  20.107  0.00  0.00    +0.000 A 
ATOM     11  C   UNL     1       1.076   9.683  19.207  0.00  0.00    +0.000 A 
ATOM     12  C   UNL     1       0.201  10.831  19.609  0.00  0.00    +0.000 C 
ATOM     13  C   UNL     1       1.614   9.620  17.917  0.00  0.00    +0.000 A 
ATOM     14  C   UNL     1       2.380   8.521  17.515  0.00  0.00    +0.000 A 
ENDBRANCH   5   8
BRANCH   1  15
ATOM     15  C   UNL     1       3.821   2.670  17.346  0.00  0.00    +0.000 C 
BRANCH  15  16
ATOM     16  O   UNL     1       3.970   1.991  18.600  0.00  0.00    +0.000 OA
BRANCH  16  19
ATOM     17  C   UNL     1       2.295   2.849  21.638  0.00  0.00    +0.000 C 
ATOM     18  N   UNL     1       3.253   2.591  20.600  0.00  0.00    +0.000 N 
ATOM     19  C   UNL     1       2.895   2.021  19.417  0.00  0.00    +0.000 C 
ATOM     20  O   UNL     1       1.775   1.614  19.153  0.00  0.00    +0.000 OA
ATOM     21  H   UNL     1       4.209   2.906  20.679  0.00  0.00    +0.000 HD
ENDBRANCH  16  19
ENDBRANCH  15  16
ENDBRANCH   1  15
BRANCH   2  22
ATOM     22  C   UNL     1       6.483   4.429  17.143  0.00  0.00    +0.000 C 
BRANCH  22  23
ATOM     23  O   UNL     1       7.149   5.180  16.119  0.00  0.00    +0.000 OA
BRANCH  23  24
ATOM     24  C   UNL     1       7.003   4.710  14.862  0.00  0.00    +0.000 C 
ATOM     25  O   UNL     1       6.328   3.749  14.525  0.00  0.00    +0.000 OA
ATOM     26  N   UNL     1       7.758   5.465  14.017  0.00  0.00    +0.000 N 
ATOM     27  C   UNL     1       7.794   5.267  12.593  0.00  0.00    +0.000 C 
ATOM     28  H   UNL     1       8.306   6.196  14.452  0.00  0.00    +0.000 HD
ENDBRANCH  23  24
ENDBRANCH  22  23
ENDBRANCH   2  22
TORSDOF 7
ENDMDL
MODEL 3
REMARK VINA RESULT:      -7.5      1.160      4.774
REMARK  Name = 
REMARK  12 active torsions:
REMARK  status: ('A' for Active; 'I' for Inactive)
REMARK    1  A    between atoms: C_1  and  N_2
REMARK    2  A    between atoms: C_3  and  O_5
REMARK    3  A    between atoms: O_5  and  C_6
REMARK    4  A    between atoms: C_6  and  C_7
REMARK    5  A    between atoms: C_8  and  C_9
REMARK    6  A    between atoms: C_9  and  O_10
REMARK    7  A    between atoms: O_10  and  C_11
REMARK    8  A    between atoms: N_13  and  C_14
REMARK    9  A    between atoms: C_15  and  C_16
REMARK   10  A    between atoms: N_17  and  C_18
REMARK   11  A    between atoms: C_21  and  C_22
REMARK   12  A    between atoms: C_25  and  C_26
REMARK                            x       y       z     vdW  Elec       q    Type
REMARK                         _______ _______ _______ _____ _____    ______ ____
ROOT
ATOM      1  C   UNL     1       4.924   4.921  18.060  0.00  0.00    +0.000 A 
ATOM      2  C   UNL     1       4.215   4.265  19.109  0.00  0.00    +0.000 A 
ATOM      3  C   UNL     1       3.248   5.147  19.574  0.00  0.00    +0.000 A 
ATOM      4  C   UNL     1       2.183   4.861  20.588  0.00  0.00    +0.000 C 
ATOM      5  N   UNL     1       3.328   6.335  18.833  0.00  0.00    +0.000 N 
ATOM      6  C   UNL     1       4.398   6.205  17.943  0.00  0.00    +0.000 A 
ATOM      7  C   UNL     1       4.912   7.297  17.062  0.00  0.00    +0.000 C 
ENDROOT
BRANCH   5   8
ATOM      8  C   UNL     1       2.434   7.452  18.940  0.00  0.00    +0.000 A 
ATOM      9  C   UNL     1       2.073   8.191  17.809  0.00  0.00    +0.000 A 
ATOM     10  C   UNL     1       1.292   9.343  17.924  0.00  0.00    +0.000 A 
ATOM     11  C   UNL     1       0.819   9.756  19.172  0.00  0.00    +0.000 A 
ATOM     12  C   UNL     1       0.000  11.003  19.308  0.00  0.00    +0.000 C 
ATOM     13  C   UNL     1       1.130   8.987  20.299  0.00  0.00    +0.000 A 
ATOM     14  C   UNL     1       1.946   7.856  20.190  0.00  0.00    +0.000 A 
ENDBRANCH   5   8
BRANCH   1  15
ATOM     15  C   UNL     1       6.026   4.321  17.228  0.00  0.00    +0.000 C 
BRANCH  15  16
ATOM     16  O   UNL     1       5.569   4.020  15.902  0.00  0.00    +0.000 OA
BRANCH  16  19
ATOM     17  C   UNL     1       6.800   3.795  12.555  0.00  0.00    +0.000 C 
ATOM     18  N   UNL     1       6.134   3.593  13.811  0.00  0.00    +0.000 N 
ATOM     19  C   UNL     1       6.406   4.364  14.900  0.00  0.00    +0.000 C 
ATOM     20  O   UNL     1       7.269   5.227  14.943  0.00  0.00    +0.000 OA
ATOM     21  H   UNL     1       5.378   2.931  13.903  0.00  0.00    +0.000 HD
ENDBRANCH  16  19
ENDBRANCH  15  16
ENDBRANCH   1  15
BRANCH   2  22
ATOM     22  C   UNL     1       4.452   2.860  19.597  0.00  0.00    +0.000 C 
BRANCH  22  23
ATOM     23  O   UNL     1       3.972   1.863  18.684  0.00  0.00    +0.000 OA
BRANCH  23  24
ATOM     24  C   UNL     1       2.754   2.099  18.153  0.00  0.00    +0.000 C 
ATOM     25  O   UNL     1       2.524   2.482  17.016  0.00  0.00    +0.000 OA
ATOM     26  N   UNL     1       1.806   1.867  19.103  0.00  0.00    +0.000 N 
ATOM     27  C   UNL     1       0.393   1.974  18.856  0.00  0.00    +0.000 C 
ATOM     28  H   UNL     1       2.153   1.604  20.015  0.00  0.00    +0.000 HD
ENDBRANCH  23  24
ENDBRANCH  22  23
ENDBRANCH   2  22
TORSDOF 7
ENDMDL
MODEL 4
REMARK VINA RESULT:      -7.5      1.616      4.326
REMARK  Name = 
REMARK  12 active torsions:
REMARK  status: ('A' for Active; 'I' for Inactive)
REMARK    1  A    between atoms: C_1  and  N_2
REMARK    2  A    between atoms: C_3  and  O_5
REMARK    3  A    between atoms: O_5  and  C_6
REMARK    4  A    between atoms: C_6  and  C_7
REMARK    5  A    between atoms: C_8  and  C_9
REMARK    6  A    between atoms: C_9  and  O_10
REMARK    7  A    between atoms: O_10  and  C_11
REMARK    8  A    between atoms: N_13  and  C_14
REMARK    9  A    between atoms: C_15  and  C_16
REMARK   10  A    between atoms: N_17  and  C_18
REMARK   11  A    between atoms: C_21  and  C_22
REMARK   12  A    between atoms: C_25  and  C_26
REMARK                            x       y       z     vdW  Elec       q    Type
REMARK                         _______ _______ _______ _____ _____    ______ ____
ROOT
ATOM      1  C   UNL     1       4.055   4.857  16.991  0.00  0.00    +0.000 A 
ATOM      2  C   UNL     1       3.045   4.093  17.646  0.00  0.00    +0.000 A 
ATOM      3  C   UNL     1       2.270   4.974  18.388  0.00  0.00    +0.000 A 
ATOM      4  C   UNL     1       1.019   4.652  19.147  0.00  0.00    +0.000 C 
ATOM      5  N   UNL     1       2.764   6.273  18.205  0.00  0.00    +0.000 N 
ATOM      6  C   UNL     1       3.895   6.182  17.389  0.00  0.00    +0.000 A 
ATOM      7  C   UNL     1       4.802   7.323  17.058  0.00  0.00    +0.000 C 
ENDROOT
BRANCH   5   8
ATOM      8  C   UNL     1       2.175   7.476  18.721  0.00  0.00    +0.000 A 
ATOM      9  C   UNL     1       1.961   7.635  20.094  0.00  0.00    +0.000 A 
ATOM     10  C   UNL     1       1.289   8.755  20.589  0.00  0.00    +0.000 A 
ATOM     11  C   UNL     1       0.855   9.761  19.723  0.00  0.00    +0.000 A 
ATOM     12  C   UNL     1       0.113  10.955  20.244  0.00  0.00    +0.000 C 
ATOM     13  C   UNL     1       1.117   9.632  18.355  0.00  0.00    +0.000 A 
ATOM     14  C   UNL     1       1.754   8.492  17.853  0.00  0.00    +0.000 A 
ENDBRANCH   5   8
BRANCH   1  15
ATOM     15  C   UNL     1       5.089   4.323  16.037  0.00  0.00    +0.000 C 
BRANCH  15  16
ATOM     16  O   UNL     1       6.225   3.802  16.741  0.00  0.00    +0.000 OA
BRANCH  16  19
ATOM     17  C   UNL     1       7.942   5.484  19.386  0.00  0.00    +0.000 C 
ATOM     18  N   UNL     1       7.057   4.684  18.586  0.00  0.00    +0.000 N 
ATOM     19  C   UNL     1       7.088   4.721  17.226  0.00  0.00    +0.000 C 
ATOM     20  O   UNL     1       7.793   5.469  16.567  0.00  0.00    +0.000 OA
ATOM     21  H   UNL     1       6.444   4.001  19.006  0.00  0.00    +0.000 HD
ENDBRANCH  16  19
ENDBRANCH  15  16
ENDBRANCH   1  15
BRANCH   2  22
ATOM     22  C   UNL     1       2.840   2.606  17.524  0.00  0.00    +0.000 C 
BRANCH  22  23
ATOM     23  O   UNL     1       3.812   1.847  18.256  0.00  0.00    +0.000 OA
BRANCH  23  24
ATOM     24  C   UNL     1       4.034   2.252  19.524  0.00  0.00    +0.000 C 
ATOM     25  O   UNL     1       5.092   2.661  19.977  0.00  0.00    +0.000 OA
ATOM     26  N   UNL     1       2.885   2.106  20.241  0.00  0.00    +0.000 N 
ATOM     27  C   UNL     1       2.756   2.492  21.620  0.00  0.00    +0.000 C 
ATOM     28  H   UNL     1       2.102   1.705  19.741  0.00  0.00    +0.000 HD
ENDBRANCH  23  24
ENDBRANCH  22  23
ENDBRANCH   2  22
TORSDOF 7
ENDMDL
MODEL 5
REMARK VINA RESULT:      -7.4      1.265      1.599
REMARK  Name = 
REMARK  12 active torsions:
REMARK  status: ('A' for Active; 'I' for Inactive)
REMARK    1  A    between atoms: C_1  and  N_2
REMARK    2  A    between atoms: C_3  and  O_5
REMARK    3  A    between atoms: O_5  and  C_6
REMARK    4  A    between atoms: C_6  and  C_7
REMARK    5  A    between atoms: C_8  and  C_9
REMARK    6  A    between atoms: C_9  and  O_10
REMARK    7  A    between atoms: O_10  and  C_11
REMARK    8  A    between atoms: N_13  and  C_14
REMARK    9  A    between atoms: C_15  and  C_16
REMARK   10  A    between atoms: N_17  and  C_18
REMARK   11  A    between atoms: C_21  and  C_22
REMARK   12  A    between atoms: C_25  and  C_26
REMARK                            x       y       z     vdW  Elec       q    Type
REMARK                         _______ _______ _______ _____ _____    ______ ____
ROOT
ATOM      1  C   UNL     1       3.967   4.427  19.322  0.00  0.00    +0.000 A 
ATOM      2  C   UNL     1       4.739   5.046  18.296  0.00  0.00    +0.000 A 
ATOM      3  C   UNL     1       4.172   6.287  18.037  0.00  0.00    +0.000 A 
ATOM      4  C   UNL     1       4.706   7.348  17.124  0.00  0.00    +0.000 C 
ATOM      5  N   UNL     1       3.071   6.464  18.886  0.00  0.00    +0.000 N 
ATOM      6  C   UNL     1       2.921   5.292  19.632  0.00  0.00    +0.000 A 
ATOM      7  C   UNL     1       1.784   5.012  20.561  0.00  0.00    +0.000 C 
ENDROOT
BRANCH   5   8
ATOM      8  C   UNL     1       2.281   7.658  18.998  0.00  0.00    +0.000 A 
ATOM      9  C   UNL     1       1.861   8.123  20.248  0.00  0.00    +0.000 A 
ATOM     10  C   UNL     1       1.003   9.220  20.353  0.00  0.00    +0.000 A 
ATOM     11  C   UNL     1       0.582   9.902  19.209  0.00  0.00    +0.000 A 
ATOM     12  C   UNL     1      -0.357  11.065  19.312  0.00  0.00    +0.000 C 
ATOM     13  C   UNL     1       1.046   9.475  17.961  0.00  0.00    +0.000 A 
ATOM     14  C   UNL     1       1.873   8.352  17.851  0.00  0.00    +0.000 A 
ENDBRANCH   5   8
BRANCH   1  15
ATOM     15  C   UNL     1       4.249   3.093  19.958  0.00  0.00    +0.000 C 
BRANCH  15  16
ATOM     16  O   UNL     1       4.018   2.020  19.034  0.00  0.00    +0.000 OA
BRANCH  16  19
ATOM     17  C   UNL     1       0.452   1.938  18.817  0.00  0.00    +0.000 C 
ATOM     18  N   UNL     1       1.825   1.851  19.227  0.00  0.00    +0.000 N 
ATOM     19  C   UNL     1       2.850   2.068  18.358  0.00  0.00    +0.000 C 
ATOM     20  O   UNL     1       2.715   2.276  17.162  0.00  0.00    +0.000 OA
ATOM     21  H   UNL     1       2.075   1.714  20.196  0.00  0.00    +0.000 HD
ENDBRANCH  16  19
ENDBRANCH  15  16
ENDBRANCH   1  15
BRANCH   2  22
ATOM     22  C   UNL     1       5.965   4.469  17.638  0.00  0.00    +0.000 C 
BRANCH  22  23
ATOM     23  O   UNL     1       5.680   3.837  16.382  0.00  0.00    +0.000 OA
BRANCH  23  24
ATOM     24  C   UNL     1       6.453   4.226  15.346  0.00  0.00    +0.000 C 
ATOM     25  O   UNL     1       7.399   4.996  15.400  0.00  0.00    +0.000 OA
ATOM     26  N   UNL     1       5.990   3.640  14.207  0.00  0.00    +0.000 N 
ATOM     27  C   UNL     1       6.616   3.801  12.922  0.00  0.00    +0.000 C 
ATOM     28  H   UNL     1       5.163   3.067  14.311  0.00  0.00    +0.000 HD
ENDBRANCH  23  24
ENDBRANCH  22  23
ENDBRANCH   2  22
TORSDOF 7
ENDMDL
MODEL 6
REMARK VINA RESULT:      -7.4      0.301      5.053
REMARK  Name = 
REMARK  12 active torsions:
REMARK  status: ('A' for Active; 'I' for Inactive)
REMARK    1  A    between atoms: C_1  and  N_2
REMARK    2  A    between atoms: C_3  and  O_5
REMARK    3  A    between atoms: O_5  and  C_6
REMARK    4  A    between atoms: C_6  and  C_7
REMARK    5  A    between atoms: C_8  and  C_9
REMARK    6  A    between atoms: C_9  and  O_10
REMARK    7  A    between atoms: O_10  and  C_11
REMARK    8  A    between atoms: N_13  and  C_14
REMARK    9  A    between atoms: C_15  and  C_16
REMARK   10  A    between atoms: N_17  and  C_18
REMARK   11  A    between atoms: C_21  and  C_22
REMARK   12  A    between atoms: C_25  and  C_26
REMARK                            x       y       z     vdW  Elec       q    Type
REMARK                         _______ _______ _______ _____ _____    ______ ____
ROOT
ATOM      1  C   UNL     1       4.513   4.607  17.160  0.00  0.00    +0.000 A 
ATOM      2  C   UNL     1       3.380   3.861  17.598  0.00  0.00    +0.000 A 
ATOM      3  C   UNL     1       2.492   4.755  18.182  0.00  0.00    +0.000 A 
ATOM      4  C   UNL     1       1.111   4.456  18.680  0.00  0.00    +0.000 C 
ATOM      5  N   UNL     1       3.038   6.044  18.110  0.00  0.00    +0.000 N 
ATOM      6  C   UNL     1       4.304   5.933  17.530  0.00  0.00    +0.000 A 
ATOM      7  C   UNL     1       5.281   7.057  17.392  0.00  0.00    +0.000 C 
ENDROOT
BRANCH   5   8
ATOM      8  C   UNL     1       2.383   7.256  18.512  0.00  0.00    +0.000 A 
ATOM      9  C   UNL     1       2.068   8.244  17.573  0.00  0.00    +0.000 A 
ATOM     10  C   UNL     1       1.531   9.469  17.975  0.00  0.00    +0.000 A 
ATOM     11  C   UNL     1       1.257   9.715  19.322  0.00  0.00    +0.000 A 
ATOM     12  C   UNL     1       0.702  11.035  19.764  0.00  0.00    +0.000 C 
ATOM     13  C   UNL     1       1.518   8.707  20.258  0.00  0.00    +0.000 A 
ATOM     14  C   UNL     1       2.093   7.495  19.861  0.00  0.00    +0.000 A 
ENDBRANCH   5   8
BRANCH   1  15
ATOM     15  C   UNL     1       5.703   4.056  16.421  0.00  0.00    +0.000 C 
BRANCH  15  16
ATOM     16  O   UNL     1       5.399   3.842  15.036  0.00  0.00    +0.000 OA
BRANCH  16  19
ATOM     17  C   UNL     1       7.104   3.779  11.896  0.00  0.00    +0.000 C 
ATOM     18  N   UNL     1       6.297   3.495  13.049  0.00  0.00    +0.000 N 
ATOM     19  C   UNL     1       6.323   4.286  14.156  0.00  0.00    +0.000 C 
ATOM     20  O   UNL     1       7.066   5.243  14.310  0.00  0.00    +0.000 OA
ATOM     21  H   UNL     1       5.617   2.749  13.042  0.00  0.00    +0.000 HD
ENDBRANCH  16  19
ENDBRANCH  15  16
ENDBRANCH   1  15
BRANCH   2  22
ATOM     22  C   UNL     1       3.173   2.379  17.426  0.00  0.00    +0.000 C 
BRANCH  22  23
ATOM     23  O   UNL     1       3.876   1.600  18.404  0.00  0.00    +0.000 OA
BRANCH  23  24
ATOM     24  C   UNL     1       3.999   2.169  19.622  0.00  0.00    +0.000 C 
ATOM     25  O   UNL     1       5.013   2.668  20.087  0.00  0.00    +0.000 OA
ATOM     26  N   UNL     1       2.808   2.075  20.276  0.00  0.00    +0.000 N 
ATOM     27  C   UNL     1       2.575   2.627  21.583  0.00  0.00    +0.000 C 
ATOM     28  H   UNL     1       2.072   1.587  19.782  0.00  0.00    +0.000 HD
ENDBRANCH  23  24
ENDBRANCH  22  23
ENDBRANCH   2  22
TORSDOF 7
ENDMDL
MODEL 7
REMARK VINA RESULT:      -7.3      2.236      3.000
REMARK  Name = 
REMARK  12 active torsions:
REMARK  status: ('A' for Active; 'I' for Inactive)
REMARK    1  A    between atoms: C_1  and  N_2
REMARK    2  A    between atoms: C_3  and  O_5
REMARK    3  A    between atoms: O_5  and  C_6
REMARK    4  A    between atoms: C_6  and  C_7
REMARK    5  A    between atoms: C_8  and  C_9
REMARK    6  A    between atoms: C_9  and  O_10
REMARK    7  A    between atoms: O_10  and  C_11
REMARK    8  A    between atoms: N_13  and  C_14
REMARK    9  A    between atoms: C_15  and  C_16
REMARK   10  A    between atoms: N_17  and  C_18
REMARK   11  A    between atoms: C_21  and  C_22
REMARK   12  A    between atoms: C_25  and  C_26
REMARK                            x       y       z     vdW  Elec       q    Type
REMARK                         _______ _______ _______ _____ _____    ______ ____
ROOT
ATOM      1  C   UNL     1       3.892   4.433  19.180  0.00  0.00    +0.000 A 
ATOM      2  C   UNL     1       4.617   5.094  18.145  0.00  0.00    +0.000 A 
ATOM      3  C   UNL     1       4.020   6.332  17.943  0.00  0.00    +0.000 A 
ATOM      4  C   UNL     1       4.503   7.427  17.042  0.00  0.00    +0.000 C 
ATOM      5  N   UNL     1       2.946   6.465  18.834  0.00  0.00    +0.000 N 
ATOM      6  C   UNL     1       2.843   5.270  19.551  0.00  0.00    +0.000 A 
ATOM      7  C   UNL     1       1.744   4.942  20.511  0.00  0.00    +0.000 C 
ENDROOT
BRANCH   5   8
ATOM      8  C   UNL     1       2.141   7.641  19.008  0.00  0.00    +0.000 A 
ATOM      9  C   UNL     1       1.719   8.388  17.905  0.00  0.00    +0.000 A 
ATOM     10  C   UNL     1       1.030   9.591  18.075  0.00  0.00    +0.000 A 
ATOM     11  C   UNL     1       0.710  10.049  19.355  0.00  0.00    +0.000 A 
ATOM     12  C   UNL     1      -0.009  11.349  19.548  0.00  0.00    +0.000 C 
ATOM     13  C   UNL     1       1.081   9.275  20.460  0.00  0.00    +0.000 A 
ATOM     14  C   UNL     1       1.807   8.090  20.292  0.00  0.00    +0.000 A 
ENDBRANCH   5   8
BRANCH   1  15
ATOM     15  C   UNL     1       4.220   3.086  19.766  0.00  0.00    +0.000 C 
BRANCH  15  16
ATOM     16  O   UNL     1       3.963   2.035  18.825  0.00  0.00    +0.000 OA
BRANCH  16  19
ATOM     17  C   UNL     1       0.391   1.915  18.829  0.00  0.00    +0.000 C 
ATOM     18  N   UNL     1       1.788   1.844  19.154  0.00  0.00    +0.000 N 
ATOM     19  C   UNL     1       2.755   2.068  18.222  0.00  0.00    +0.000 C 
ATOM     20  O   UNL     1       2.544   2.268  17.036  0.00  0.00    +0.000 OA
ATOM     21  H   UNL     1       2.099   1.715  20.106  0.00  0.00    +0.000 HD
ENDBRANCH  16  19
ENDBRANCH  15  16
ENDBRANCH   1  15
BRANCH   2  22
ATOM     22  C   UNL     1       5.829   4.558  17.429  0.00  0.00    +0.000 C 
BRANCH  22  23
ATOM     23  O   UNL     1       6.949   4.356  18.301  0.00  0.00    +0.000 OA
BRANCH  23  24
ATOM     24  C   UNL     1       7.400   5.460  18.935  0.00  0.00    +0.000 C 
ATOM     25  O   UNL     1       7.522   5.600  20.142  0.00  0.00    +0.000 OA
ATOM     26  N   UNL     1       7.675   6.419  18.008  0.00  0.00    +0.000 N 
ATOM     27  C   UNL     1       8.223   7.707  18.339  0.00  0.00    +0.000 C 
ATOM     28  H   UNL     1       7.474   6.174  17.048  0.00  0.00    +0.000 HD
ENDBRANCH  23  24
ENDBRANCH  22  23
ENDBRANCH   2  22
TORSDOF 7
ENDMDL
MODEL 8
REMARK VINA RESULT:      -7.3      0.673      5.082
REMARK  Name = 
REMARK  12 active torsions:
REMARK  status: ('A' for Active; 'I' for Inactive)
REMARK    1  A    between atoms: C_1  and  N_2
REMARK    2  A    between atoms: C_3  and  O_5
REMARK    3  A    between atoms: O_5  and  C_6
REMARK    4  A    between atoms: C_6  and  C_7
REMARK    5  A    between atoms: C_8  and  C_9
REMARK    6  A    between atoms: C_9  and  O_10
REMARK    7  A    between atoms: O_10  and  C_11
REMARK    8  A    between atoms: N_13  and  C_14
REMARK    9  A    between atoms: C_15  and  C_16
REMARK   10  A    between atoms: N_17  and  C_18
REMARK   11  A    between atoms: C_21  and  C_22
REMARK   12  A    between atoms: C_25  and  C_26
REMARK                            x       y       z     vdW  Elec       q    Type
REMARK                         _______ _______ _______ _____ _____    ______ ____
ROOT
ATOM      1  C   UNL     1       4.878   4.894  17.281  0.00  0.00    +0.000 A 
ATOM      2  C   UNL     1       3.696   4.140  17.538  0.00  0.00    +0.000 A 
ATOM      3  C   UNL     1       2.744   5.016  18.045  0.00  0.00    +0.000 A 
ATOM      4  C   UNL     1       1.310   4.709  18.350  0.00  0.00    +0.000 C 
ATOM      5  N   UNL     1       3.300   6.302  18.100  0.00  0.00    +0.000 N 
ATOM      6  C   UNL     1       4.630   6.204  17.681  0.00  0.00    +0.000 A 
ATOM      7  C   UNL     1       5.620   7.323  17.718  0.00  0.00    +0.000 C 
ENDROOT
BRANCH   5   8
ATOM      8  C   UNL     1       2.604   7.501  18.470  0.00  0.00    +0.000 A 
ATOM      9  C   UNL     1       2.125   7.678  19.772  0.00  0.00    +0.000 A 
ATOM     10  C   UNL     1       1.354   8.794  20.106  0.00  0.00    +0.000 A 
ATOM     11  C   UNL     1       1.082   9.778  19.154  0.00  0.00    +0.000 A 
ATOM     12  C   UNL     1       0.236  10.966  19.498  0.00  0.00    +0.000 C 
ATOM     13  C   UNL     1       1.608   9.633  17.865  0.00  0.00    +0.000 A 
ATOM     14  C   UNL     1       2.347   8.497  17.518  0.00  0.00    +0.000 A 
ENDBRANCH   5   8
BRANCH   1  15
ATOM     15  C   UNL     1       6.149   4.363  16.675  0.00  0.00    +0.000 C 
BRANCH  15  16
ATOM     16  O   UNL     1       5.908   3.790  15.382  0.00  0.00    +0.000 OA
BRANCH  16  19
ATOM     17  C   UNL     1       6.999   3.900  11.981  0.00  0.00    +0.000 C 
ATOM     18  N   UNL     1       6.414   3.554  13.246  0.00  0.00    +0.000 N 
ATOM     19  C   UNL     1       6.661   4.278  14.373  0.00  0.00    +0.000 C 
ATOM     20  O   UNL     1       7.438   5.218  14.439  0.00  0.00    +0.000 OA
ATOM     21  H   UNL     1       5.730   2.816  13.324  0.00  0.00    +0.000 HD
ENDBRANCH  16  19
ENDBRANCH  15  16
ENDBRANCH   1  15
BRANCH   2  22
ATOM     22  C   UNL     1       3.506   2.669  17.275  0.00  0.00    +0.000 C 
BRANCH  22  23
ATOM     23  O   UNL     1       3.714   1.862  18.443  0.00  0.00    +0.000 OA
BRANCH  23  24
ATOM     24  C   UNL     1       2.731   1.911  19.367  0.00  0.00    +0.000 C 
ATOM     25  O   UNL     1       1.580   1.529  19.218  0.00  0.00    +0.000 OA
ATOM     26  N   UNL     1       3.220   2.486  20.501  0.00  0.00    +0.000 N 
ATOM     27  C   UNL     1       2.449   2.648  21.704  0.00  0.00    +0.000 C 
ATOM     28  H   UNL     1       4.180   2.800  20.456  0.00  0.00    +0.000 HD
ENDBRANCH  23  24
ENDBRANCH  22  23
ENDBRANCH   2  22
TORSDOF 7
ENDMDL
MODEL 9
REMARK VINA RESULT:      -7.3      1.269      1.366
REMARK  Name = 
REMARK  12 active torsions:
REMARK  status: ('A' for Active; 'I' for Inactive)
REMARK    1  A    between atoms: C_1  and  N_2
REMARK    2  A    between atoms: C_3  and  O_5
REMARK    3  A    between atoms: O_5  and  C_6
REMARK    4  A    between atoms: C_6  and  C_7
REMARK    5  A    between atoms: C_8  and  C_9
REMARK    6  A    between atoms: C_9  and  O_10
REMARK    7  A    between atoms: O_10  and  C_11
REMARK    8  A    between atoms: N_13  and  C_14
REMARK    9  A    between atoms: C_15  and  C_16
REMARK   10  A    between atoms: N_17  and  C_18
REMARK   11  A    between atoms: C_21  and  C_22
REMARK   12  A    between atoms: C_25  and  C_26
REMARK                            x       y       z     vdW  Elec       q    Type
REMARK                         _______ _______ _______ _____ _____    ______ ____
ROOT
ATOM      1  C   UNL     1       3.588   4.006  18.433  0.00  0.00    +0.000 A 
ATOM      2  C   UNL     1       4.430   4.742  17.549  0.00  0.00    +0.000 A 
ATOM      3  C   UNL     1       4.002   6.063  17.568  0.00  0.00    +0.000 A 
ATOM      4  C   UNL     1       4.655   7.230  16.892  0.00  0.00    +0.000 C 
ATOM      5  N   UNL     1       2.919   6.173  18.450  0.00  0.00    +0.000 N 
ATOM      6  C   UNL     1       2.638   4.892  18.934  0.00  0.00    +0.000 A 
ATOM      7  C   UNL     1       1.469   4.544  19.799  0.00  0.00    +0.000 C 
ENDROOT
BRANCH   5   8
ATOM      8  C   UNL     1       2.262   7.393  18.824  0.00  0.00    +0.000 A 
ATOM      9  C   UNL     1       1.962   7.663  20.163  0.00  0.00    +0.000 A 
ATOM     10  C   UNL     1       1.226   8.796  20.518  0.00  0.00    +0.000 A 
ATOM     11  C   UNL     1       0.812   9.706  19.543  0.00  0.00    +0.000 A 
ATOM     12  C   UNL     1       0.002  10.912  19.913  0.00  0.00    +0.000 C 
ATOM     13  C   UNL     1       1.159   9.469  18.209  0.00  0.00    +0.000 A 
ATOM     14  C   UNL     1       1.862   8.314  17.847  0.00  0.00    +0.000 A 
ENDBRANCH   5   8
BRANCH   1  15
ATOM     15  C   UNL     1       3.719   2.544  18.767  0.00  0.00    +0.000 C 
BRANCH  15  16
ATOM     16  O   UNL     1       4.920   2.288  19.509  0.00  0.00    +0.000 OA
BRANCH  16  19
ATOM     17  C   UNL     1       5.840   0.045  22.134  0.00  0.00    +0.000 C 
ATOM     18  N   UNL     1       5.704   0.761  20.897  0.00  0.00    +0.000 N 
ATOM     19  C   UNL     1       4.751   1.717  20.721  0.00  0.00    +0.000 C 
ATOM     20  O   UNL     1       3.893   2.002  21.541  0.00  0.00    +0.000 OA
ATOM     21  H   UNL     1       6.369   0.642  20.146  0.00  0.00    +0.000 HD
ENDBRANCH  16  19
ENDBRANCH  15  16
ENDBRANCH   1  15
BRANCH   2  22
ATOM     22  C   UNL     1       5.593   4.190  16.767  0.00  0.00    +0.000 C 
BRANCH  22  23
ATOM     23  O   UNL     1       5.255   3.884  15.407  0.00  0.00    +0.000 OA
BRANCH  23  24
ATOM     24  C   UNL     1       6.103   4.366  14.474  0.00  0.00    +0.000 C 
ATOM     25  O   UNL     1       6.763   5.391  14.558  0.00  0.00    +0.000 OA
ATOM     26  N   UNL     1       6.088   3.536  13.393  0.00  0.00    +0.000 N 
ATOM     27  C   UNL     1       6.917   3.729  12.234  0.00  0.00    +0.000 C 
ATOM     28  H   UNL     1       5.450   2.753  13.449  0.00  0.00    +0.000 HD
ENDBRANCH  23  24
ENDBRANCH  22  23
ENDBRANCH   2  22
TORSDOF 7
ENDMDL
