MODEL 1
REMARK VINA RESULT:      -9.4      0.000      0.000
REMARK  Name = 
REMARK  4 active torsions:
REMARK  status: ('A' for Active; 'I' for Inactive)
REMARK    1  A    between atoms: C_1  and  O_2
REMARK    2  A    between atoms: O_2  and  C_3
REMARK    3  A    between atoms: C_6  and  C_7
REMARK    4  A    between atoms: N_16  and  C_17
REMARK                            x       y       z     vdW  Elec       q    Type
REMARK                         _______ _______ _______ _____ _____    ______ ____
ROOT
ATOM      1  C   UNL     1       2.729   5.897  18.645  0.00  0.00    +0.000 C 
ATOM      2  C   UNL     1       2.688   4.614  19.464  0.00  0.00    +0.000 C 
ATOM      3  C   UNL     1       2.391   4.457  20.908  0.00  0.00    +0.000 C 
ATOM      4  C   UNL     1       1.524   3.528  21.309  0.00  0.00    +0.000 C 
ATOM      5  C   UNL     1       0.785   2.762  20.340  0.00  0.00    +0.000 C 
ATOM      6  C   UNL     1       1.063   2.763  19.017  0.00  0.00    +0.000 C 
ATOM      7  C   UNL     1       1.972   3.781  18.381  0.00  0.00    +0.000 C 
ATOM      8  C   UNL     1       3.176   4.047  17.321  0.00  0.00    +0.000 C 
ATOM      9  O   UNL     1       3.618   3.258  16.504  0.00  0.00    +0.000 OA
ATOM     10  N   UNL     1       3.649   5.473  17.610  0.00  0.00    +0.000 N 
ENDROOT
BRANCH  10  11
ATOM     11  C   UNL     1       5.052   5.794  17.792  0.00  0.00    +0.000 A 
ATOM     12  C   UNL     1       5.882   5.061  18.653  0.00  0.00    +0.000 A 
ATOM     13  C   UNL     1       7.145   5.533  19.067  0.00  0.00    +0.000 A 
ATOM     14  C   UNL     1       7.556   6.776  18.589  0.00  0.00    +0.000 A 
ATOM     15  N   UNL     1       8.649   7.573  18.833  0.00  0.00    +0.000 N 
ATOM     16  C   UNL     1       8.527   8.698  18.065  0.00  0.00    +0.000 A 
ATOM     17  N   UNL     1       7.427   8.670  17.338  0.00  0.00    +0.000 NA
ATOM     18  C   UNL     1       6.816   7.495  17.658  0.00  0.00    +0.000 A 
ATOM     19  C   UNL     1       5.573   6.969  17.224  0.00  0.00    +0.000 A 
ATOM     20  H   UNL     1       9.385   7.378  19.492  0.00  0.00    +0.000 HD
ENDBRANCH  10  11
BRANCH   1  24
ATOM     21  C   UNL     1       0.721   9.461  19.865  0.00  0.00    +0.000 A 
ATOM     22  C   UNL     1       1.042   8.496  20.828  0.00  0.00    +0.000 A 
ATOM     23  C   UNL     1       1.852   7.397  20.513  0.00  0.00    +0.000 A 
ATOM     24  C   UNL     1       2.342   7.236  19.216  0.00  0.00    +0.000 A 
ATOM     25  C   UNL     1       2.116   8.282  18.290  0.00  0.00    +0.000 A 
ATOM     26  C   UNL     1       1.290   9.352  18.601  0.00  0.00    +0.000 A 
ATOM     27  F   UNL     1       1.003  10.204  17.607  0.00  0.00    +0.000 F 
BRANCH  21  29
ATOM     28  C   UNL     1       0.418  11.615  20.800  0.00  0.00    +0.000 C 
ATOM     29  O   UNL     1      -0.160  10.421  20.282  0.00  0.00    +0.000 OA
ENDBRANCH  21  29
ENDBRANCH   1  24
TORSDOF 3
ENDMDL
MODEL 2
REMARK VINA RESULT:      -9.4      3.195      6.238
REMARK  Name = 
REMARK  4 active torsions:
REMARK  status: ('A' for Active; 'I' for Inactive)
REMARK    1  A    between atoms: C_1  and  O_2
REMARK    2  A    between atoms: O_2  and  C_3
REMARK    3  A    between atoms: C_6  and  C_7
REMARK    4  A    between atoms: N_16  and  C_17
REMARK                            x       y       z     vdW  Elec       q    Type
REMARK                         _______ _______ _______ _____ _____    ______ ____
ROOT
ATOM      1  C   UNL     1       3.797   5.459  18.842  0.00  0.00    +0.000 C 
ATOM      2  C   UNL     1       2.777   4.379  18.510  0.00  0.00    +0.000 C 
ATOM      3  C   UNL     1       2.657   3.583  17.265  0.00  0.00    +0.000 C 
ATOM      4  C   UNL     1       2.510   2.260  17.335  0.00  0.00    +0.000 C 
ATOM      5  C   UNL     1       2.590   1.590  18.607  0.00  0.00    +0.000 C 
ATOM      6  C   UNL     1       2.592   2.238  19.795  0.00  0.00    +0.000 C 
ATOM      7  C   UNL     1       2.809   3.724  19.906  0.00  0.00    +0.000 C 
ATOM      8  C   UNL     1       2.342   5.111  20.614  0.00  0.00    +0.000 C 
ATOM      9  O   UNL     1       1.589   5.229  21.564  0.00  0.00    +0.000 OA
ATOM     10  N   UNL     1       3.018   6.217  19.799  0.00  0.00    +0.000 N 
ENDROOT
BRANCH  10  11
ATOM     11  C   UNL     1       2.279   7.363  19.302  0.00  0.00    +0.000 A 
ATOM     12  C   UNL     1       2.367   7.787  17.968  0.00  0.00    +0.000 A 
ATOM     13  C   UNL     1       1.905   9.052  17.547  0.00  0.00    +0.000 A 
ATOM     14  C   UNL     1       1.349   9.889  18.512  0.00  0.00    +0.000 A 
ATOM     15  N   UNL     1       0.885  11.182  18.494  0.00  0.00    +0.000 N 
ATOM     16  C   UNL     1       0.440  11.485  19.751  0.00  0.00    +0.000 A 
ATOM     17  N   UNL     1       0.583  10.464  20.574  0.00  0.00    +0.000 NA
ATOM     18  C   UNL     1       1.150   9.477  19.825  0.00  0.00    +0.000 A 
ATOM     19  C   UNL     1       1.579   8.181  20.205  0.00  0.00    +0.000 A 
ATOM     20  H   UNL     1       0.909  11.806  17.704  0.00  0.00    +0.000 HD
ENDBRANCH  10  11
BRANCH   1  24
ATOM     21  C   UNL     1       6.920   5.458  15.932  0.00  0.00    +0.000 A 
ATOM     22  C   UNL     1       5.750   6.185  15.676  0.00  0.00    +0.000 A 
ATOM     23  C   UNL     1       4.775   6.363  16.666  0.00  0.00    +0.000 A 
ATOM     24  C   UNL     1       4.948   5.797  17.930  0.00  0.00    +0.000 A 
ATOM     25  C   UNL     1       6.187   5.175  18.212  0.00  0.00    +0.000 A 
ATOM     26  C   UNL     1       7.135   4.979  17.219  0.00  0.00    +0.000 A 
ATOM     27  F   UNL     1       8.204   4.236  17.541  0.00  0.00    +0.000 F 
BRANCH  21  29
ATOM     28  C   UNL     1       7.112   4.747  13.681  0.00  0.00    +0.000 C 
ATOM     29  O   UNL     1       7.734   5.276  14.848  0.00  0.00    +0.000 OA
ENDBRANCH  21  29
ENDBRANCH   1  24
TORSDOF 3
ENDMDL
MODEL 3
REMARK VINA RESULT:      -9.1      1.816      2.320
REMARK  Name = 
REMARK  4 active torsions:
REMARK  status: ('A' for Active; 'I' for Inactive)
REMARK    1  A    between atoms: C_1  and  O_2
REMARK    2  A    between atoms: O_2  and  C_3
REMARK    3  A    between atoms: C_6  and  C_7
REMARK    4  A    between atoms: N_16  and  C_17
REMARK                            x       y       z     vdW  Elec       q    Type
REMARK                         _______ _______ _______ _____ _____    ______ ____
ROOT
ATOM      1  C   UNL     1       2.427   5.256  18.730  0.00  0.00    +0.000 C 
ATOM      2  C   UNL     1       2.643   4.109  19.707  0.00  0.00    +0.000 C 
ATOM      3  C   UNL     1       2.931   4.183  21.159  0.00  0.00    +0.000 C 
ATOM      4  C   UNL     1       2.242   3.424  22.012  0.00  0.00    +0.000 C 
ATOM      5  C   UNL     1       1.141   2.625  21.542  0.00  0.00    +0.000 C 
ATOM      6  C   UNL     1       0.874   2.416  20.232  0.00  0.00    +0.000 C 
ATOM      7  C   UNL     1       1.513   3.226  19.136  0.00  0.00    +0.000 C 
ATOM      8  C   UNL     1       2.215   3.205  17.670  0.00  0.00    +0.000 C 
ATOM      9  O   UNL     1       2.255   2.267  16.892  0.00  0.00    +0.000 OA
ATOM     10  N   UNL     1       2.840   4.593  17.511  0.00  0.00    +0.000 N 
ENDROOT
BRANCH  10  11
ATOM     11  C   UNL     1       4.217   4.770  17.088  0.00  0.00    +0.000 A 
ATOM     12  C   UNL     1       5.060   5.730  17.666  0.00  0.00    +0.000 A 
ATOM     13  C   UNL     1       6.281   6.117  17.074  0.00  0.00    +0.000 A 
ATOM     14  C   UNL     1       6.635   5.507  15.873  0.00  0.00    +0.000 A 
ATOM     15  N   UNL     1       7.673   5.683  14.989  0.00  0.00    +0.000 N 
ATOM     16  C   UNL     1       7.513   4.785  13.970  0.00  0.00    +0.000 A 
ATOM     17  N   UNL     1       6.439   4.040  14.148  0.00  0.00    +0.000 NA
ATOM     18  C   UNL     1       5.885   4.481  15.312  0.00  0.00    +0.000 A 
ATOM     19  C   UNL     1       4.688   4.080  15.958  0.00  0.00    +0.000 A 
ATOM     20  H   UNL     1       8.398   6.377  15.062  0.00  0.00    +0.000 HD
ENDBRANCH  10  11
BRANCH   1  24
ATOM     21  C   UNL     1       1.316   9.283  19.607  0.00  0.00    +0.000 A 
ATOM     22  C   UNL     1       1.434   8.365  20.658  0.00  0.00    +0.000 A 
ATOM     23  C   UNL     1       1.965   7.085  20.448  0.00  0.00    +0.000 A 
ATOM     24  C   UNL     1       2.371   6.696  19.170  0.00  0.00    +0.000 A 
ATOM     25  C   UNL     1       2.364   7.674  18.148  0.00  0.00    +0.000 A 
ATOM     26  C   UNL     1       1.812   8.929  18.357  0.00  0.00    +0.000 A 
ATOM     27  F   UNL     1       1.700   9.728  17.286  0.00  0.00    +0.000 F 
BRANCH  21  29
ATOM     28  C   UNL     1      -0.687  10.545  19.574  0.00  0.00    +0.000 C 
ATOM     29  O   UNL     1       0.688  10.454  19.933  0.00  0.00    +0.000 OA
ENDBRANCH  21  29
ENDBRANCH   1  24
TORSDOF 3
ENDMDL
MODEL 4
REMARK VINA RESULT:      -8.1      3.619      7.339
REMARK  Name = 
REMARK  4 active torsions:
REMARK  status: ('A' for Active; 'I' for Inactive)
REMARK    1  A    between atoms: C_1  and  O_2
REMARK    2  A    between atoms: O_2  and  C_3
REMARK    3  A    between atoms: C_6  and  C_7
REMARK    4  A    between atoms: N_16  and  C_17
REMARK                            x       y       z     vdW  Elec       q    Type
REMARK                         _______ _______ _______ _____ _____    ______ ____
ROOT
ATOM      1  C   UNL     1      -1.064  10.644  19.705  0.00  0.00    +0.000 C 
ATOM      2  C   UNL     1      -0.414  11.995  19.967  0.00  0.00    +0.000 C 
ATOM      3  C   UNL     1      -0.423  13.201  19.104  0.00  0.00    +0.000 C 
ATOM      4  C   UNL     1      -0.716  14.390  19.630  0.00  0.00    +0.000 C 
ATOM      5  C   UNL     1      -1.140  14.490  21.002  0.00  0.00    +0.000 C 
ATOM      6  C   UNL     1      -1.060  13.469  21.885  0.00  0.00    +0.000 C 
ATOM      7  C   UNL     1      -0.801  12.048  21.459  0.00  0.00    +0.000 C 
ATOM      8  C   UNL     1       0.007  10.670  21.761  0.00  0.00    +0.000 C 
ATOM      9  O   UNL     1       0.654  10.406  22.760  0.00  0.00    +0.000 OA
ATOM     10  N   UNL     1      -0.189   9.815  20.507  0.00  0.00    +0.000 N 
ENDROOT
BRANCH  10  11
ATOM     11  C   UNL     1       0.925   9.173  19.835  0.00  0.00    +0.000 A 
ATOM     12  C   UNL     1       1.379   9.589  18.574  0.00  0.00    +0.000 A 
ATOM     13  C   UNL     1       2.244   8.801  17.786  0.00  0.00    +0.000 A 
ATOM     14  C   UNL     1       2.644   7.571  18.303  0.00  0.00    +0.000 A 
ATOM     15  N   UNL     1       3.389   6.529  17.804  0.00  0.00    +0.000 N 
ATOM     16  C   UNL     1       3.465   5.567  18.773  0.00  0.00    +0.000 A 
ATOM     17  N   UNL     1       2.821   5.929  19.865  0.00  0.00    +0.000 NA
ATOM     18  C   UNL     1       2.303   7.158  19.585  0.00  0.00    +0.000 A 
ATOM     19  C   UNL     1       1.473   7.995  20.372  0.00  0.00    +0.000 A 
ATOM     20  H   UNL     1       3.773   6.471  16.875  0.00  0.00    +0.000 HD
ENDBRANCH  10  11
BRANCH   1  24
ATOM     21  C   UNL     1      -3.220  10.830  16.025  0.00  0.00    +0.000 A 
ATOM     22  C   UNL     1      -2.119   9.971  16.127  0.00  0.00    +0.000 A 
ATOM     23  C   UNL     1      -1.489   9.740  17.357  0.00  0.00    +0.000 A 
ATOM     24  C   UNL     1      -1.943  10.386  18.509  0.00  0.00    +0.000 A 
ATOM     25  C   UNL     1      -3.130  11.149  18.414  0.00  0.00    +0.000 A 
ATOM     26  C   UNL     1      -3.731  11.394  17.189  0.00  0.00    +0.000 A 
ATOM     27  F   UNL     1      -4.753  12.263  17.179  0.00  0.00    +0.000 F 
BRANCH  21  29
ATOM     28  C   UNL     1      -3.412   9.998  13.817  0.00  0.00    +0.000 C 
ATOM     29  O   UNL     1      -3.670  11.042  14.751  0.00  0.00    +0.000 OA
ENDBRANCH  21  29
ENDBRANCH   1  24
TORSDOF 3
ENDMDL
MODEL 5
REMARK VINA RESULT:      -8.1      1.181      1.515
REMARK  Name = 
REMARK  4 active torsions:
REMARK  status: ('A' for Active; 'I' for Inactive)
REMARK    1  A    between atoms: C_1  and  O_2
REMARK    2  A    between atoms: O_2  and  C_3
REMARK    3  A    between atoms: C_6  and  C_7
REMARK    4  A    between atoms: N_16  and  C_17
REMARK                            x       y       z     vdW  Elec       q    Type
REMARK                         _______ _______ _______ _____ _____    ______ ____
ROOT
ATOM      1  C   UNL     1       2.914   5.236  18.300  0.00  0.00    +0.000 C 
ATOM      2  C   UNL     1       2.944   4.251  19.459  0.00  0.00    +0.000 C 
ATOM      3  C   UNL     1       2.481   4.459  20.852  0.00  0.00    +0.000 C 
ATOM      4  C   UNL     1       1.706   3.545  21.437  0.00  0.00    +0.000 C 
ATOM      5  C   UNL     1       1.219   2.420  20.682  0.00  0.00    +0.000 C 
ATOM      6  C   UNL     1       1.670   2.095  19.449  0.00  0.00    +0.000 C 
ATOM      7  C   UNL     1       2.504   3.034  18.619  0.00  0.00    +0.000 C 
ATOM      8  C   UNL     1       3.790   3.195  17.637  0.00  0.00    +0.000 C 
ATOM      9  O   UNL     1       4.444   2.296  17.136  0.00  0.00    +0.000 OA
ATOM     10  N   UNL     1       4.015   4.704  17.524  0.00  0.00    +0.000 N 
ENDROOT
BRANCH  10  11
ATOM     11  C   UNL     1       5.322   5.302  17.723  0.00  0.00    +0.000 A 
ATOM     12  C   UNL     1       6.235   4.809  18.666  0.00  0.00    +0.000 A 
ATOM     13  C   UNL     1       7.365   5.545  19.080  0.00  0.00    +0.000 A 
ATOM     14  C   UNL     1       7.555   6.804  18.514  0.00  0.00    +0.000 A 
ATOM     15  N   UNL     1       8.465   7.813  18.726  0.00  0.00    +0.000 N 
ATOM     16  C   UNL     1       8.168   8.832  17.864  0.00  0.00    +0.000 A 
ATOM     17  N   UNL     1       7.128   8.538  17.108  0.00  0.00    +0.000 NA
ATOM     18  C   UNL     1       6.736   7.295  17.505  0.00  0.00    +0.000 A 
ATOM     19  C   UNL     1       5.637   6.509  17.076  0.00  0.00    +0.000 A 
ATOM     20  H   UNL     1       9.192   7.813  19.421  0.00  0.00    +0.000 HD
ENDBRANCH  10  11
BRANCH   1  24
ATOM     21  C   UNL     1       1.981   9.338  19.028  0.00  0.00    +0.000 A 
ATOM     22  C   UNL     1       2.224   8.917  17.715  0.00  0.00    +0.000 A 
ATOM     23  C   UNL     1       2.358   7.558  17.400  0.00  0.00    +0.000 A 
ATOM     24  C   UNL     1       2.270   6.594  18.406  0.00  0.00    +0.000 A 
ATOM     25  C   UNL     1       1.899   7.023  19.702  0.00  0.00    +0.000 A 
ATOM     26  C   UNL     1       1.794   8.371  20.010  0.00  0.00    +0.000 A 
ATOM     27  F   UNL     1       1.602   8.684  21.300  0.00  0.00    +0.000 F 
BRANCH  21  29
ATOM     28  C   UNL     1       0.692  11.297  19.354  0.00  0.00    +0.000 C 
ATOM     29  O   UNL     1       1.974  10.694  19.207  0.00  0.00    +0.000 OA
ENDBRANCH  21  29
ENDBRANCH   1  24
TORSDOF 3
ENDMDL
MODEL 6
REMARK VINA RESULT:      -8.0      1.494      1.688
REMARK  Name = 
REMARK  4 active torsions:
REMARK  status: ('A' for Active; 'I' for Inactive)
REMARK    1  A    between atoms: C_1  and  O_2
REMARK    2  A    between atoms: O_2  and  C_3
REMARK    3  A    between atoms: C_6  and  C_7
REMARK    4  A    between atoms: N_16  and  C_17
REMARK                            x       y       z     vdW  Elec       q    Type
REMARK                         _______ _______ _______ _____ _____    ______ ____
ROOT
ATOM      1  C   UNL     1       2.448   5.449  18.635  0.00  0.00    +0.000 C 
ATOM      2  C   UNL     1       2.355   4.193  19.488  0.00  0.00    +0.000 C 
ATOM      3  C   UNL     1       2.250   4.092  20.964  0.00  0.00    +0.000 C 
ATOM      4  C   UNL     1       1.333   3.293  21.510  0.00  0.00    +0.000 C 
ATOM      5  C   UNL     1       0.368   2.623  20.677  0.00  0.00    +0.000 C 
ATOM      6  C   UNL     1       0.452   2.573  19.328  0.00  0.00    +0.000 C 
ATOM      7  C   UNL     1       1.388   3.453  18.542  0.00  0.00    +0.000 C 
ATOM      8  C   UNL     1       2.452   3.542  17.316  0.00  0.00    +0.000 C 
ATOM      9  O   UNL     1       2.665   2.692  16.469  0.00  0.00    +0.000 OA
ATOM     10  N   UNL     1       3.146   4.894  17.494  0.00  0.00    +0.000 N 
ENDROOT
BRANCH  10  11
ATOM     11  C   UNL     1       4.591   5.025  17.468  0.00  0.00    +0.000 A 
ATOM     12  C   UNL     1       5.363   4.582  16.383  0.00  0.00    +0.000 A 
ATOM     13  C   UNL     1       6.762   4.425  16.467  0.00  0.00    +0.000 A 
ATOM     14  C   UNL     1       7.372   4.727  17.682  0.00  0.00    +0.000 A 
ATOM     15  N   UNL     1       8.660   4.618  18.151  0.00  0.00    +0.000 N 
ATOM     16  C   UNL     1       8.677   5.078  19.439  0.00  0.00    +0.000 A 
ATOM     17  N   UNL     1       7.481   5.481  19.824  0.00  0.00    +0.000 NA
ATOM     18  C   UNL     1       6.667   5.261  18.754  0.00  0.00    +0.000 A 
ATOM     19  C   UNL     1       5.269   5.454  18.621  0.00  0.00    +0.000 A 
ATOM     20  H   UNL     1       9.439   4.230  17.647  0.00  0.00    +0.000 HD
ENDBRANCH  10  11
BRANCH   1  24
ATOM     21  C   UNL     1       1.181   9.341  19.847  0.00  0.00    +0.000 A 
ATOM     22  C   UNL     1       1.261   8.322  20.804  0.00  0.00    +0.000 A 
ATOM     23  C   UNL     1       1.837   7.081  20.498  0.00  0.00    +0.000 A 
ATOM     24  C   UNL     1       2.327   6.834  19.214  0.00  0.00    +0.000 A 
ATOM     25  C   UNL     1       2.355   7.913  18.299  0.00  0.00    +0.000 A 
ATOM     26  C   UNL     1       1.759   9.128  18.601  0.00  0.00    +0.000 A 
ATOM     27  F   UNL     1       1.690  10.031  17.612  0.00  0.00    +0.000 F 
BRANCH  21  29
ATOM     28  C   UNL     1      -0.039  10.418  21.567  0.00  0.00    +0.000 C 
ATOM     29  O   UNL     1       0.504  10.459  20.251  0.00  0.00    +0.000 OA
ENDBRANCH  21  29
ENDBRANCH   1  24
TORSDOF 3
ENDMDL
MODEL 7
REMARK VINA RESULT:      -7.9      3.147      6.388
REMARK  Name = 
REMARK  4 active torsions:
REMARK  status: ('A' for Active; 'I' for Inactive)
REMARK    1  A    between atoms: C_1  and  O_2
REMARK    2  A    between atoms: O_2  and  C_3
REMARK    3  A    between atoms: C_6  and  C_7
REMARK    4  A    between atoms: N_16  and  C_17
REMARK                            x       y       z     vdW  Elec       q    Type
REMARK                         _______ _______ _______ _____ _____    ______ ____
ROOT
ATOM      1  C   UNL     1       3.102   6.375  19.017  0.00  0.00    +0.000 C 
ATOM      2  C   UNL     1       1.942   5.412  18.807  0.00  0.00    +0.000 C 
ATOM      3  C   UNL     1       1.744   4.442  17.703  0.00  0.00    +0.000 C 
ATOM      4  C   UNL     1       1.397   3.185  17.979  0.00  0.00    +0.000 C 
ATOM      5  C   UNL     1       1.333   2.736  19.346  0.00  0.00    +0.000 C 
ATOM      6  C   UNL     1       1.395   3.569  20.410  0.00  0.00    +0.000 C 
ATOM      7  C   UNL     1       1.830   5.005  20.290  0.00  0.00    +0.000 C 
ATOM      8  C   UNL     1       1.555   6.545  20.735  0.00  0.00    +0.000 C 
ATOM      9  O   UNL     1       0.797   6.929  21.609  0.00  0.00    +0.000 OA
ATOM     10  N   UNL     1       2.415   7.388  19.791  0.00  0.00    +0.000 N 
ENDROOT
BRANCH  10  11
ATOM     11  C   UNL     1       1.875   8.527  19.073  0.00  0.00    +0.000 A 
ATOM     12  C   UNL     1       2.669   9.335  18.246  0.00  0.00    +0.000 A 
ATOM     13  C   UNL     1       2.241  10.598  17.789  0.00  0.00    +0.000 A 
ATOM     14  C   UNL     1       0.980  11.034  18.190  0.00  0.00    +0.000 A 
ATOM     15  N   UNL     1       0.281  12.206  18.020  0.00  0.00    +0.000 N 
ATOM     16  C   UNL     1      -0.931  12.064  18.636  0.00  0.00    +0.000 A 
ATOM     17  N   UNL     1      -1.058  10.872  19.186  0.00  0.00    +0.000 NA
ATOM     18  C   UNL     1       0.117  10.231  18.926  0.00  0.00    +0.000 A 
ATOM     19  C   UNL     1       0.558   8.946  19.328  0.00  0.00    +0.000 A 
ATOM     20  H   UNL     1       0.622  13.033  17.559  0.00  0.00    +0.000 HD
ENDBRANCH  10  11
BRANCH   1  24
ATOM     21  C   UNL     1       6.293   5.427  16.345  0.00  0.00    +0.000 A 
ATOM     22  C   UNL     1       5.247   6.242  15.894  0.00  0.00    +0.000 A 
ATOM     23  C   UNL     1       4.272   6.726  16.777  0.00  0.00    +0.000 A 
ATOM     24  C   UNL     1       4.320   6.385  18.130  0.00  0.00    +0.000 A 
ATOM     25  C   UNL     1       5.450   5.669  18.591  0.00  0.00    +0.000 A 
ATOM     26  C   UNL     1       6.395   5.170  17.707  0.00  0.00    +0.000 A 
ATOM     27  F   UNL     1       7.337   4.365  18.220  0.00  0.00    +0.000 F 
BRANCH  21  29
ATOM     28  C   UNL     1       6.462   4.301  14.268  0.00  0.00    +0.000 C 
ATOM     29  O   UNL     1       7.112   4.944  15.361  0.00  0.00    +0.000 OA
ENDBRANCH  21  29
ENDBRANCH   1  24
TORSDOF 3
ENDMDL
MODEL 8
REMARK VINA RESULT:      -7.4      2.775      5.528
REMARK  Name = 
REMARK  4 active torsions:
REMARK  status: ('A' for Active; 'I' for Inactive)
REMARK    1  A    between atoms: C_1  and  O_2
REMARK    2  A    between atoms: O_2  and  C_3
REMARK    3  A    between atoms: C_6  and  C_7
REMARK    4  A    between atoms: N_16  and  C_17
REMARK                            x       y       z     vdW  Elec       q    Type
REMARK                         _______ _______ _______ _____ _____    ______ ____
ROOT
ATOM      1  C   UNL     1       3.626   5.176  19.142  0.00  0.00    +0.000 C 
ATOM      2  C   UNL     1       2.614   4.183  18.589  0.00  0.00    +0.000 C 
ATOM      3  C   UNL     1       2.672   3.427  17.315  0.00  0.00    +0.000 C 
ATOM      4  C   UNL     1       2.425   2.117  17.309  0.00  0.00    +0.000 C 
ATOM      5  C   UNL     1       2.221   1.414  18.548  0.00  0.00    +0.000 C 
ATOM      6  C   UNL     1       2.048   2.032  19.739  0.00  0.00    +0.000 C 
ATOM      7  C   UNL     1       2.342   3.494  19.942  0.00  0.00    +0.000 C 
ATOM      8  C   UNL     1       1.848   4.895  20.603  0.00  0.00    +0.000 C 
ATOM      9  O   UNL     1       0.941   5.047  21.403  0.00  0.00    +0.000 OA
ATOM     10  N   UNL     1       2.737   5.967  19.967  0.00  0.00    +0.000 N 
ENDROOT
BRANCH  10  11
ATOM     11  C   UNL     1       2.184   7.175  19.385  0.00  0.00    +0.000 A 
ATOM     12  C   UNL     1       2.411   7.534  18.048  0.00  0.00    +0.000 A 
ATOM     13  C   UNL     1       2.142   8.829  17.558  0.00  0.00    +0.000 A 
ATOM     14  C   UNL     1       1.635   9.765  18.457  0.00  0.00    +0.000 A 
ATOM     15  N   UNL     1       1.342  11.105  18.368  0.00  0.00    +0.000 N 
ATOM     16  C   UNL     1       0.858  11.510  19.581  0.00  0.00    +0.000 A 
ATOM     17  N   UNL     1       0.816  10.511  20.442  0.00  0.00    +0.000 NA
ATOM     18  C   UNL     1       1.301   9.433  19.764  0.00  0.00    +0.000 A 
ATOM     19  C   UNL     1       1.537   8.109  20.212  0.00  0.00    +0.000 A 
ATOM     20  H   UNL     1       1.496  11.689  17.563  0.00  0.00    +0.000 HD
ENDBRANCH  10  11
BRANCH   1  24
ATOM     21  C   UNL     1       7.088   6.922  17.356  0.00  0.00    +0.000 A 
ATOM     22  C   UNL     1       7.198   6.334  18.622  0.00  0.00    +0.000 A 
ATOM     23  C   UNL     1       6.143   5.594  19.173  0.00  0.00    +0.000 A 
ATOM     24  C   UNL     1       4.946   5.448  18.469  0.00  0.00    +0.000 A 
ATOM     25  C   UNL     1       4.896   5.938  17.143  0.00  0.00    +0.000 A 
ATOM     26  C   UNL     1       5.934   6.692  16.615  0.00  0.00    +0.000 A 
ATOM     27  F   UNL     1       5.726   7.252  15.414  0.00  0.00    +0.000 F 
BRANCH  21  29
ATOM     28  C   UNL     1       8.291   8.936  17.677  0.00  0.00    +0.000 C 
ATOM     29  O   UNL     1       8.152   7.698  16.986  0.00  0.00    +0.000 OA
ENDBRANCH  21  29
ENDBRANCH   1  24
TORSDOF 3
ENDMDL
MODEL 9
REMARK VINA RESULT:      -7.2      6.886     10.661
REMARK  Name = 
REMARK  4 active torsions:
REMARK  status: ('A' for Active; 'I' for Inactive)
REMARK    1  A    between atoms: C_1  and  O_2
REMARK    2  A    between atoms: O_2  and  C_3
REMARK    3  A    between atoms: C_6  and  C_7
REMARK    4  A    between atoms: N_16  and  C_17
REMARK                            x       y       z     vdW  Elec       q    Type
REMARK                         _______ _______ _______ _____ _____    ______ ____
ROOT
ATOM      1  C   UNL     1      -0.573  13.192  21.277  0.00  0.00    +0.000 C 
ATOM      2  C   UNL     1      -1.254  12.065  20.513  0.00  0.00    +0.000 C 
ATOM      3  C   UNL     1      -1.835  12.102  19.150  0.00  0.00    +0.000 C 
ATOM      4  C   UNL     1      -1.544  11.137  18.279  0.00  0.00    +0.000 C 
ATOM      5  C   UNL     1      -0.574  10.127  18.614  0.00  0.00    +0.000 C 
ATOM      6  C   UNL     1      -0.075   9.955  19.860  0.00  0.00    +0.000 C 
ATOM      7  C   UNL     1      -0.254  10.976  20.952  0.00  0.00    +0.000 C 
ATOM      8  C   UNL     1      -0.596  11.235  22.520  0.00  0.00    +0.000 C 
ATOM      9  O   UNL     1      -0.671  10.395  23.401  0.00  0.00    +0.000 OA
ATOM     10  N   UNL     1      -0.841  12.742  22.627  0.00  0.00    +0.000 N 
ENDROOT
BRANCH  10  11
ATOM     11  C   UNL     1      -2.013  13.283  23.291  0.00  0.00    +0.000 A 
ATOM     12  C   UNL     1      -3.288  12.723  23.133  0.00  0.00    +0.000 A 
ATOM     13  C   UNL     1      -4.464  13.401  23.518  0.00  0.00    +0.000 A 
ATOM     14  C   UNL     1      -4.321  14.671  24.072  0.00  0.00    +0.000 A 
ATOM     15  N   UNL     1      -5.213  15.637  24.475  0.00  0.00    +0.000 N 
ATOM     16  C   UNL     1      -4.494  16.697  24.955  0.00  0.00    +0.000 A 
ATOM     17  N   UNL     1      -3.197  16.469  24.891  0.00  0.00    +0.000 NA
ATOM     18  C   UNL     1      -3.077  15.228  24.341  0.00  0.00    +0.000 A 
ATOM     19  C   UNL     1      -1.914  14.500  23.988  0.00  0.00    +0.000 A 
ATOM     20  H   UNL     1      -6.215  15.586  24.391  0.00  0.00    +0.000 HD
ENDBRANCH  10  11
BRANCH   1  24
ATOM     21  C   UNL     1      -0.020  16.520  18.662  0.00  0.00    +0.000 A 
ATOM     22  C   UNL     1      -1.138  16.494  19.504  0.00  0.00    +0.000 A 
ATOM     23  C   UNL     1      -1.273  15.519  20.502  0.00  0.00    +0.000 A 
ATOM     24  C   UNL     1      -0.294  14.537  20.660  0.00  0.00    +0.000 A 
ATOM     25  C   UNL     1       0.887  14.652  19.889  0.00  0.00    +0.000 A 
ATOM     26  C   UNL     1       1.001  15.602  18.886  0.00  0.00    +0.000 A 
ATOM     27  F   UNL     1       2.085  15.526  18.100  0.00  0.00    +0.000 F 
BRANCH  21  29
ATOM     28  C   UNL     1       0.717  18.631  17.881  0.00  0.00    +0.000 C 
ATOM     29  O   UNL     1      -0.067  17.460  17.669  0.00  0.00    +0.000 OA
ENDBRANCH  21  29
ENDBRANCH   1  24
TORSDOF 3
ENDMDL
