MODEL 1
REMARK VINA RESULT:      -6.1      0.000      0.000
REMARK  Name = 
REMARK  4 active torsions:
REMARK  status: ('A' for Active; 'I' for Inactive)
REMARK    1  A    between atoms: C_1  and  S_2
REMARK    2  A    between atoms: S_2  and  C_5
REMARK    3  A    between atoms: C_11  and  C_12
REMARK    4  A    between atoms: C_17  and  C_19
REMARK                            x       y       z     vdW  Elec       q    Type
REMARK                         _______ _______ _______ _____ _____    ______ ____
ROOT
ATOM      1  C   UNL     1      -1.601  12.617  21.566  0.00  0.00    +0.000 C 
ATOM      2  C   UNL     1      -0.609  13.739  21.169  0.00  0.00    +0.000 C 
ATOM      3  C   UNL     1       0.584  13.263  20.335  0.00  0.00    +0.000 C 
ATOM      4  C   UNL     1       1.236  11.984  20.854  0.00  0.00    +0.000 C 
ATOM      5  N   UNL     1       0.258  10.958  21.207  0.00  0.00    +0.000 N 
ATOM      6  C   UNL     1       0.398   9.585  21.044  0.00  0.00    +0.000 C 
ATOM      7  O   UNL     1      -0.368   8.803  21.624  0.00  0.00    +0.000 OA
ATOM      8  C   UNL     1      -0.790  11.432  22.114  0.00  0.00    +0.000 C 
ENDROOT
BRANCH   1  15
ATOM      9  C   UNL     1      -4.012  12.509  20.539  0.00  0.00    +0.000 A 
ATOM     10  C   UNL     1      -4.798  12.268  19.388  0.00  0.00    +0.000 A 
ATOM     11  C   UNL     1      -4.197  11.842  18.213  0.00  0.00    +0.000 A 
ATOM     12 CL   UNL     1      -5.108  11.671  16.770  0.00  0.00    +0.000 Cl
ATOM     13  C   UNL     1      -2.841  11.614  18.229  0.00  0.00    +0.000 A 
ATOM     14  N   UNL     1      -2.068  11.786  19.331  0.00  0.00    +0.000 NA
ATOM     15  C   UNL     1      -2.626  12.280  20.480  0.00  0.00    +0.000 A 
BRANCH   9  17
ATOM     16  C   UNL     1      -6.560  13.472  21.427  0.00  0.00    +0.000 C 
ATOM     17  S   UNL     1      -4.856  13.336  21.877  0.00  0.00    +0.000 S 
ATOM     18  O   UNL     1      -4.337  14.692  21.944  0.00  0.00    +0.000 OA
ATOM     19  O   UNL     1      -4.757  12.488  23.049  0.00  0.00    +0.000 OA
ENDBRANCH   9  17
ENDBRANCH   1  15
BRANCH   6  20
ATOM     20  C   UNL     1       1.441   8.975  20.100  0.00  0.00    +0.000 C 
ATOM     21  C   UNL     1       1.252   9.288  18.613  0.00  0.00    +0.000 C 
ATOM     22  C   UNL     1       2.240   8.508  17.754  0.00  0.00    +0.000 C 
ATOM     23  O   UNL     1       2.199   7.121  18.075  0.00  0.00    +0.000 OA
ATOM     24  C   UNL     1       2.647   6.872  19.406  0.00  0.00    +0.000 C 
ATOM     25  C   UNL     1       1.687   7.494  20.407  0.00  0.00    +0.000 C 
ENDBRANCH   6  20
TORSDOF 3
ENDMDL
MODEL 2
REMARK VINA RESULT:      -6.0      1.699      2.116
REMARK  Name = 
REMARK  4 active torsions:
REMARK  status: ('A' for Active; 'I' for Inactive)
REMARK    1  A    between atoms: C_1  and  S_2
REMARK    2  A    between atoms: S_2  and  C_5
REMARK    3  A    between atoms: C_11  and  C_12
REMARK    4  A    between atoms: C_17  and  C_19
REMARK                            x       y       z     vdW  Elec       q    Type
REMARK                         _______ _______ _______ _____ _____    ______ ____
ROOT
ATOM      1  C   UNL     1      -2.927  13.652  22.585  0.00  0.00    +0.000 C 
ATOM      2  C   UNL     1      -2.158  14.810  21.901  0.00  0.00    +0.000 C 
ATOM      3  C   UNL     1      -0.986  14.361  21.024  0.00  0.00    +0.000 C 
ATOM      4  C   UNL     1      -0.101  13.294  21.665  0.00  0.00    +0.000 C 
ATOM      5  N   UNL     1      -0.875  12.223  22.288  0.00  0.00    +0.000 N 
ATOM      6  C   UNL     1      -0.541  10.875  22.334  0.00  0.00    +0.000 C 
ATOM      7  O   UNL     1      -1.123  10.111  23.116  0.00  0.00    +0.000 OA
ATOM      8  C   UNL     1      -1.897  12.703  23.221  0.00  0.00    +0.000 C 
ENDROOT
BRANCH   1  15
ATOM      9  C   UNL     1      -5.294  12.652  22.061  0.00  0.00    +0.000 A 
ATOM     10  C   UNL     1      -6.186  12.178  21.071  0.00  0.00    +0.000 A 
ATOM     11  C   UNL     1      -5.771  12.083  19.751  0.00  0.00    +0.000 A 
ATOM     12 CL   UNL     1      -6.871  11.638  18.513  0.00  0.00    +0.000 Cl
ATOM     13  C   UNL     1      -4.467  12.408  19.461  0.00  0.00    +0.000 A 
ATOM     14  N   UNL     1      -3.573  12.816  20.397  0.00  0.00    +0.000 NA
ATOM     15  C   UNL     1      -3.981  12.991  21.692  0.00  0.00    +0.000 A 
BRANCH   9  17
ATOM     16  C   UNL     1      -7.734  12.524  23.558  0.00  0.00    +0.000 C 
ATOM     17  S   UNL     1      -6.037  13.011  23.644  0.00  0.00    +0.000 S 
ATOM     18  O   UNL     1      -6.031  14.455  23.809  0.00  0.00    +0.000 OA
ATOM     19  O   UNL     1      -5.374  12.188  24.637  0.00  0.00    +0.000 OA
ENDBRANCH   9  17
ENDBRANCH   1  15
BRANCH   6  20
ATOM     20  C   UNL     1       0.495  10.255  21.388  0.00  0.00    +0.000 C 
ATOM     21  C   UNL     1       0.285  10.543  19.898  0.00  0.00    +0.000 C 
ATOM     22  C   UNL     1       1.268   9.754  19.040  0.00  0.00    +0.000 C 
ATOM     23  O   UNL     1       1.240   8.373  19.385  0.00  0.00    +0.000 OA
ATOM     24  C   UNL     1       1.706   8.149  20.714  0.00  0.00    +0.000 C 
ATOM     25  C   UNL     1       0.753   8.782  21.716  0.00  0.00    +0.000 C 
ENDBRANCH   6  20
TORSDOF 3
ENDMDL
MODEL 3
REMARK VINA RESULT:      -6.0      2.583      6.912
REMARK  Name = 
REMARK  4 active torsions:
REMARK  status: ('A' for Active; 'I' for Inactive)
REMARK    1  A    between atoms: C_1  and  S_2
REMARK    2  A    between atoms: S_2  and  C_5
REMARK    3  A    between atoms: C_11  and  C_12
REMARK    4  A    between atoms: C_17  and  C_19
REMARK                            x       y       z     vdW  Elec       q    Type
REMARK                         _______ _______ _______ _____ _____    ______ ____
ROOT
ATOM      1  C   UNL     1      -1.195  12.971  21.123  0.00  0.00    +0.000 C 
ATOM      2  C   UNL     1      -0.951  12.063  22.354  0.00  0.00    +0.000 C 
ATOM      3  C   UNL     1      -2.226  11.632  23.086  0.00  0.00    +0.000 C 
ATOM      4  C   UNL     1      -3.227  12.763  23.311  0.00  0.00    +0.000 C 
ATOM      5  N   UNL     1      -3.425  13.583  22.118  0.00  0.00    +0.000 N 
ATOM      6  C   UNL     1      -4.613  14.173  21.704  0.00  0.00    +0.000 C 
ATOM      7  O   UNL     1      -4.605  15.061  20.840  0.00  0.00    +0.000 OA
ATOM      8  C   UNL     1      -2.178  14.079  21.532  0.00  0.00    +0.000 C 
ENDROOT
BRANCH   1  15
ATOM      9  C   UNL     1      -0.682  11.392  19.092  0.00  0.00    +0.000 A 
ATOM     10  C   UNL     1      -1.208  10.639  18.016  0.00  0.00    +0.000 A 
ATOM     11  C   UNL     1      -2.565  10.685  17.733  0.00  0.00    +0.000 A 
ATOM     12 CL   UNL     1      -3.246   9.683  16.520  0.00  0.00    +0.000 Cl
ATOM     13  C   UNL     1      -3.352  11.519  18.492  0.00  0.00    +0.000 A 
ATOM     14  N   UNL     1      -2.870  12.291  19.498  0.00  0.00    +0.000 NA
ATOM     15  C   UNL     1      -1.548  12.205  19.845  0.00  0.00    +0.000 A 
BRANCH   9  17
ATOM     16  C   UNL     1       1.722  10.128  18.181  0.00  0.00    +0.000 C 
ATOM     17  S   UNL     1       1.005  11.011  19.534  0.00  0.00    +0.000 S 
ATOM     18  O   UNL     1       0.962  10.086  20.653  0.00  0.00    +0.000 OA
ATOM     19  O   UNL     1       1.712  12.268  19.687  0.00  0.00    +0.000 OA
ENDBRANCH   9  17
ENDBRANCH   1  15
BRANCH   6  20
ATOM     20  C   UNL     1      -5.980  13.717  22.227  0.00  0.00    +0.000 C 
ATOM     21  C   UNL     1      -6.187  13.845  23.740  0.00  0.00    +0.000 C 
ATOM     22  C   UNL     1      -7.508  13.220  24.171  0.00  0.00    +0.000 C 
ATOM     23  O   UNL     1      -7.624  11.892  23.670  0.00  0.00    +0.000 OA
ATOM     24  C   UNL     1      -7.696  11.869  22.246  0.00  0.00    +0.000 C 
ATOM     25  C   UNL     1      -6.386  12.358  21.648  0.00  0.00    +0.000 C 
ENDBRANCH   6  20
TORSDOF 3
ENDMDL
MODEL 4
REMARK VINA RESULT:      -5.9      0.989      1.145
REMARK  Name = 
REMARK  4 active torsions:
REMARK  status: ('A' for Active; 'I' for Inactive)
REMARK    1  A    between atoms: C_1  and  S_2
REMARK    2  A    between atoms: S_2  and  C_5
REMARK    3  A    between atoms: C_11  and  C_12
REMARK    4  A    between atoms: C_17  and  C_19
REMARK                            x       y       z     vdW  Elec       q    Type
REMARK                         _______ _______ _______ _____ _____    ______ ____
ROOT
ATOM      1  C   UNL     1      -1.438  12.474  20.866  0.00  0.00    +0.000 C 
ATOM      2  C   UNL     1      -0.381  13.518  20.429  0.00  0.00    +0.000 C 
ATOM      3  C   UNL     1       0.864  12.919  19.767  0.00  0.00    +0.000 C 
ATOM      4  C   UNL     1       1.428  11.698  20.490  0.00  0.00    +0.000 C 
ATOM      5  N   UNL     1       0.390  10.744  20.873  0.00  0.00    +0.000 N 
ATOM      6  C   UNL     1       0.501   9.359  20.886  0.00  0.00    +0.000 C 
ATOM      7  O   UNL     1      -0.337   8.669  21.484  0.00  0.00    +0.000 OA
ATOM      8  C   UNL     1      -0.715  11.346  21.620  0.00  0.00    +0.000 C 
ENDROOT
BRANCH   1  15
ATOM      9  C   UNL     1      -3.774  12.176  19.711  0.00  0.00    +0.000 A 
ATOM     10  C   UNL     1      -4.476  11.840  18.529  0.00  0.00    +0.000 A 
ATOM     11  C   UNL     1      -3.783  11.403  17.410  0.00  0.00    +0.000 A 
ATOM     12 CL   UNL     1      -4.597  11.117  15.928  0.00  0.00    +0.000 Cl
ATOM     13  C   UNL     1      -2.420  11.259  17.513  0.00  0.00    +0.000 A 
ATOM     14  N   UNL     1      -1.724  11.524  18.648  0.00  0.00    +0.000 NA
ATOM     15  C   UNL     1      -2.376  12.029  19.740  0.00  0.00    +0.000 A 
BRANCH   9  17
ATOM     16  C   UNL     1      -4.171  14.674  21.056  0.00  0.00    +0.000 C 
ATOM     17  S   UNL     1      -4.743  13.005  20.961  0.00  0.00    +0.000 S 
ATOM     18  O   UNL     1      -4.424  12.387  22.236  0.00  0.00    +0.000 OA
ATOM     19  O   UNL     1      -6.121  13.017  20.511  0.00  0.00    +0.000 OA
ENDBRANCH   9  17
ENDBRANCH   1  15
BRANCH   6  20
ATOM     20  C   UNL     1       1.601   8.617  20.118  0.00  0.00    +0.000 C 
ATOM     21  C   UNL     1       1.661   8.896  18.613  0.00  0.00    +0.000 C 
ATOM     22  C   UNL     1       2.678   7.994  17.925  0.00  0.00    +0.000 C 
ATOM     23  O   UNL     1       2.450   6.630  18.263  0.00  0.00    +0.000 OA
ATOM     24  C   UNL     1       2.674   6.384  19.650  0.00  0.00    +0.000 C 
ATOM     25  C   UNL     1       1.647   7.131  20.486  0.00  0.00    +0.000 C 
ENDBRANCH   6  20
TORSDOF 3
ENDMDL
MODEL 5
REMARK VINA RESULT:      -5.8      6.369     10.753
REMARK  Name = 
REMARK  4 active torsions:
REMARK  status: ('A' for Active; 'I' for Inactive)
REMARK    1  A    between atoms: C_1  and  S_2
REMARK    2  A    between atoms: S_2  and  C_5
REMARK    3  A    between atoms: C_11  and  C_12
REMARK    4  A    between atoms: C_17  and  C_19
REMARK                            x       y       z     vdW  Elec       q    Type
REMARK                         _______ _______ _______ _____ _____    ______ ____
ROOT
ATOM      1  C   UNL     1       4.476   3.241  17.686  0.00  0.00    +0.000 C 
ATOM      2  C   UNL     1       3.174   2.546  17.214  0.00  0.00    +0.000 C 
ATOM      3  C   UNL     1       1.967   3.481  17.089  0.00  0.00    +0.000 C 
ATOM      4  C   UNL     1       1.794   4.436  18.268  0.00  0.00    +0.000 C 
ATOM      5  N   UNL     1       3.049   5.068  18.667  0.00  0.00    +0.000 N 
ATOM      6  C   UNL     1       3.212   6.366  19.134  0.00  0.00    +0.000 C 
ATOM      7  O   UNL     1       4.264   6.703  19.696  0.00  0.00    +0.000 OA
ATOM      8  C   UNL     1       4.137   4.117  18.902  0.00  0.00    +0.000 C 
ENDROOT
BRANCH   1  15
ATOM      9  C   UNL     1       6.456   4.649  16.698  0.00  0.00    +0.000 A 
ATOM     10  C   UNL     1       7.121   5.101  15.534  0.00  0.00    +0.000 A 
ATOM     11  C   UNL     1       6.605   4.808  14.281  0.00  0.00    +0.000 A 
ATOM     12 CL   UNL     1       7.462   5.231  12.856  0.00  0.00    +0.000 Cl
ATOM     13  C   UNL     1       5.415   4.123  14.219  0.00  0.00    +0.000 A 
ATOM     14  N   UNL     1       4.727   3.720  15.317  0.00  0.00    +0.000 NA
ATOM     15  C   UNL     1       5.255   3.930  16.562  0.00  0.00    +0.000 A 
BRANCH   9  17
ATOM     16  C   UNL     1       7.806   6.534  18.380  0.00  0.00    +0.000 C 
ATOM     17  S   UNL     1       7.375   4.828  18.218  0.00  0.00    +0.000 S 
ATOM     18  O   UNL     1       8.622   4.101  18.058  0.00  0.00    +0.000 OA
ATOM     19  O   UNL     1       6.490   4.473  19.310  0.00  0.00    +0.000 OA
ENDBRANCH   9  17
ENDBRANCH   1  15
BRANCH   6  20
ATOM     20  C   UNL     1       2.153   7.454  18.921  0.00  0.00    +0.000 C 
ATOM     21  C   UNL     1       2.454   8.462  17.808  0.00  0.00    +0.000 C 
ATOM     22  C   UNL     1       1.423   9.585  17.787  0.00  0.00    +0.000 C 
ATOM     23  O   UNL     1       1.281  10.161  19.081  0.00  0.00    +0.000 OA
ATOM     24  C   UNL     1       0.739   9.231  20.017  0.00  0.00    +0.000 C 
ATOM     25  C   UNL     1       1.716   8.088  20.245  0.00  0.00    +0.000 C 
ENDBRANCH   6  20
TORSDOF 3
ENDMDL
MODEL 6
REMARK VINA RESULT:      -5.8      3.084      7.093
REMARK  Name = 
REMARK  4 active torsions:
REMARK  status: ('A' for Active; 'I' for Inactive)
REMARK    1  A    between atoms: C_1  and  S_2
REMARK    2  A    between atoms: S_2  and  C_5
REMARK    3  A    between atoms: C_11  and  C_12
REMARK    4  A    between atoms: C_17  and  C_19
REMARK                            x       y       z     vdW  Elec       q    Type
REMARK                         _______ _______ _______ _____ _____    ______ ____
ROOT
ATOM      1  C   UNL     1      -1.361  13.515  21.515  0.00  0.00    +0.000 C 
ATOM      2  C   UNL     1      -1.152  12.641  22.777  0.00  0.00    +0.000 C 
ATOM      3  C   UNL     1      -2.449  12.194  23.459  0.00  0.00    +0.000 C 
ATOM      4  C   UNL     1      -3.487  13.303  23.611  0.00  0.00    +0.000 C 
ATOM      5  N   UNL     1      -3.649  14.091  22.391  0.00  0.00    +0.000 N 
ATOM      6  C   UNL     1      -4.830  14.641  21.909  0.00  0.00    +0.000 C 
ATOM      7  O   UNL     1      -4.803  15.510  21.026  0.00  0.00    +0.000 OA
ATOM      8  C   UNL     1      -2.388  14.606  21.853  0.00  0.00    +0.000 C 
ENDROOT
BRANCH   1  15
ATOM      9  C   UNL     1      -0.676  12.069  19.436  0.00  0.00    +0.000 A 
ATOM     10  C   UNL     1      -1.113  11.248  18.370  0.00  0.00    +0.000 A 
ATOM     11  C   UNL     1      -2.469  11.060  18.148  0.00  0.00    +0.000 A 
ATOM     12 CL   UNL     1      -3.021   9.967  16.948  0.00  0.00    +0.000 Cl
ATOM     13  C   UNL     1      -3.353  11.736  18.956  0.00  0.00    +0.000 A 
ATOM     14  N   UNL     1      -2.965  12.571  19.953  0.00  0.00    +0.000 NA
ATOM     15  C   UNL     1      -1.634  12.712  20.240  0.00  0.00    +0.000 A 
BRANCH   9  17
ATOM     16  C   UNL     1       1.670  13.642  19.915  0.00  0.00    +0.000 C 
ATOM     17  S   UNL     1       1.070  11.984  19.796  0.00  0.00    +0.000 S 
ATOM     18  O   UNL     1       1.722  11.391  18.641  0.00  0.00    +0.000 OA
ATOM     19  O   UNL     1       1.220  11.347  21.090  0.00  0.00    +0.000 OA
ENDBRANCH   9  17
ENDBRANCH   1  15
BRANCH   6  20
ATOM     20  C   UNL     1      -6.209  14.162  22.379  0.00  0.00    +0.000 C 
ATOM     21  C   UNL     1      -6.607  14.579  23.798  0.00  0.00    +0.000 C 
ATOM     22  C   UNL     1      -7.915  13.922  24.220  0.00  0.00    +0.000 C 
ATOM     23  O   UNL     1      -7.861  12.514  24.013  0.00  0.00    +0.000 OA
ATOM     24  C   UNL     1      -7.757  12.187  22.629  0.00  0.00    +0.000 C 
ATOM     25  C   UNL     1      -6.429  12.678  22.073  0.00  0.00    +0.000 C 
ENDBRANCH   6  20
TORSDOF 3
ENDMDL
MODEL 7
REMARK VINA RESULT:      -5.7      1.476      1.659
REMARK  Name = 
REMARK  4 active torsions:
REMARK  status: ('A' for Active; 'I' for Inactive)
REMARK    1  A    between atoms: C_1  and  S_2
REMARK    2  A    between atoms: S_2  and  C_5
REMARK    3  A    between atoms: C_11  and  C_12
REMARK    4  A    between atoms: C_17  and  C_19
REMARK                            x       y       z     vdW  Elec       q    Type
REMARK                         _______ _______ _______ _____ _____    ______ ____
ROOT
ATOM      1  C   UNL     1      -1.875  12.378  19.918  0.00  0.00    +0.000 C 
ATOM      2  C   UNL     1      -0.860  13.468  19.490  0.00  0.00    +0.000 C 
ATOM      3  C   UNL     1       0.495  12.924  19.026  0.00  0.00    +0.000 C 
ATOM      4  C   UNL     1       1.068  11.832  19.925  0.00  0.00    +0.000 C 
ATOM      5  N   UNL     1       0.072  10.828  20.293  0.00  0.00    +0.000 N 
ATOM      6  C   UNL     1       0.290   9.465  20.459  0.00  0.00    +0.000 C 
ATOM      7  O   UNL     1      -0.554   8.761  21.033  0.00  0.00    +0.000 OA
ATOM      8  C   UNL     1      -1.155  11.395  20.855  0.00  0.00    +0.000 C 
ENDROOT
BRANCH   1  15
ATOM      9  C   UNL     1      -4.038  11.693  18.603  0.00  0.00    +0.000 A 
ATOM     10  C   UNL     1      -4.582  11.202  17.392  0.00  0.00    +0.000 A 
ATOM     11  C   UNL     1      -3.741  10.813  16.361  0.00  0.00    +0.000 A 
ATOM     12 CL   UNL     1      -4.376  10.340  14.839  0.00  0.00    +0.000 Cl
ATOM     13  C   UNL     1      -2.385  10.870  16.579  0.00  0.00    +0.000 A 
ATOM     14  N   UNL     1      -1.834  11.288  17.747  0.00  0.00    +0.000 NA
ATOM     15  C   UNL     1      -2.641  11.749  18.751  0.00  0.00    +0.000 A 
BRANCH   9  17
ATOM     16  C   UNL     1      -6.815  11.814  19.296  0.00  0.00    +0.000 C 
ATOM     17  S   UNL     1      -5.216  12.436  19.719  0.00  0.00    +0.000 S 
ATOM     18  O   UNL     1      -5.240  13.861  19.438  0.00  0.00    +0.000 OA
ATOM     19  O   UNL     1      -4.891  11.990  21.061  0.00  0.00    +0.000 OA
ENDBRANCH   9  17
ENDBRANCH   1  15
BRANCH   6  20
ATOM     20  C   UNL     1       1.525   8.757  19.890  0.00  0.00    +0.000 C 
ATOM     21  C   UNL     1       1.733   8.900  18.380  0.00  0.00    +0.000 C 
ATOM     22  C   UNL     1       2.889   8.032  17.897  0.00  0.00    +0.000 C 
ATOM     23  O   UNL     1       2.732   6.690  18.346  0.00  0.00    +0.000 OA
ATOM     24  C   UNL     1       2.816   6.595  19.767  0.00  0.00    +0.000 C 
ATOM     25  C   UNL     1       1.646   7.321  20.411  0.00  0.00    +0.000 C 
ENDBRANCH   6  20
TORSDOF 3
ENDMDL
MODEL 8
REMARK VINA RESULT:      -5.7      8.897     12.020
REMARK  Name = 
REMARK  4 active torsions:
REMARK  status: ('A' for Active; 'I' for Inactive)
REMARK    1  A    between atoms: C_1  and  S_2
REMARK    2  A    between atoms: S_2  and  C_5
REMARK    3  A    between atoms: C_11  and  C_12
REMARK    4  A    between atoms: C_17  and  C_19
REMARK                            x       y       z     vdW  Elec       q    Type
REMARK                         _______ _______ _______ _____ _____    ______ ____
ROOT
ATOM      1  C   UNL     1       9.244  14.962  18.724  0.00  0.00    +0.000 C 
ATOM      2  C   UNL     1       9.719  16.382  19.120  0.00  0.00    +0.000 C 
ATOM      3  C   UNL     1       8.600  17.314  19.597  0.00  0.00    +0.000 C 
ATOM      4  C   UNL     1       7.345  17.276  18.728  0.00  0.00    +0.000 C 
ATOM      5  N   UNL     1       6.938  15.914  18.390  0.00  0.00    +0.000 N 
ATOM      6  C   UNL     1       5.636  15.445  18.262  0.00  0.00    +0.000 C 
ATOM      7  O   UNL     1       5.413  14.358  17.709  0.00  0.00    +0.000 OA
ATOM      8  C   UNL     1       8.013  15.104  17.814  0.00  0.00    +0.000 C 
ENDROOT
BRANCH   1  15
ATOM      9  C   UNL     1      10.008  13.015  20.308  0.00  0.00    +0.000 A 
ATOM     10  C   UNL     1       9.778  12.312  21.514  0.00  0.00    +0.000 A 
ATOM     11  C   UNL     1       8.678  12.620  22.300  0.00  0.00    +0.000 A 
ATOM     12 CL   UNL     1       8.451  11.874  23.827  0.00  0.00    +0.000 Cl
ATOM     13  C   UNL     1       7.808  13.580  21.840  0.00  0.00    +0.000 A 
ATOM     14  N   UNL     1       7.973  14.236  20.664  0.00  0.00    +0.000 NA
ATOM     15  C   UNL     1       9.091  14.004  19.909  0.00  0.00    +0.000 A 
BRANCH   9  17
ATOM     16  C   UNL     1      11.320  12.241  17.882  0.00  0.00    +0.000 C 
ATOM     17  S   UNL     1      11.602  12.735  19.556  0.00  0.00    +0.000 S 
ATOM     18  O   UNL     1      12.204  11.596  20.226  0.00  0.00    +0.000 OA
ATOM     19  O   UNL     1      12.311  14.000  19.547  0.00  0.00    +0.000 OA
ENDBRANCH   9  17
ENDBRANCH   1  15
BRANCH   6  20
ATOM     20  C   UNL     1       4.434  16.193  18.849  0.00  0.00    +0.000 C 
ATOM     21  C   UNL     1       3.965  15.716  20.227  0.00  0.00    +0.000 C 
ATOM     22  C   UNL     1       2.675  16.414  20.643  0.00  0.00    +0.000 C 
ATOM     23  O   UNL     1       1.693  16.310  19.618  0.00  0.00    +0.000 OA
ATOM     24  C   UNL     1       2.084  17.011  18.439  0.00  0.00    +0.000 C 
ATOM     25  C   UNL     1       3.309  16.356  17.821  0.00  0.00    +0.000 C 
ENDBRANCH   6  20
TORSDOF 3
ENDMDL
MODEL 9
REMARK VINA RESULT:      -5.5      2.569      3.663
REMARK  Name = 
REMARK  4 active torsions:
REMARK  status: ('A' for Active; 'I' for Inactive)
REMARK    1  A    between atoms: C_1  and  S_2
REMARK    2  A    between atoms: S_2  and  C_5
REMARK    3  A    between atoms: C_11  and  C_12
REMARK    4  A    between atoms: C_17  and  C_19
REMARK                            x       y       z     vdW  Elec       q    Type
REMARK                         _______ _______ _______ _____ _____    ______ ____
ROOT
ATOM      1  C   UNL     1      -3.204  12.116  18.262  0.00  0.00    +0.000 C 
ATOM      2  C   UNL     1      -3.828  10.797  17.740  0.00  0.00    +0.000 C 
ATOM      3  C   UNL     1      -2.983   9.548  18.008  0.00  0.00    +0.000 C 
ATOM      4  C   UNL     1      -1.498   9.723  17.698  0.00  0.00    +0.000 C 
ATOM      5  N   UNL     1      -0.960  10.978  18.217  0.00  0.00    +0.000 N 
ATOM      6  C   UNL     1       0.312  11.183  18.737  0.00  0.00    +0.000 C 
ATOM      7  O   UNL     1       0.749  12.332  18.891  0.00  0.00    +0.000 OA
ATOM      8  C   UNL     1      -1.732  12.157  17.821  0.00  0.00    +0.000 C 
ENDROOT
BRANCH   1  15
ATOM      9  C   UNL     1      -4.713  12.634  20.344  0.00  0.00    +0.000 A 
ATOM     10  C   UNL     1      -4.796  12.718  21.754  0.00  0.00    +0.000 A 
ATOM     11  C   UNL     1      -3.663  12.523  22.529  0.00  0.00    +0.000 A 
ATOM     12 CL   UNL     1      -3.763  12.488  24.241  0.00  0.00    +0.000 Cl
ATOM     13  C   UNL     1      -2.470  12.305  21.882  0.00  0.00    +0.000 A 
ATOM     14  N   UNL     1      -2.348  12.270  20.531  0.00  0.00    +0.000 NA
ATOM     15  C   UNL     1      -3.465  12.383  19.747  0.00  0.00    +0.000 A 
BRANCH   9  17
ATOM     16  C   UNL     1      -7.487  13.311  20.570  0.00  0.00    +0.000 C 
ATOM     17  S   UNL     1      -6.280  12.603  19.491  0.00  0.00    +0.000 S 
ATOM     18  O   UNL     1      -6.651  11.209  19.316  0.00  0.00    +0.000 OA
ATOM     19  O   UNL     1      -6.159  13.449  18.319  0.00  0.00    +0.000 OA
ENDBRANCH   9  17
ENDBRANCH   1  15
BRANCH   6  20
ATOM     20  C   UNL     1       1.201  10.026  19.211  0.00  0.00    +0.000 C 
ATOM     21  C   UNL     1       1.668   9.060  18.117  0.00  0.00    +0.000 C 
ATOM     22  C   UNL     1       2.406   7.867  18.714  0.00  0.00    +0.000 C 
ATOM     23  O   UNL     1       1.633   7.262  19.745  0.00  0.00    +0.000 OA
ATOM     24  C   UNL     1       1.461   8.136  20.859  0.00  0.00    +0.000 C 
ATOM     25  C   UNL     1       0.627   9.342  20.455  0.00  0.00    +0.000 C 
ENDBRANCH   6  20
TORSDOF 3
ENDMDL
