MODEL 1
REMARK VINA RESULT:      -8.0      0.000      0.000
REMARK  Name = 
REMARK  1 active torsions:
REMARK  status: ('A' for Active; 'I' for Inactive)
REMARK    1  A    between atoms: C_1  and  C_2
REMARK                            x       y       z     vdW  Elec       q    Type
REMARK                         _______ _______ _______ _____ _____    ______ ____
ROOT
ATOM      1  C   UNL     1       3.703   1.625  18.008  0.00  0.00    +0.000 C 
ATOM      2  C   UNL     1       3.795   3.073  17.592  0.00  0.00    +0.000 A 
ATOM      3  C   UNL     1       4.877   3.450  16.775  0.00  0.00    +0.000 A 
ATOM      4  C   UNL     1       5.076   4.791  16.447  0.00  0.00    +0.000 A 
ATOM      5 BR   UNL     1       6.514   5.274  15.317  0.00  0.00    +0.000 Br
ATOM      6  C   UNL     1       4.274   5.772  17.007  0.00  0.00    +0.000 A 
ATOM      7  C   UNL     1       3.233   5.407  17.883  0.00  0.00    +0.000 A 
ATOM      8  C   UNL     1       2.905   4.056  18.086  0.00  0.00    +0.000 A 
ATOM      9  C   UNL     1       1.578   3.630  18.662  0.00  0.00    +0.000 C 
ATOM     10  O   UNL     1       0.962   2.740  18.070  0.00  0.00    +0.000 OA
ATOM     11  N   UNL     1       1.102   4.153  19.877  0.00  0.00    +0.000 N 
ATOM     12  C   UNL     1       0.722   3.121  20.817  0.00  0.00    +0.000 C 
ATOM     13  C   UNL     1       2.081   2.837  21.492  0.00  0.00    +0.000 C 
ATOM     14  C   UNL     1       2.899   4.157  21.302  0.00  0.00    +0.000 C 
ATOM     15  C   UNL     1       1.860   5.080  20.665  0.00  0.00    +0.000 C 
ATOM     16  C   UNL     1       2.107   6.314  19.916  0.00  0.00    +0.000 A 
ATOM     17  C   UNL     1       1.706   7.604  20.199  0.00  0.00    +0.000 A 
ATOM     18  N   UNL     1       2.077   8.442  19.197  0.00  0.00    +0.000 NA
ATOM     19  N   UNL     1       2.701   7.718  18.280  0.00  0.00    +0.000 NA
ATOM     20  N   UNL     1       2.650   6.417  18.656  0.00  0.00    +0.000 N 
ENDROOT
TORSDOF 0
ENDMDL
MODEL 2
REMARK VINA RESULT:      -8.0      2.790      4.460
REMARK  Name = 
REMARK  1 active torsions:
REMARK  status: ('A' for Active; 'I' for Inactive)
REMARK    1  A    between atoms: C_1  and  C_2
REMARK                            x       y       z     vdW  Elec       q    Type
REMARK                         _______ _______ _______ _____ _____    ______ ____
ROOT
ATOM      1  C   UNL     1       1.654   5.389  20.629  0.00  0.00    +0.000 C 
ATOM      2  C   UNL     1       2.390   6.219  19.605  0.00  0.00    +0.000 A 
ATOM      3  C   UNL     1       1.908   7.515  19.346  0.00  0.00    +0.000 A 
ATOM      4  C   UNL     1       2.479   8.287  18.335  0.00  0.00    +0.000 A 
ATOM      5 BR   UNL     1       1.844  10.042  18.026  0.00  0.00    +0.000 Br
ATOM      6  C   UNL     1       3.452   7.746  17.509  0.00  0.00    +0.000 A 
ATOM      7  C   UNL     1       3.887   6.423  17.717  0.00  0.00    +0.000 A 
ATOM      8  C   UNL     1       3.455   5.692  18.836  0.00  0.00    +0.000 A 
ATOM      9  C   UNL     1       4.186   4.467  19.325  0.00  0.00    +0.000 C 
ATOM     10  O   UNL     1       4.442   4.403  20.531  0.00  0.00    +0.000 OA
ATOM     11  N   UNL     1       4.480   3.394  18.467  0.00  0.00    +0.000 N 
ATOM     12  C   UNL     1       4.029   2.122  18.989  0.00  0.00    +0.000 C 
ATOM     13  C   UNL     1       2.571   2.106  18.482  0.00  0.00    +0.000 C 
ATOM     14  C   UNL     1       2.579   3.044  17.231  0.00  0.00    +0.000 C 
ATOM     15  C   UNL     1       4.066   3.372  17.094  0.00  0.00    +0.000 C 
ATOM     16  C   UNL     1       4.667   4.485  16.354  0.00  0.00    +0.000 A 
ATOM     17  C   UNL     1       5.535   4.455  15.282  0.00  0.00    +0.000 A 
ATOM     18  N   UNL     1       5.917   5.714  14.951  0.00  0.00    +0.000 NA
ATOM     19  N   UNL     1       5.319   6.547  15.789  0.00  0.00    +0.000 NA
ATOM     20  N   UNL     1       4.630   5.816  16.699  0.00  0.00    +0.000 N 
ENDROOT
TORSDOF 0
ENDMDL
MODEL 3
REMARK VINA RESULT:      -7.4      2.665      4.371
REMARK  Name = 
REMARK  1 active torsions:
REMARK  status: ('A' for Active; 'I' for Inactive)
REMARK    1  A    between atoms: C_1  and  C_2
REMARK                            x       y       z     vdW  Elec       q    Type
REMARK                         _______ _______ _______ _____ _____    ______ ____
ROOT
ATOM      1  C   UNL     1       1.210   3.737  21.018  0.00  0.00    +0.000 C 
ATOM      2  C   UNL     1       1.893   4.972  20.482  0.00  0.00    +0.000 A 
ATOM      3  C   UNL     1       1.310   6.218  20.775  0.00  0.00    +0.000 A 
ATOM      4  C   UNL     1       1.833   7.386  20.218  0.00  0.00    +0.000 A 
ATOM      5 BR   UNL     1       1.061   9.057  20.652  0.00  0.00    +0.000 Br
ATOM      6  C   UNL     1       2.862   7.316  19.291  0.00  0.00    +0.000 A 
ATOM      7  C   UNL     1       3.401   6.064  18.940  0.00  0.00    +0.000 A 
ATOM      8  C   UNL     1       3.011   4.897  19.618  0.00  0.00    +0.000 A 
ATOM      9  C   UNL     1       3.833   3.633  19.578  0.00  0.00    +0.000 C 
ATOM     10  O   UNL     1       4.071   3.077  20.653  0.00  0.00    +0.000 OA
ATOM     11  N   UNL     1       4.229   3.052  18.361  0.00  0.00    +0.000 N 
ATOM     12  C   UNL     1       3.876   1.652  18.269  0.00  0.00    +0.000 C 
ATOM     13  C   UNL     1       2.434   1.757  17.729  0.00  0.00    +0.000 C 
ATOM     14  C   UNL     1       2.386   3.138  16.998  0.00  0.00    +0.000 C 
ATOM     15  C   UNL     1       3.843   3.592  17.090  0.00  0.00    +0.000 C 
ATOM     16  C   UNL     1       4.363   4.951  16.925  0.00  0.00    +0.000 A 
ATOM     17  C   UNL     1       5.249   5.441  15.987  0.00  0.00    +0.000 A 
ATOM     18  N   UNL     1       5.532   6.744  16.243  0.00  0.00    +0.000 NA
ATOM     19  N   UNL     1       4.852   7.096  17.324  0.00  0.00    +0.000 NA
ATOM     20  N   UNL     1       4.210   6.002  17.800  0.00  0.00    +0.000 N 
ENDROOT
TORSDOF 0
ENDMDL
MODEL 4
REMARK VINA RESULT:      -6.4      3.008      4.983
REMARK  Name = 
REMARK  1 active torsions:
REMARK  status: ('A' for Active; 'I' for Inactive)
REMARK    1  A    between atoms: C_1  and  C_2
REMARK                            x       y       z     vdW  Elec       q    Type
REMARK                         _______ _______ _______ _____ _____    ______ ____
ROOT
ATOM      1  C   UNL     1       3.197   7.619  17.400  0.00  0.00    +0.000 C 
ATOM      2  C   UNL     1       2.534   7.076  18.642  0.00  0.00    +0.000 A 
ATOM      3  C   UNL     1       1.990   8.003  19.550  0.00  0.00    +0.000 A 
ATOM      4  C   UNL     1       1.461   7.568  20.766  0.00  0.00    +0.000 A 
ATOM      5 BR   UNL     1       0.700   8.824  21.957  0.00  0.00    +0.000 Br
ATOM      6  C   UNL     1       1.563   6.235  21.134  0.00  0.00    +0.000 A 
ATOM      7  C   UNL     1       2.172   5.315  20.259  0.00  0.00    +0.000 A 
ATOM      8  C   UNL     1       2.549   5.697  18.961  0.00  0.00    +0.000 A 
ATOM      9  C   UNL     1       2.809   4.688  17.871  0.00  0.00    +0.000 C 
ATOM     10  O   UNL     1       2.266   4.879  16.780  0.00  0.00    +0.000 OA
ATOM     11  N   UNL     1       3.709   3.624  18.053  0.00  0.00    +0.000 N 
ATOM     12  C   UNL     1       4.699   3.545  17.000  0.00  0.00    +0.000 C 
ATOM     13  C   UNL     1       5.768   4.519  17.541  0.00  0.00    +0.000 C 
ATOM     14  C   UNL     1       5.544   4.530  19.089  0.00  0.00    +0.000 C 
ATOM     15  C   UNL     1       4.469   3.457  19.258  0.00  0.00    +0.000 C 
ATOM     16  C   UNL     1       3.581   3.261  20.406  0.00  0.00    +0.000 A 
ATOM     17  C   UNL     1       3.469   2.175  21.250  0.00  0.00    +0.000 A 
ATOM     18  N   UNL     1       2.460   2.370  22.136  0.00  0.00    +0.000 NA
ATOM     19  N   UNL     1       1.921   3.552  21.876  0.00  0.00    +0.000 NA
ATOM     20  N   UNL     1       2.527   4.065  20.777  0.00  0.00    +0.000 N 
ENDROOT
TORSDOF 0
ENDMDL
MODEL 5
REMARK VINA RESULT:      -6.0      8.135     10.398
REMARK  Name = 
REMARK  1 active torsions:
REMARK  status: ('A' for Active; 'I' for Inactive)
REMARK    1  A    between atoms: C_1  and  C_2
REMARK                            x       y       z     vdW  Elec       q    Type
REMARK                         _______ _______ _______ _____ _____    ______ ____
ROOT
ATOM      1  C   UNL     1      -1.926  12.902  22.485  0.00  0.00    +0.000 C 
ATOM      2  C   UNL     1      -3.003  12.774  21.435  0.00  0.00    +0.000 A 
ATOM      3  C   UNL     1      -4.337  12.700  21.874  0.00  0.00    +0.000 A 
ATOM      4  C   UNL     1      -5.366  12.472  20.959  0.00  0.00    +0.000 A 
ATOM      5 BR   UNL     1      -7.157  12.413  21.562  0.00  0.00    +0.000 Br
ATOM      6  C   UNL     1      -5.072  12.214  19.629  0.00  0.00    +0.000 A 
ATOM      7  C   UNL     1      -3.731  12.215  19.198  0.00  0.00    +0.000 A 
ATOM      8  C   UNL     1      -2.699  12.615  20.062  0.00  0.00    +0.000 A 
ATOM      9  C   UNL     1      -1.341  13.029  19.552  0.00  0.00    +0.000 C 
ATOM     10  O   UNL     1      -0.868  14.082  19.987  0.00  0.00    +0.000 OA
ATOM     11  N   UNL     1      -0.595  12.204  18.692  0.00  0.00    +0.000 N 
ATOM     12  C   UNL     1       0.750  11.969  19.171  0.00  0.00    +0.000 C 
ATOM     13  C   UNL     1       0.514  10.758  20.100  0.00  0.00    +0.000 C 
ATOM     14  C   UNL     1      -0.783  10.083  19.544  0.00  0.00    +0.000 C 
ATOM     15  C   UNL     1      -1.051  10.907  18.285  0.00  0.00    +0.000 C 
ATOM     16  C   UNL     1      -2.308  11.010  17.540  0.00  0.00    +0.000 A 
ATOM     17  C   UNL     1      -2.584  10.658  16.235  0.00  0.00    +0.000 A 
ATOM     18  N   UNL     1      -3.858  10.999  15.915  0.00  0.00    +0.000 NA
ATOM     19  N   UNL     1      -4.401  11.565  16.982  0.00  0.00    +0.000 NA
ATOM     20  N   UNL     1      -3.452  11.661  17.945  0.00  0.00    +0.000 N 
ENDROOT
TORSDOF 0
ENDMDL
MODEL 6
REMARK VINA RESULT:      -6.0     11.243     12.966
REMARK  Name = 
REMARK  1 active torsions:
REMARK  status: ('A' for Active; 'I' for Inactive)
REMARK    1  A    between atoms: C_1  and  C_2
REMARK                            x       y       z     vdW  Elec       q    Type
REMARK                         _______ _______ _______ _____ _____    ______ ____
ROOT
ATOM      1  C   UNL     1       8.984  12.131  21.901  0.00  0.00    +0.000 C 
ATOM      2  C   UNL     1       9.675  13.465  21.751  0.00  0.00    +0.000 A 
ATOM      3  C   UNL     1       9.385  14.461  22.702  0.00  0.00    +0.000 A 
ATOM      4  C   UNL     1       9.909  15.745  22.555  0.00  0.00    +0.000 A 
ATOM      5 BR   UNL     1       9.539  17.061  23.863  0.00  0.00    +0.000 Br
ATOM      6  C   UNL     1      10.630  16.079  21.419  0.00  0.00    +0.000 A 
ATOM      7  C   UNL     1      10.862  15.105  20.429  0.00  0.00    +0.000 A 
ATOM      8  C   UNL     1      10.498  13.765  20.639  0.00  0.00    +0.000 A 
ATOM      9  C   UNL     1      11.080  12.637  19.824  0.00  0.00    +0.000 C 
ATOM     10  O   UNL     1      11.511  11.657  20.437  0.00  0.00    +0.000 OA
ATOM     11  N   UNL     1      11.045  12.652  18.419  0.00  0.00    +0.000 N 
ATOM     12  C   UNL     1      10.476  11.444  17.862  0.00  0.00    +0.000 C 
ATOM     13  C   UNL     1       8.974  11.801  17.885  0.00  0.00    +0.000 C 
ATOM     14  C   UNL     1       8.939  13.364  17.853  0.00  0.00    +0.000 C 
ATOM     15  C   UNL     1      10.419  13.707  17.676  0.00  0.00    +0.000 C 
ATOM     16  C   UNL     1      11.073  14.989  17.946  0.00  0.00    +0.000 A 
ATOM     17  C   UNL     1      11.739  15.831  17.079  0.00  0.00    +0.000 A 
ATOM     18  N   UNL     1      12.271  16.879  17.757  0.00  0.00    +0.000 NA
ATOM     19  N   UNL     1      11.965  16.725  19.036  0.00  0.00    +0.000 NA
ATOM     20  N   UNL     1      11.318  15.543  19.181  0.00  0.00    +0.000 N 
ENDROOT
TORSDOF 0
ENDMDL
MODEL 7
REMARK VINA RESULT:      -5.9     11.159     12.880
REMARK  Name = 
REMARK  1 active torsions:
REMARK  status: ('A' for Active; 'I' for Inactive)
REMARK    1  A    between atoms: C_1  and  C_2
REMARK                            x       y       z     vdW  Elec       q    Type
REMARK                         _______ _______ _______ _____ _____    ______ ____
ROOT
ATOM      1  C   UNL     1       9.410  10.830  20.466  0.00  0.00    +0.000 C 
ATOM      2  C   UNL     1       9.546  12.127  21.226  0.00  0.00    +0.000 A 
ATOM      3  C   UNL     1       8.653  12.357  22.289  0.00  0.00    +0.000 A 
ATOM      4  C   UNL     1       8.658  13.581  22.958  0.00  0.00    +0.000 A 
ATOM      5 BR   UNL     1       7.477  13.859  24.408  0.00  0.00    +0.000 Br
ATOM      6  C   UNL     1       9.468  14.615  22.515  0.00  0.00    +0.000 A 
ATOM      7  C   UNL     1      10.313  14.414  21.406  0.00  0.00    +0.000 A 
ATOM      8  C   UNL     1      10.452  13.140  20.831  0.00  0.00    +0.000 A 
ATOM      9  C   UNL     1      11.618  12.784  19.943  0.00  0.00    +0.000 C 
ATOM     10  O   UNL     1      12.215  11.731  20.185  0.00  0.00    +0.000 OA
ATOM     11  N   UNL     1      11.955  13.563  18.823  0.00  0.00    +0.000 N 
ATOM     12  C   UNL     1      12.066  12.781  17.611  0.00  0.00    +0.000 C 
ATOM     13  C   UNL     1      10.596  12.774  17.141  0.00  0.00    +0.000 C 
ATOM     14  C   UNL     1       9.970  14.055  17.784  0.00  0.00    +0.000 C 
ATOM     15  C   UNL     1      11.192  14.711  18.428  0.00  0.00    +0.000 C 
ATOM     16  C   UNL     1      11.203  15.729  19.482  0.00  0.00    +0.000 A 
ATOM     17  C   UNL     1      11.697  17.016  19.449  0.00  0.00    +0.000 A 
ATOM     18  N   UNL     1      11.583  17.595  20.671  0.00  0.00    +0.000 NA
ATOM     19  N   UNL     1      11.032  16.707  21.485  0.00  0.00    +0.000 NA
ATOM     20  N   UNL     1      10.878  15.544  20.806  0.00  0.00    +0.000 N 
ENDROOT
TORSDOF 0
ENDMDL
MODEL 8
REMARK VINA RESULT:      -5.8      3.369      5.297
REMARK  Name = 
REMARK  1 active torsions:
REMARK  status: ('A' for Active; 'I' for Inactive)
REMARK    1  A    between atoms: C_1  and  C_2
REMARK                            x       y       z     vdW  Elec       q    Type
REMARK                         _______ _______ _______ _____ _____    ______ ____
ROOT
ATOM      1  C   UNL     1       8.442   5.481  14.320  0.00  0.00    +0.000 C 
ATOM      2  C   UNL     1       7.134   4.733  14.414  0.00  0.00    +0.000 A 
ATOM      3  C   UNL     1       6.524   4.331  13.212  0.00  0.00    +0.000 A 
ATOM      4  C   UNL     1       5.264   3.733  13.230  0.00  0.00    +0.000 A 
ATOM      5 BR   UNL     1       4.475   3.165  11.607  0.00  0.00    +0.000 Br
ATOM      6  C   UNL     1       4.559   3.626  14.419  0.00  0.00    +0.000 A 
ATOM      7  C   UNL     1       5.136   4.093  15.615  0.00  0.00    +0.000 A 
ATOM      8  C   UNL     1       6.469   4.534  15.647  0.00  0.00    +0.000 A 
ATOM      9  C   UNL     1       7.248   4.644  16.934  0.00  0.00    +0.000 C 
ATOM     10  O   UNL     1       8.376   4.146  16.959  0.00  0.00    +0.000 OA
ATOM     11  N   UNL     1       6.755   5.370  18.032  0.00  0.00    +0.000 N 
ATOM     12  C   UNL     1       7.702   6.344  18.529  0.00  0.00    +0.000 C 
ATOM     13  C   UNL     1       7.382   7.545  17.614  0.00  0.00    +0.000 C 
ATOM     14  C   UNL     1       5.902   7.314  17.164  0.00  0.00    +0.000 C 
ATOM     15  C   UNL     1       5.513   6.085  17.986  0.00  0.00    +0.000 C 
ATOM     16  C   UNL     1       4.396   5.169  17.741  0.00  0.00    +0.000 A 
ATOM     17  C   UNL     1       3.306   4.886  18.539  0.00  0.00    +0.000 A 
ATOM     18  N   UNL     1       2.550   3.912  17.972  0.00  0.00    +0.000 NA
ATOM     19  N   UNL     1       3.133   3.563  16.835  0.00  0.00    +0.000 NA
ATOM     20  N   UNL     1       4.296   4.249  16.723  0.00  0.00    +0.000 N 
ENDROOT
TORSDOF 0
ENDMDL
MODEL 9
REMARK VINA RESULT:      -5.7      1.748      2.419
REMARK  Name = 
REMARK  1 active torsions:
REMARK  status: ('A' for Active; 'I' for Inactive)
REMARK    1  A    between atoms: C_1  and  C_2
REMARK                            x       y       z     vdW  Elec       q    Type
REMARK                         _______ _______ _______ _____ _____    ______ ____
ROOT
ATOM      1  C   UNL     1       5.811   3.265  16.055  0.00  0.00    +0.000 C 
ATOM      2  C   UNL     1       5.431   4.576  16.700  0.00  0.00    +0.000 A 
ATOM      3  C   UNL     1       6.391   5.604  16.704  0.00  0.00    +0.000 A 
ATOM      4  C   UNL     1       6.138   6.798  17.379  0.00  0.00    +0.000 A 
ATOM      5 BR   UNL     1       7.425   8.184  17.341  0.00  0.00    +0.000 Br
ATOM      6  C   UNL     1       4.987   6.940  18.137  0.00  0.00    +0.000 A 
ATOM      7  C   UNL     1       4.055   5.886  18.195  0.00  0.00    +0.000 A 
ATOM      8  C   UNL     1       4.205   4.749  17.384  0.00  0.00    +0.000 A 
ATOM      9  C   UNL     1       3.059   3.809  17.100  0.00  0.00    +0.000 C 
ATOM     10  O   UNL     1       2.864   3.492  15.924  0.00  0.00    +0.000 OA
ATOM     11  N   UNL     1       2.303   3.236  18.137  0.00  0.00    +0.000 N 
ATOM     12  C   UNL     1       2.215   1.796  18.034  0.00  0.00    +0.000 C 
ATOM     13  C   UNL     1       3.506   1.377  18.768  0.00  0.00    +0.000 C 
ATOM     14  C   UNL     1       3.821   2.574  19.724  0.00  0.00    +0.000 C 
ATOM     15  C   UNL     1       2.598   3.468  19.521  0.00  0.00    +0.000 C 
ATOM     16  C   UNL     1       2.472   4.891  19.847  0.00  0.00    +0.000 A 
ATOM     17  C   UNL     1       1.614   5.514  20.730  0.00  0.00    +0.000 A 
ATOM     18  N   UNL     1       1.770   6.860  20.666  0.00  0.00    +0.000 NA
ATOM     19  N   UNL     1       2.703   7.113  19.760  0.00  0.00    +0.000 NA
ATOM     20  N   UNL     1       3.074   5.940  19.191  0.00  0.00    +0.000 N 
ENDROOT
TORSDOF 0
ENDMDL
