MODEL 1
REMARK VINA RESULT:      -8.2      0.000      0.000
REMARK  Name = 
REMARK  8 active torsions:
REMARK  status: ('A' for Active; 'I' for Inactive)
REMARK    1  A    between atoms: C_1  and  C_2
REMARK    2  A    between atoms: N_6  and  C_7
REMARK    3  A    between atoms: C_7  and  C_8
REMARK    4  A    between atoms: C_8  and  C_9
REMARK    5  A    between atoms: C_9  and  N_10
REMARK    6  A    between atoms: C_14  and  C_15
REMARK    7  A    between atoms: C_23  and  C_24
REMARK    8  A    between atoms: N_25  and  C_26
REMARK                            x       y       z     vdW  Elec       q    Type
REMARK                         _______ _______ _______ _____ _____    ______ ____
ROOT
ATOM      1  N   UNL     1       3.333   5.323  17.472  0.00  0.00    +0.000 N 
ATOM      2  C   UNL     1       4.484   4.908  16.895  0.00  0.00    +0.000 A 
ATOM      3  N   UNL     1       5.413   5.875  16.819  0.00  0.00    +0.000 NA
ATOM      4  C   UNL     1       4.831   6.959  17.355  0.00  0.00    +0.000 A 
ATOM      5  C   UNL     1       3.545   6.644  17.770  0.00  0.00    +0.000 A 
ENDROOT
BRANCH   5   6
ATOM      6  C   UNL     1       2.601   7.659  18.345  0.00  0.00    +0.000 A 
ATOM      7  C   UNL     1       2.179   8.800  17.651  0.00  0.00    +0.000 A 
ATOM      8  C   UNL     1       1.369   9.760  18.270  0.00  0.00    +0.000 A 
ATOM      9  C   UNL     1       0.957   9.621  19.616  0.00  0.00    +0.000 A 
ATOM     10  C   UNL     1       1.361   8.459  20.313  0.00  0.00    +0.000 A 
ATOM     11  C   UNL     1       2.147   7.487  19.672  0.00  0.00    +0.000 A 
ATOM     12  C   UNL     1       1.016   8.268  21.771  0.00  0.00    +0.000 C 
ATOM     13  C   UNL     1       0.664   9.596  22.447  0.00  0.00    +0.000 C 
ATOM     14  C   UNL     1      -0.397  10.325  21.624  0.00  0.00    +0.000 C 
ATOM     15  C   UNL     1      -0.895  11.547  22.424  0.00  0.00    +0.000 C 
ATOM     16  N   UNL     1       0.172  10.635  20.293  0.00  0.00    +0.000 N 
ATOM     17  C   UNL     1       0.054  11.957  19.677  0.00  0.00    +0.000 C 
ENDBRANCH   5   6
BRANCH   1  18
ATOM     18  C   UNL     1       2.149   4.437  17.584  0.00  0.00    +0.000 C 
BRANCH  18  19
ATOM     19  C   UNL     1       2.522   2.957  17.309  0.00  0.00    +0.000 C 
BRANCH  19  20
ATOM     20  C   UNL     1       1.917   1.966  18.327  0.00  0.00    +0.000 C 
BRANCH  20  26
ATOM     21  C   UNL     1       4.587   2.098  20.286  0.00  0.00    +0.000 C 
ATOM     22  C   UNL     1       3.151   2.398  20.602  0.00  0.00    +0.000 A 
ATOM     23  N   UNL     1       2.800   2.778  21.849  0.00  0.00    +0.000 NA
ATOM     24  C   UNL     1       1.471   2.952  21.802  0.00  0.00    +0.000 A 
ATOM     25  C   UNL     1       1.027   2.674  20.530  0.00  0.00    +0.000 A 
ATOM     26  N   UNL     1       2.084   2.323  19.759  0.00  0.00    +0.000 N 
ENDBRANCH  20  26
ENDBRANCH  19  20
ENDBRANCH  18  19
ENDBRANCH   1  18
TORSDOF 5
ENDMDL
MODEL 2
REMARK VINA RESULT:      -8.0      1.283      2.432
REMARK  Name = 
REMARK  8 active torsions:
REMARK  status: ('A' for Active; 'I' for Inactive)
REMARK    1  A    between atoms: C_1  and  C_2
REMARK    2  A    between atoms: N_6  and  C_7
REMARK    3  A    between atoms: C_7  and  C_8
REMARK    4  A    between atoms: C_8  and  C_9
REMARK    5  A    between atoms: C_9  and  N_10
REMARK    6  A    between atoms: C_14  and  C_15
REMARK    7  A    between atoms: C_23  and  C_24
REMARK    8  A    between atoms: N_25  and  C_26
REMARK                            x       y       z     vdW  Elec       q    Type
REMARK                         _______ _______ _______ _____ _____    ______ ____
ROOT
ATOM      1  N   UNL     1       4.420   4.689  16.566  0.00  0.00    +0.000 N 
ATOM      2  C   UNL     1       5.328   4.590  15.568  0.00  0.00    +0.000 A 
ATOM      3  N   UNL     1       5.921   5.760  15.277  0.00  0.00    +0.000 NA
ATOM      4  C   UNL     1       5.361   6.650  16.112  0.00  0.00    +0.000 A 
ATOM      5  C   UNL     1       4.431   6.013  16.922  0.00  0.00    +0.000 A 
ENDROOT
BRANCH   5   6
ATOM      6  C   UNL     1       3.577   6.745  17.915  0.00  0.00    +0.000 A 
ATOM      7  C   UNL     1       3.148   6.184  19.125  0.00  0.00    +0.000 A 
ATOM      8  C   UNL     1       2.278   6.881  19.972  0.00  0.00    +0.000 A 
ATOM      9  C   UNL     1       1.791   8.166  19.635  0.00  0.00    +0.000 A 
ATOM     10  C   UNL     1       2.240   8.745  18.426  0.00  0.00    +0.000 A 
ATOM     11  C   UNL     1       3.138   8.051  17.599  0.00  0.00    +0.000 A 
ATOM     12  C   UNL     1       1.717  10.085  17.966  0.00  0.00    +0.000 C 
ATOM     13  C   UNL     1       0.393  10.440  18.648  0.00  0.00    +0.000 C 
ATOM     14  C   UNL     1       0.542  10.292  20.162  0.00  0.00    +0.000 C 
ATOM     15  C   UNL     1      -0.722  10.859  20.843  0.00  0.00    +0.000 C 
ATOM     16  N   UNL     1       0.839   8.875  20.468  0.00  0.00    +0.000 N 
ATOM     17  C   UNL     1       0.140   8.136  21.519  0.00  0.00    +0.000 C 
ENDBRANCH   5   6
BRANCH   1  18
ATOM     18  C   UNL     1       3.594   3.534  16.992  0.00  0.00    +0.000 C 
BRANCH  18  19
ATOM     19  C   UNL     1       4.399   2.568  17.899  0.00  0.00    +0.000 C 
BRANCH  19  20
ATOM     20  C   UNL     1       3.512   1.666  18.785  0.00  0.00    +0.000 C 
BRANCH  20  26
ATOM     21  C   UNL     1       0.369   2.718  18.744  0.00  0.00    +0.000 C 
ATOM     22  C   UNL     1       1.395   2.809  19.835  0.00  0.00    +0.000 A 
ATOM     23  N   UNL     1       1.083   3.400  21.007  0.00  0.00    +0.000 NA
ATOM     24  C   UNL     1       2.201   3.331  21.745  0.00  0.00    +0.000 A 
ATOM     25  C   UNL     1       3.182   2.702  21.014  0.00  0.00    +0.000 A 
ATOM     26  N   UNL     1       2.683   2.365  19.801  0.00  0.00    +0.000 N 
ENDBRANCH  20  26
ENDBRANCH  19  20
ENDBRANCH  18  19
ENDBRANCH   1  18
TORSDOF 5
ENDMDL
MODEL 3
REMARK VINA RESULT:      -8.0      1.792      4.556
REMARK  Name = 
REMARK  8 active torsions:
REMARK  status: ('A' for Active; 'I' for Inactive)
REMARK    1  A    between atoms: C_1  and  C_2
REMARK    2  A    between atoms: N_6  and  C_7
REMARK    3  A    between atoms: C_7  and  C_8
REMARK    4  A    between atoms: C_8  and  C_9
REMARK    5  A    between atoms: C_9  and  N_10
REMARK    6  A    between atoms: C_14  and  C_15
REMARK    7  A    between atoms: C_23  and  C_24
REMARK    8  A    between atoms: N_25  and  C_26
REMARK                            x       y       z     vdW  Elec       q    Type
REMARK                         _______ _______ _______ _____ _____    ______ ____
ROOT
ATOM      1  N   UNL     1       3.664   3.782  19.928  0.00  0.00    +0.000 N 
ATOM      2  C   UNL     1       3.572   2.649  20.660  0.00  0.00    +0.000 A 
ATOM      3  N   UNL     1       2.511   2.639  21.485  0.00  0.00    +0.000 NA
ATOM      4  C   UNL     1       1.906   3.820  21.286  0.00  0.00    +0.000 A 
ATOM      5  C   UNL     1       2.597   4.545  20.325  0.00  0.00    +0.000 A 
ENDROOT
BRANCH   5   6
ATOM      6  C   UNL     1       2.218   5.942  19.928  0.00  0.00    +0.000 A 
ATOM      7  C   UNL     1       2.568   6.517  18.700  0.00  0.00    +0.000 A 
ATOM      8  C   UNL     1       2.265   7.855  18.420  0.00  0.00    +0.000 A 
ATOM      9  C   UNL     1       1.607   8.676  19.365  0.00  0.00    +0.000 A 
ATOM     10  C   UNL     1       1.231   8.094  20.597  0.00  0.00    +0.000 A 
ATOM     11  C   UNL     1       1.511   6.741  20.855  0.00  0.00    +0.000 A 
ATOM     12  C   UNL     1       0.582   8.921  21.681  0.00  0.00    +0.000 C 
ATOM     13  C   UNL     1       0.842  10.416  21.483  0.00  0.00    +0.000 C 
ATOM     14  C   UNL     1       0.468  10.817  20.057  0.00  0.00    +0.000 C 
ATOM     15  C   UNL     1       0.529  12.355  19.940  0.00  0.00    +0.000 C 
ATOM     16  N   UNL     1       1.344  10.081  19.117  0.00  0.00    +0.000 N 
ATOM     17  C   UNL     1       2.028  10.737  18.003  0.00  0.00    +0.000 C 
ENDBRANCH   5   6
BRANCH   1  18
ATOM     18  C   UNL     1       4.803   4.034  19.013  0.00  0.00    +0.000 C 
BRANCH  18  19
ATOM     19  C   UNL     1       4.540   3.435  17.607  0.00  0.00    +0.000 C 
BRANCH  19  20
ATOM     20  C   UNL     1       4.411   4.499  16.495  0.00  0.00    +0.000 C 
BRANCH  20  26
ATOM     21  C   UNL     1       7.181   6.186  17.174  0.00  0.00    +0.000 C 
ATOM     22  C   UNL     1       6.797   5.436  15.933  0.00  0.00    +0.000 A 
ATOM     23  N   UNL     1       7.641   5.396  14.881  0.00  0.00    +0.000 NA
ATOM     24  C   UNL     1       7.005   4.672  13.947  0.00  0.00    +0.000 A 
ATOM     25  C   UNL     1       5.781   4.282  14.440  0.00  0.00    +0.000 A 
ATOM     26  N   UNL     1       5.638   4.760  15.699  0.00  0.00    +0.000 N 
ENDBRANCH  20  26
ENDBRANCH  19  20
ENDBRANCH  18  19
ENDBRANCH   1  18
TORSDOF 5
ENDMDL
MODEL 4
REMARK VINA RESULT:      -8.0      1.821      4.598
REMARK  Name = 
REMARK  8 active torsions:
REMARK  status: ('A' for Active; 'I' for Inactive)
REMARK    1  A    between atoms: C_1  and  C_2
REMARK    2  A    between atoms: N_6  and  C_7
REMARK    3  A    between atoms: C_7  and  C_8
REMARK    4  A    between atoms: C_8  and  C_9
REMARK    5  A    between atoms: C_9  and  N_10
REMARK    6  A    between atoms: C_14  and  C_15
REMARK    7  A    between atoms: C_23  and  C_24
REMARK    8  A    between atoms: N_25  and  C_26
REMARK                            x       y       z     vdW  Elec       q    Type
REMARK                         _______ _______ _______ _____ _____    ______ ____
ROOT
ATOM      1  N   UNL     1       3.914   3.694  18.579  0.00  0.00    +0.000 N 
ATOM      2  C   UNL     1       3.698   2.588  17.832  0.00  0.00    +0.000 A 
ATOM      3  N   UNL     1       2.503   2.592  17.217  0.00  0.00    +0.000 NA
ATOM      4  C   UNL     1       1.922   3.740  17.598  0.00  0.00    +0.000 A 
ATOM      5  C   UNL     1       2.775   4.442  18.437  0.00  0.00    +0.000 A 
ENDROOT
BRANCH   5   6
ATOM      6  C   UNL     1       2.390   5.735  19.095  0.00  0.00    +0.000 A 
ATOM      7  C   UNL     1       2.022   5.835  20.443  0.00  0.00    +0.000 A 
ATOM      8  C   UNL     1       1.586   7.052  20.981  0.00  0.00    +0.000 A 
ATOM      9  C   UNL     1       1.490   8.218  20.186  0.00  0.00    +0.000 A 
ATOM     10  C   UNL     1       1.883   8.127  18.831  0.00  0.00    +0.000 A 
ATOM     11  C   UNL     1       2.350   6.909  18.310  0.00  0.00    +0.000 A 
ATOM     12  C   UNL     1       1.750   9.311  17.903  0.00  0.00    +0.000 C 
ATOM     13  C   UNL     1       0.753  10.341  18.440  0.00  0.00    +0.000 C 
ATOM     14  C   UNL     1       1.108  10.692  19.885  0.00  0.00    +0.000 C 
ATOM     15  C   UNL     1       0.235  11.882  20.336  0.00  0.00    +0.000 C 
ATOM     16  N   UNL     1       0.979   9.470  20.710  0.00  0.00    +0.000 N 
ATOM     17  C   UNL     1       0.273   9.459  21.991  0.00  0.00    +0.000 C 
ENDBRANCH   5   6
BRANCH   1  18
ATOM     18  C   UNL     1       5.136   3.856  19.403  0.00  0.00    +0.000 C 
BRANCH  18  19
ATOM     19  C   UNL     1       5.766   5.260  19.208  0.00  0.00    +0.000 C 
BRANCH  19  20
ATOM     20  C   UNL     1       6.955   5.274  18.224  0.00  0.00    +0.000 C 
BRANCH  20  26
ATOM     21  C   UNL     1       4.926   7.036  16.285  0.00  0.00    +0.000 C 
ATOM     22  C   UNL     1       5.793   5.860  15.945  0.00  0.00    +0.000 A 
ATOM     23  N   UNL     1       5.806   5.371  14.687  0.00  0.00    +0.000 NA
ATOM     24  C   UNL     1       6.655   4.334  14.720  0.00  0.00    +0.000 A 
ATOM     25  C   UNL     1       7.148   4.199  15.998  0.00  0.00    +0.000 A 
ATOM     26  N   UNL     1       6.609   5.162  16.783  0.00  0.00    +0.000 N 
ENDBRANCH  20  26
ENDBRANCH  19  20
ENDBRANCH  18  19
ENDBRANCH   1  18
TORSDOF 5
ENDMDL
MODEL 5
REMARK VINA RESULT:      -7.8      1.228      1.434
REMARK  Name = 
REMARK  8 active torsions:
REMARK  status: ('A' for Active; 'I' for Inactive)
REMARK    1  A    between atoms: C_1  and  C_2
REMARK    2  A    between atoms: N_6  and  C_7
REMARK    3  A    between atoms: C_7  and  C_8
REMARK    4  A    between atoms: C_8  and  C_9
REMARK    5  A    between atoms: C_9  and  N_10
REMARK    6  A    between atoms: C_14  and  C_15
REMARK    7  A    between atoms: C_23  and  C_24
REMARK    8  A    between atoms: N_25  and  C_26
REMARK                            x       y       z     vdW  Elec       q    Type
REMARK                         _______ _______ _______ _____ _____    ______ ____
ROOT
ATOM      1  N   UNL     1       4.782   4.539  17.442  0.00  0.00    +0.000 N 
ATOM      2  C   UNL     1       5.987   3.968  17.666  0.00  0.00    +0.000 A 
ATOM      3  N   UNL     1       6.676   4.562  18.656  0.00  0.00    +0.000 NA
ATOM      4  C   UNL     1       5.887   5.565  19.074  0.00  0.00    +0.000 A 
ATOM      5  C   UNL     1       4.708   5.571  18.342  0.00  0.00    +0.000 A 
ENDROOT
BRANCH   5   6
ATOM      6  C   UNL     1       3.645   6.616  18.515  0.00  0.00    +0.000 A 
ATOM      7  C   UNL     1       3.422   7.650  17.597  0.00  0.00    +0.000 A 
ATOM      8  C   UNL     1       2.476   8.650  17.855  0.00  0.00    +0.000 A 
ATOM      9  C   UNL     1       1.721   8.660  19.051  0.00  0.00    +0.000 A 
ATOM     10  C   UNL     1       1.926   7.605  19.969  0.00  0.00    +0.000 A 
ATOM     11  C   UNL     1       2.854   6.590  19.686  0.00  0.00    +0.000 A 
ATOM     12  C   UNL     1       1.204   7.580  21.296  0.00  0.00    +0.000 C 
ATOM     13  C   UNL     1       0.685   8.967  21.684  0.00  0.00    +0.000 C 
ATOM     14  C   UNL     1      -0.119   9.555  20.524  0.00  0.00    +0.000 C 
ATOM     15  C   UNL     1      -0.813  10.847  21.005  0.00  0.00    +0.000 C 
ATOM     16  N   UNL     1       0.784   9.722  19.363  0.00  0.00    +0.000 N 
ATOM     17  C   UNL     1       0.833  10.955  18.578  0.00  0.00    +0.000 C 
ENDBRANCH   5   6
BRANCH   1  18
ATOM     18  C   UNL     1       3.895   4.090  16.342  0.00  0.00    +0.000 C 
BRANCH  18  19
ATOM     19  C   UNL     1       2.519   3.621  16.883  0.00  0.00    +0.000 C 
BRANCH  19  20
ATOM     20  C   UNL     1       2.604   2.381  17.800  0.00  0.00    +0.000 C 
BRANCH  20  26
ATOM     21  C   UNL     1       4.598   2.200  20.440  0.00  0.00    +0.000 C 
ATOM     22  C   UNL     1       3.147   2.570  20.361  0.00  0.00    +0.000 A 
ATOM     23  N   UNL     1       2.467   2.882  21.484  0.00  0.00    +0.000 NA
ATOM     24  C   UNL     1       1.216   3.146  21.077  0.00  0.00    +0.000 A 
ATOM     25  C   UNL     1       1.147   2.987  19.712  0.00  0.00    +0.000 A 
ATOM     26  N   UNL     1       2.365   2.624  19.246  0.00  0.00    +0.000 N 
ENDBRANCH  20  26
ENDBRANCH  19  20
ENDBRANCH  18  19
ENDBRANCH   1  18
TORSDOF 5
ENDMDL
MODEL 6
REMARK VINA RESULT:      -7.8      1.132      2.137
REMARK  Name = 
REMARK  8 active torsions:
REMARK  status: ('A' for Active; 'I' for Inactive)
REMARK    1  A    between atoms: C_1  and  C_2
REMARK    2  A    between atoms: N_6  and  C_7
REMARK    3  A    between atoms: C_7  and  C_8
REMARK    4  A    between atoms: C_8  and  C_9
REMARK    5  A    between atoms: C_9  and  N_10
REMARK    6  A    between atoms: C_14  and  C_15
REMARK    7  A    between atoms: C_23  and  C_24
REMARK    8  A    between atoms: N_25  and  C_26
REMARK                            x       y       z     vdW  Elec       q    Type
REMARK                         _______ _______ _______ _____ _____    ______ ____
ROOT
ATOM      1  N   UNL     1       4.109   4.290  17.106  0.00  0.00    +0.000 N 
ATOM      2  C   UNL     1       5.297   3.864  16.621  0.00  0.00    +0.000 A 
ATOM      3  N   UNL     1       6.337   4.594  17.057  0.00  0.00    +0.000 NA
ATOM      4  C   UNL     1       5.794   5.536  17.844  0.00  0.00    +0.000 A 
ATOM      5  C   UNL     1       4.417   5.368  17.894  0.00  0.00    +0.000 A 
ENDROOT
BRANCH   5   6
ATOM      6  C   UNL     1       3.507   6.307  18.631  0.00  0.00    +0.000 A 
ATOM      7  C   UNL     1       3.003   6.046  19.912  0.00  0.00    +0.000 A 
ATOM      8  C   UNL     1       2.086   6.916  20.515  0.00  0.00    +0.000 A 
ATOM      9  C   UNL     1       1.627   8.079  19.853  0.00  0.00    +0.000 A 
ATOM     10  C   UNL     1       2.151   8.358  18.570  0.00  0.00    +0.000 A 
ATOM     11  C   UNL     1       3.095   7.496  17.988  0.00  0.00    +0.000 A 
ATOM     12  C   UNL     1       1.664   9.545  17.774  0.00  0.00    +0.000 C 
ATOM     13  C   UNL     1       0.303  10.040  18.271  0.00  0.00    +0.000 C 
ATOM     14  C   UNL     1       0.359  10.257  19.783  0.00  0.00    +0.000 C 
ATOM     15  C   UNL     1      -0.941  10.957  20.233  0.00  0.00    +0.000 C 
ATOM     16  N   UNL     1       0.630   8.956  20.435  0.00  0.00    +0.000 N 
ATOM     17  C   UNL     1      -0.136   8.481  21.587  0.00  0.00    +0.000 C 
ENDBRANCH   5   6
BRANCH   1  18
ATOM     18  C   UNL     1       2.826   3.675  16.689  0.00  0.00    +0.000 C 
BRANCH  18  19
ATOM     19  C   UNL     1       2.588   2.322  17.409  0.00  0.00    +0.000 C 
BRANCH  19  20
ATOM     20  C   UNL     1       1.454   2.368  18.456  0.00  0.00    +0.000 C 
BRANCH  20  26
ATOM     21  C   UNL     1       4.396   2.114  19.960  0.00  0.00    +0.000 C 
ATOM     22  C   UNL     1       3.063   2.510  20.524  0.00  0.00    +0.000 A 
ATOM     23  N   UNL     1       2.948   2.817  21.833  0.00  0.00    +0.000 NA
ATOM     24  C   UNL     1       1.651   3.107  22.014  0.00  0.00    +0.000 A 
ATOM     25  C   UNL     1       0.990   2.970  20.815  0.00  0.00    +0.000 A 
ATOM     26  N   UNL     1       1.875   2.593  19.862  0.00  0.00    +0.000 N 
ENDBRANCH  20  26
ENDBRANCH  19  20
ENDBRANCH  18  19
ENDBRANCH   1  18
TORSDOF 5
ENDMDL
MODEL 7
REMARK VINA RESULT:      -7.8      3.027      8.163
REMARK  Name = 
REMARK  8 active torsions:
REMARK  status: ('A' for Active; 'I' for Inactive)
REMARK    1  A    between atoms: C_1  and  C_2
REMARK    2  A    between atoms: N_6  and  C_7
REMARK    3  A    between atoms: C_7  and  C_8
REMARK    4  A    between atoms: C_8  and  C_9
REMARK    5  A    between atoms: C_9  and  N_10
REMARK    6  A    between atoms: C_14  and  C_15
REMARK    7  A    between atoms: C_23  and  C_24
REMARK    8  A    between atoms: N_25  and  C_26
REMARK                            x       y       z     vdW  Elec       q    Type
REMARK                         _______ _______ _______ _____ _____    ______ ____
ROOT
ATOM      1  N   UNL     1       0.383   9.946  20.135  0.00  0.00    +0.000 N 
ATOM      2  C   UNL     1      -0.021  10.749  21.146  0.00  0.00    +0.000 A 
ATOM      3  N   UNL     1       0.421  10.345  22.349  0.00  0.00    +0.000 NA
ATOM      4  C   UNL     1       1.125   9.229  22.103  0.00  0.00    +0.000 A 
ATOM      5  C   UNL     1       1.120   8.962  20.741  0.00  0.00    +0.000 A 
ENDROOT
BRANCH   5   6
ATOM      6  C   UNL     1       1.758   7.740  20.147  0.00  0.00    +0.000 A 
ATOM      7  C   UNL     1       2.412   7.736  18.908  0.00  0.00    +0.000 A 
ATOM      8  C   UNL     1       2.910   6.547  18.362  0.00  0.00    +0.000 A 
ATOM      9  C   UNL     1       2.764   5.310  19.031  0.00  0.00    +0.000 A 
ATOM     10  C   UNL     1       2.125   5.313  20.292  0.00  0.00    +0.000 A 
ATOM     11  C   UNL     1       1.658   6.516  20.846  0.00  0.00    +0.000 A 
ATOM     12  C   UNL     1       1.875   4.024  21.038  0.00  0.00    +0.000 C 
ATOM     13  C   UNL     1       1.926   2.811  20.106  0.00  0.00    +0.000 C 
ATOM     14  C   UNL     1       3.221   2.844  19.295  0.00  0.00    +0.000 C 
ATOM     15  C   UNL     1       3.360   1.513  18.526  0.00  0.00    +0.000 C 
ATOM     16  N   UNL     1       3.216   4.060  18.450  0.00  0.00    +0.000 N 
ATOM     17  C   UNL     1       3.558   4.030  17.029  0.00  0.00    +0.000 C 
ENDBRANCH   5   6
BRANCH   1  18
ATOM     18  C   UNL     1      -0.057  10.165  18.737  0.00  0.00    +0.000 C 
BRANCH  18  19
ATOM     19  C   UNL     1      -1.486  10.766  18.682  0.00  0.00    +0.000 C 
BRANCH  19  20
ATOM     20  C   UNL     1      -2.531   9.822  18.047  0.00  0.00    +0.000 C 
BRANCH  20  26
ATOM     21  C   UNL     1      -4.905  11.876  16.988  0.00  0.00    +0.000 C 
ATOM     22  C   UNL     1      -3.954  11.025  16.200  0.00  0.00    +0.000 A 
ATOM     23  N   UNL     1      -4.006  11.026  14.851  0.00  0.00    +0.000 NA
ATOM     24  C   UNL     1      -3.052  10.166  14.461  0.00  0.00    +0.000 A 
ATOM     25  C   UNL     1      -2.433   9.650  15.576  0.00  0.00    +0.000 A 
ATOM     26  N   UNL     1      -2.995  10.188  16.684  0.00  0.00    +0.000 N 
ENDBRANCH  20  26
ENDBRANCH  19  20
ENDBRANCH  18  19
ENDBRANCH   1  18
TORSDOF 5
ENDMDL
MODEL 8
REMARK VINA RESULT:      -7.7      2.917      8.267
REMARK  Name = 
REMARK  8 active torsions:
REMARK  status: ('A' for Active; 'I' for Inactive)
REMARK    1  A    between atoms: C_1  and  C_2
REMARK    2  A    between atoms: N_6  and  C_7
REMARK    3  A    between atoms: C_7  and  C_8
REMARK    4  A    between atoms: C_8  and  C_9
REMARK    5  A    between atoms: C_9  and  N_10
REMARK    6  A    between atoms: C_14  and  C_15
REMARK    7  A    between atoms: C_23  and  C_24
REMARK    8  A    between atoms: N_25  and  C_26
REMARK                            x       y       z     vdW  Elec       q    Type
REMARK                         _______ _______ _______ _____ _____    ______ ____
ROOT
ATOM      1  N   UNL     1       0.577   9.878  20.114  0.00  0.00    +0.000 N 
ATOM      2  C   UNL     1       0.085  10.647  21.112  0.00  0.00    +0.000 A 
ATOM      3  N   UNL     1       0.348  10.156  22.334  0.00  0.00    +0.000 NA
ATOM      4  C   UNL     1       1.024   9.017  22.113  0.00  0.00    +0.000 A 
ATOM      5  C   UNL     1       1.182   8.824  20.748  0.00  0.00    +0.000 A 
ENDROOT
BRANCH   5   6
ATOM      6  C   UNL     1       1.831   7.602  20.167  0.00  0.00    +0.000 A 
ATOM      7  C   UNL     1       2.570   7.613  18.977  0.00  0.00    +0.000 A 
ATOM      8  C   UNL     1       3.078   6.426  18.434  0.00  0.00    +0.000 A 
ATOM      9  C   UNL     1       2.856   5.176  19.058  0.00  0.00    +0.000 A 
ATOM     10  C   UNL     1       2.131   5.163  20.271  0.00  0.00    +0.000 A 
ATOM     11  C   UNL     1       1.654   6.363  20.823  0.00  0.00    +0.000 A 
ATOM     12  C   UNL     1       1.799   3.862  20.963  0.00  0.00    +0.000 C 
ATOM     13  C   UNL     1       1.888   2.672  20.004  0.00  0.00    +0.000 C 
ATOM     14  C   UNL     1       3.237   2.693  19.286  0.00  0.00    +0.000 C 
ATOM     15  C   UNL     1       3.399   1.380  18.493  0.00  0.00    +0.000 C 
ATOM     16  N   UNL     1       3.319   3.930  18.476  0.00  0.00    +0.000 N 
ATOM     17  C   UNL     1       3.760   3.928  17.082  0.00  0.00    +0.000 C 
ENDBRANCH   5   6
BRANCH   1  18
ATOM     18  C   UNL     1       0.332  10.195  18.686  0.00  0.00    +0.000 C 
BRANCH  18  19
ATOM     19  C   UNL     1      -0.969  11.020  18.507  0.00  0.00    +0.000 C 
BRANCH  19  20
ATOM     20  C   UNL     1      -2.211  10.157  18.194  0.00  0.00    +0.000 C 
BRANCH  20  26
ATOM     21  C   UNL     1      -3.429  10.723  15.165  0.00  0.00    +0.000 C 
ATOM     22  C   UNL     1      -3.957  11.147  16.503  0.00  0.00    +0.000 A 
ATOM     23  N   UNL     1      -5.088  11.879  16.581  0.00  0.00    +0.000 NA
ATOM     24  C   UNL     1      -5.275  12.099  17.892  0.00  0.00    +0.000 A 
ATOM     25  C   UNL     1      -4.255  11.502  18.596  0.00  0.00    +0.000 A 
ATOM     26  N   UNL     1      -3.414  10.893  17.726  0.00  0.00    +0.000 N 
ENDBRANCH  20  26
ENDBRANCH  19  20
ENDBRANCH  18  19
ENDBRANCH   1  18
TORSDOF 5
ENDMDL
MODEL 9
REMARK VINA RESULT:      -7.7      0.464      1.249
REMARK  Name = 
REMARK  8 active torsions:
REMARK  status: ('A' for Active; 'I' for Inactive)
REMARK    1  A    between atoms: C_1  and  C_2
REMARK    2  A    between atoms: N_6  and  C_7
REMARK    3  A    between atoms: C_7  and  C_8
REMARK    4  A    between atoms: C_8  and  C_9
REMARK    5  A    between atoms: C_9  and  N_10
REMARK    6  A    between atoms: C_14  and  C_15
REMARK    7  A    between atoms: C_23  and  C_24
REMARK    8  A    between atoms: N_25  and  C_26
REMARK                            x       y       z     vdW  Elec       q    Type
REMARK                         _______ _______ _______ _____ _____    ______ ____
ROOT
ATOM      1  N   UNL     1       3.211   5.552  17.638  0.00  0.00    +0.000 N 
ATOM      2  C   UNL     1       4.355   5.135  17.048  0.00  0.00    +0.000 A 
ATOM      3  N   UNL     1       5.273   6.109  16.932  0.00  0.00    +0.000 NA
ATOM      4  C   UNL     1       4.691   7.199  17.455  0.00  0.00    +0.000 A 
ATOM      5  C   UNL     1       3.416   6.881  17.903  0.00  0.00    +0.000 A 
ENDROOT
BRANCH   5   6
ATOM      6  C   UNL     1       2.474   7.900  18.475  0.00  0.00    +0.000 A 
ATOM      7  C   UNL     1       2.082   9.057  17.790  0.00  0.00    +0.000 A 
ATOM      8  C   UNL     1       1.272  10.018  18.408  0.00  0.00    +0.000 A 
ATOM      9  C   UNL     1       0.830   9.864  19.743  0.00  0.00    +0.000 A 
ATOM     10  C   UNL     1       1.205   8.686  20.429  0.00  0.00    +0.000 A 
ATOM     11  C   UNL     1       1.991   7.713  19.789  0.00  0.00    +0.000 A 
ATOM     12  C   UNL     1       0.826   8.477  21.876  0.00  0.00    +0.000 C 
ATOM     13  C   UNL     1       0.478   9.799  22.566  0.00  0.00    +0.000 C 
ATOM     14  C   UNL     1      -0.556  10.555  21.732  0.00  0.00    +0.000 C 
ATOM     15  C   UNL     1      -1.054  11.770  22.542  0.00  0.00    +0.000 C 
ATOM     16  N   UNL     1       0.045  10.878  20.418  0.00  0.00    +0.000 N 
ATOM     17  C   UNL     1      -0.043  12.211  19.822  0.00  0.00    +0.000 C 
ENDBRANCH   5   6
BRANCH   1  18
ATOM     18  C   UNL     1       2.039   4.658  17.794  0.00  0.00    +0.000 C 
BRANCH  18  19
ATOM     19  C   UNL     1       2.258   3.308  17.063  0.00  0.00    +0.000 C 
BRANCH  19  20
ATOM     20  C   UNL     1       2.147   2.077  17.989  0.00  0.00    +0.000 C 
BRANCH  20  26
ATOM     21  C   UNL     1       1.096   2.982  20.999  0.00  0.00    +0.000 C 
ATOM     22  C   UNL     1       2.458   2.539  20.554  0.00  0.00    +0.000 A 
ATOM     23  N   UNL     1       3.473   2.479  21.442  0.00  0.00    +0.000 NA
ATOM     24  C   UNL     1       4.536   2.069  20.735  0.00  0.00    +0.000 A 
ATOM     25  C   UNL     1       4.160   1.888  19.424  0.00  0.00    +0.000 A 
ATOM     26  N   UNL     1       2.844   2.182  19.297  0.00  0.00    +0.000 N 
ENDBRANCH  20  26
ENDBRANCH  19  20
ENDBRANCH  18  19
ENDBRANCH   1  18
TORSDOF 5
ENDMDL
