MODEL 1
REMARK VINA RESULT:      -6.7      0.000      0.000
REMARK  Name = 
REMARK  8 active torsions:
REMARK  status: ('A' for Active; 'I' for Inactive)
REMARK    1  A    between atoms: C_1  and  C_2
REMARK    2  A    between atoms: C_6  and  C_7
REMARK    3  A    between atoms: C_8  and  N_9
REMARK    4  A    between atoms: C_10  and  S_11
REMARK    5  A    between atoms: N_12  and  C_13
REMARK    6  A    between atoms: N_12  and  C_19
REMARK    7  A    between atoms: C_19  and  C_20
REMARK    8  A    between atoms: C_19  and  C_21
REMARK                            x       y       z     vdW  Elec       q    Type
REMARK                         _______ _______ _______ _____ _____    ______ ____
ROOT
ATOM      1  N   UNL     1       3.752   5.102  17.611  0.00  0.00    +0.000 NA
ATOM      2  C   UNL     1       5.031   4.933  17.858  0.00  0.00    +0.000 C 
ATOM      3  N   UNL     1       6.049   5.428  17.012  0.00  0.00    +0.000 N 
ENDROOT
BRANCH   1  11
ATOM      4  C   UNL     1       2.632   6.706  19.915  0.00  0.00    +0.000 C 
ATOM      5  C   UNL     1       2.136   5.351  19.485  0.00  0.00    +0.000 A 
ATOM      6  C   UNL     1       1.138   4.792  20.315  0.00  0.00    +0.000 A 
ATOM      7  C   UNL     1       0.646   3.524  20.069  0.00  0.00    +0.000 A 
ATOM      8  C   UNL     1       1.176   2.773  19.032  0.00  0.00    +0.000 A 
ATOM      9  C   UNL     1       2.203   3.279  18.222  0.00  0.00    +0.000 A 
ATOM     10  C   UNL     1       2.803   2.341  17.208  0.00  0.00    +0.000 C 
ATOM     11  C   UNL     1       2.675   4.606  18.397  0.00  0.00    +0.000 A 
ENDBRANCH   1  11
BRANCH   3  12
ATOM     12  C   UNL     1       6.146   4.914  15.681  0.00  0.00    +0.000 A 
ATOM     13  C   UNL     1       5.151   4.131  15.059  0.00  0.00    +0.000 A 
ATOM     14  C   UNL     1       5.274   3.693  13.734  0.00  0.00    +0.000 A 
ATOM     15  C   UNL     1       6.411   3.997  12.997  0.00  0.00    +0.000 A 
ATOM     16  C   UNL     1       7.423   4.746  13.583  0.00  0.00    +0.000 A 
ATOM     17  C   UNL     1       7.284   5.197  14.901  0.00  0.00    +0.000 A 
ENDBRANCH   3  12
BRANCH   3  18
ATOM     18  C   UNL     1       7.052   6.466  17.392  0.00  0.00    +0.000 C 
ATOM     19  C   UNL     1       6.451   7.872  17.386  0.00  0.00    +0.000 C 
ATOM     20  C   UNL     1       7.797   6.217  18.703  0.00  0.00    +0.000 C 
ENDBRANCH   3  18
BRANCH   2  21
ATOM     21  S   UNL     1       5.632   3.894  19.174  0.00  0.00    +0.000 S 
ATOM     22  H   UNL     1       6.013   2.853  18.431  0.00  0.00    +0.000 HD
ENDBRANCH   2  21
TORSDOF 4
ENDMDL
MODEL 2
REMARK VINA RESULT:      -6.6      0.149      1.907
REMARK  Name = 
REMARK  8 active torsions:
REMARK  status: ('A' for Active; 'I' for Inactive)
REMARK    1  A    between atoms: C_1  and  C_2
REMARK    2  A    between atoms: C_6  and  C_7
REMARK    3  A    between atoms: C_8  and  N_9
REMARK    4  A    between atoms: C_10  and  S_11
REMARK    5  A    between atoms: N_12  and  C_13
REMARK    6  A    between atoms: N_12  and  C_19
REMARK    7  A    between atoms: C_19  and  C_20
REMARK    8  A    between atoms: C_19  and  C_21
REMARK                            x       y       z     vdW  Elec       q    Type
REMARK                         _______ _______ _______ _____ _____    ______ ____
ROOT
ATOM      1  N   UNL     1       3.867   5.094  17.768  0.00  0.00    +0.000 NA
ATOM      2  C   UNL     1       5.158   4.953  17.965  0.00  0.00    +0.000 C 
ATOM      3  N   UNL     1       6.131   5.465  17.077  0.00  0.00    +0.000 N 
ENDROOT
BRANCH   1  11
ATOM      4  C   UNL     1       2.757   2.316  17.338  0.00  0.00    +0.000 C 
ATOM      5  C   UNL     1       2.301   3.271  18.408  0.00  0.00    +0.000 A 
ATOM      6  C   UNL     1       1.204   2.822  19.178  0.00  0.00    +0.000 A 
ATOM      7  C   UNL     1       0.646   3.632  20.149  0.00  0.00    +0.000 A 
ATOM      8  C   UNL     1       1.132   4.918  20.331  0.00  0.00    +0.000 A 
ATOM      9  C   UNL     1       2.185   5.412  19.549  0.00  0.00    +0.000 A 
ATOM     10  C   UNL     1       2.555   6.860  19.729  0.00  0.00    +0.000 C 
ATOM     11  C   UNL     1       2.833   4.579  18.598  0.00  0.00    +0.000 A 
ENDBRANCH   1  11
BRANCH   3  12
ATOM     12  C   UNL     1       6.186   4.947  15.745  0.00  0.00    +0.000 A 
ATOM     13  C   UNL     1       5.165   4.176  15.151  0.00  0.00    +0.000 A 
ATOM     14  C   UNL     1       5.247   3.735  13.825  0.00  0.00    +0.000 A 
ATOM     15  C   UNL     1       6.367   4.022  13.057  0.00  0.00    +0.000 A 
ATOM     16  C   UNL     1       7.404   4.760  13.614  0.00  0.00    +0.000 A 
ATOM     17  C   UNL     1       7.306   5.215  14.934  0.00  0.00    +0.000 A 
ENDBRANCH   3  12
BRANCH   3  18
ATOM     18  C   UNL     1       7.127   6.526  17.413  0.00  0.00    +0.000 C 
ATOM     19  C   UNL     1       6.513   7.925  17.360  0.00  0.00    +0.000 C 
ATOM     20  C   UNL     1       7.881   6.331  18.728  0.00  0.00    +0.000 C 
ENDBRANCH   3  18
BRANCH   2  21
ATOM     21  S   UNL     1       5.833   3.932  19.260  0.00  0.00    +0.000 S 
ATOM     22  H   UNL     1       4.797   3.988  20.100  0.00  0.00    +0.000 HD
ENDBRANCH   2  21
TORSDOF 4
ENDMDL
MODEL 3
REMARK VINA RESULT:      -6.5      0.087      1.047
REMARK  Name = 
REMARK  8 active torsions:
REMARK  status: ('A' for Active; 'I' for Inactive)
REMARK    1  A    between atoms: C_1  and  C_2
REMARK    2  A    between atoms: C_6  and  C_7
REMARK    3  A    between atoms: C_8  and  N_9
REMARK    4  A    between atoms: C_10  and  S_11
REMARK    5  A    between atoms: N_12  and  C_13
REMARK    6  A    between atoms: N_12  and  C_19
REMARK    7  A    between atoms: C_19  and  C_20
REMARK    8  A    between atoms: C_19  and  C_21
REMARK                            x       y       z     vdW  Elec       q    Type
REMARK                         _______ _______ _______ _____ _____    ______ ____
ROOT
ATOM      1  N   UNL     1       3.799   5.145  17.636  0.00  0.00    +0.000 NA
ATOM      2  C   UNL     1       5.073   4.942  17.883  0.00  0.00    +0.000 C 
ATOM      3  N   UNL     1       6.104   5.444  17.057  0.00  0.00    +0.000 N 
ENDROOT
BRANCH   1  11
ATOM      4  C   UNL     1       2.658   6.725  19.947  0.00  0.00    +0.000 C 
ATOM      5  C   UNL     1       2.160   5.379  19.493  0.00  0.00    +0.000 A 
ATOM      6  C   UNL     1       1.148   4.815  20.302  0.00  0.00    +0.000 A 
ATOM      7  C   UNL     1       0.651   3.554  20.033  0.00  0.00    +0.000 A 
ATOM      8  C   UNL     1       1.191   2.812  18.993  0.00  0.00    +0.000 A 
ATOM      9  C   UNL     1       2.231   3.323  18.203  0.00  0.00    +0.000 A 
ATOM     10  C   UNL     1       2.839   2.395  17.185  0.00  0.00    +0.000 C 
ATOM     11  C   UNL     1       2.709   4.645  18.402  0.00  0.00    +0.000 A 
ENDBRANCH   1  11
BRANCH   3  12
ATOM     12  C   UNL     1       6.197   4.971  15.711  0.00  0.00    +0.000 A 
ATOM     13  C   UNL     1       7.280   5.244  14.848  0.00  0.00    +0.000 A 
ATOM     14  C   UNL     1       7.346   4.715  13.553  0.00  0.00    +0.000 A 
ATOM     15  C   UNL     1       6.317   3.921  13.065  0.00  0.00    +0.000 A 
ATOM     16  C   UNL     1       5.223   3.649  13.877  0.00  0.00    +0.000 A 
ATOM     17  C   UNL     1       5.173   4.165  15.177  0.00  0.00    +0.000 A 
ENDBRANCH   3  12
BRANCH   3  18
ATOM     18  C   UNL     1       7.126   6.449  17.475  0.00  0.00    +0.000 C 
ATOM     19  C   UNL     1       6.574   7.874  17.442  0.00  0.00    +0.000 C 
ATOM     20  C   UNL     1       7.810   6.179  18.815  0.00  0.00    +0.000 C 
ENDBRANCH   3  18
BRANCH   2  21
ATOM     21  S   UNL     1       5.647   3.849  19.167  0.00  0.00    +0.000 S 
ATOM     22  H   UNL     1       4.643   4.028  20.027  0.00  0.00    +0.000 HD
ENDBRANCH   2  21
TORSDOF 4
ENDMDL
MODEL 4
REMARK VINA RESULT:      -6.5      0.243      2.180
REMARK  Name = 
REMARK  8 active torsions:
REMARK  status: ('A' for Active; 'I' for Inactive)
REMARK    1  A    between atoms: C_1  and  C_2
REMARK    2  A    between atoms: C_6  and  C_7
REMARK    3  A    between atoms: C_8  and  N_9
REMARK    4  A    between atoms: C_10  and  S_11
REMARK    5  A    between atoms: N_12  and  C_13
REMARK    6  A    between atoms: N_12  and  C_19
REMARK    7  A    between atoms: C_19  and  C_20
REMARK    8  A    between atoms: C_19  and  C_21
REMARK                            x       y       z     vdW  Elec       q    Type
REMARK                         _______ _______ _______ _____ _____    ______ ____
ROOT
ATOM      1  N   UNL     1       3.948   5.135  17.836  0.00  0.00    +0.000 NA
ATOM      2  C   UNL     1       5.234   4.941  18.021  0.00  0.00    +0.000 C 
ATOM      3  N   UNL     1       6.221   5.447  17.145  0.00  0.00    +0.000 N 
ENDROOT
BRANCH   1  11
ATOM      4  C   UNL     1       2.857   2.345  17.433  0.00  0.00    +0.000 C 
ATOM      5  C   UNL     1       2.376   3.317  18.477  0.00  0.00    +0.000 A 
ATOM      6  C   UNL     1       1.266   2.877  19.233  0.00  0.00    +0.000 A 
ATOM      7  C   UNL     1       0.685   3.702  20.178  0.00  0.00    +0.000 A 
ATOM      8  C   UNL     1       1.163   4.993  20.347  0.00  0.00    +0.000 A 
ATOM      9  C   UNL     1       2.230   5.477  19.577  0.00  0.00    +0.000 A 
ATOM     10  C   UNL     1       2.590   6.930  19.740  0.00  0.00    +0.000 C 
ATOM     11  C   UNL     1       2.899   4.630  18.655  0.00  0.00    +0.000 A 
ENDBRANCH   1  11
BRANCH   3  12
ATOM     12  C   UNL     1       6.252   4.972  15.797  0.00  0.00    +0.000 A 
ATOM     13  C   UNL     1       7.316   5.202  14.899  0.00  0.00    +0.000 A 
ATOM     14  C   UNL     1       7.319   4.672  13.603  0.00  0.00    +0.000 A 
ATOM     15  C   UNL     1       6.243   3.920  13.149  0.00  0.00    +0.000 A 
ATOM     16  C   UNL     1       5.167   3.692  13.996  0.00  0.00    +0.000 A 
ATOM     17  C   UNL     1       5.180   4.208  15.297  0.00  0.00    +0.000 A 
ENDBRANCH   3  12
BRANCH   3  18
ATOM     18  C   UNL     1       7.256   6.458  17.511  0.00  0.00    +0.000 C 
ATOM     19  C   UNL     1       6.734   7.889  17.370  0.00  0.00    +0.000 C 
ATOM     20  C   UNL     1       7.911   6.269  18.879  0.00  0.00    +0.000 C 
ENDBRANCH   3  18
BRANCH   2  21
ATOM     21  S   UNL     1       5.876   3.853  19.278  0.00  0.00    +0.000 S 
ATOM     22  H   UNL     1       7.000   4.522  19.547  0.00  0.00    +0.000 HD
ENDBRANCH   2  21
TORSDOF 4
ENDMDL
MODEL 5
REMARK VINA RESULT:      -6.4      2.091      4.120
REMARK  Name = 
REMARK  8 active torsions:
REMARK  status: ('A' for Active; 'I' for Inactive)
REMARK    1  A    between atoms: C_1  and  C_2
REMARK    2  A    between atoms: C_6  and  C_7
REMARK    3  A    between atoms: C_8  and  N_9
REMARK    4  A    between atoms: C_10  and  S_11
REMARK    5  A    between atoms: N_12  and  C_13
REMARK    6  A    between atoms: N_12  and  C_19
REMARK    7  A    between atoms: C_19  and  C_20
REMARK    8  A    between atoms: C_19  and  C_21
REMARK                            x       y       z     vdW  Elec       q    Type
REMARK                         _______ _______ _______ _____ _____    ______ ____
ROOT
ATOM      1  N   UNL     1       3.388   6.041  19.016  0.00  0.00    +0.000 NA
ATOM      2  C   UNL     1       3.119   4.868  18.489  0.00  0.00    +0.000 C 
ATOM      3  N   UNL     1       4.112   3.897  18.228  0.00  0.00    +0.000 N 
ENDROOT
BRANCH   1  11
ATOM      4  C   UNL     1       3.220   8.480  17.238  0.00  0.00    +0.000 C 
ATOM      5  C   UNL     1       2.357   8.232  18.446  0.00  0.00    +0.000 A 
ATOM      6  C   UNL     1       1.489   9.294  18.785  0.00  0.00    +0.000 A 
ATOM      7  C   UNL     1       0.691   9.220  19.911  0.00  0.00    +0.000 A 
ATOM      8  C   UNL     1       0.785   8.117  20.746  0.00  0.00    +0.000 A 
ATOM      9  C   UNL     1       1.674   7.070  20.466  0.00  0.00    +0.000 A 
ATOM     10  C   UNL     1       1.800   5.981  21.498  0.00  0.00    +0.000 C 
ATOM     11  C   UNL     1       2.448   7.077  19.276  0.00  0.00    +0.000 A 
ENDBRANCH   1  11
BRANCH   3  12
ATOM     12  C   UNL     1       5.129   4.195  17.268  0.00  0.00    +0.000 A 
ATOM     13  C   UNL     1       6.463   4.515  17.599  0.00  0.00    +0.000 A 
ATOM     14  C   UNL     1       7.433   4.751  16.616  0.00  0.00    +0.000 A 
ATOM     15  C   UNL     1       7.095   4.705  15.270  0.00  0.00    +0.000 A 
ATOM     16  C   UNL     1       5.786   4.416  14.906  0.00  0.00    +0.000 A 
ATOM     17  C   UNL     1       4.827   4.162  15.893  0.00  0.00    +0.000 A 
ENDBRANCH   3  12
BRANCH   3  18
ATOM     18  C   UNL     1       4.197   2.559  18.883  0.00  0.00    +0.000 C 
ATOM     19  C   UNL     1       3.707   2.598  20.331  0.00  0.00    +0.000 C 
ATOM     20  C   UNL     1       3.526   1.410  18.131  0.00  0.00    +0.000 C 
ENDBRANCH   3  18
BRANCH   2  21
ATOM     21  S   UNL     1       1.509   4.439  17.858  0.00  0.00    +0.000 S 
ATOM     22  H   UNL     1       1.907   3.708  16.814  0.00  0.00    +0.000 HD
ENDBRANCH   2  21
TORSDOF 4
ENDMDL
MODEL 6
REMARK VINA RESULT:      -6.4      2.154      4.184
REMARK  Name = 
REMARK  8 active torsions:
REMARK  status: ('A' for Active; 'I' for Inactive)
REMARK    1  A    between atoms: C_1  and  C_2
REMARK    2  A    between atoms: C_6  and  C_7
REMARK    3  A    between atoms: C_8  and  N_9
REMARK    4  A    between atoms: C_10  and  S_11
REMARK    5  A    between atoms: N_12  and  C_13
REMARK    6  A    between atoms: N_12  and  C_19
REMARK    7  A    between atoms: C_19  and  C_20
REMARK    8  A    between atoms: C_19  and  C_21
REMARK                            x       y       z     vdW  Elec       q    Type
REMARK                         _______ _______ _______ _____ _____    ______ ____
ROOT
ATOM      1  N   UNL     1       3.356   6.132  18.988  0.00  0.00    +0.000 NA
ATOM      2  C   UNL     1       3.062   4.940  18.520  0.00  0.00    +0.000 C 
ATOM      3  N   UNL     1       4.027   3.921  18.354  0.00  0.00    +0.000 N 
ENDROOT
BRANCH   1  11
ATOM      4  C   UNL     1       3.305   8.436  17.032  0.00  0.00    +0.000 C 
ATOM      5  C   UNL     1       2.411   8.306  18.236  0.00  0.00    +0.000 A 
ATOM      6  C   UNL     1       1.573   9.418  18.478  0.00  0.00    +0.000 A 
ATOM      7  C   UNL     1       0.752   9.454  19.589  0.00  0.00    +0.000 A 
ATOM      8  C   UNL     1       0.792   8.413  20.505  0.00  0.00    +0.000 A 
ATOM      9  C   UNL     1       1.650   7.320  20.321  0.00  0.00    +0.000 A 
ATOM     10  C   UNL     1       1.720   6.307  21.432  0.00  0.00    +0.000 C 
ATOM     11  C   UNL     1       2.447   7.214  19.151  0.00  0.00    +0.000 A 
ENDBRANCH   1  11
BRANCH   3  12
ATOM     12  C   UNL     1       5.088   4.125  17.417  0.00  0.00    +0.000 A 
ATOM     13  C   UNL     1       4.930   4.071  16.016  0.00  0.00    +0.000 A 
ATOM     14  C   UNL     1       5.993   4.327  15.141  0.00  0.00    +0.000 A 
ATOM     15  C   UNL     1       7.257   4.616  15.637  0.00  0.00    +0.000 A 
ATOM     16  C   UNL     1       7.457   4.655  17.011  0.00  0.00    +0.000 A 
ATOM     17  C   UNL     1       6.385   4.418  17.880  0.00  0.00    +0.000 A 
ENDBRANCH   3  12
BRANCH   3  18
ATOM     18  C   UNL     1       4.038   2.621  19.089  0.00  0.00    +0.000 C 
ATOM     19  C   UNL     1       3.334   2.723  20.443  0.00  0.00    +0.000 C 
ATOM     20  C   UNL     1       3.510   1.416  18.310  0.00  0.00    +0.000 C 
ENDBRANCH   3  18
BRANCH   2  21
ATOM     21  S   UNL     1       1.461   4.531  17.854  0.00  0.00    +0.000 S 
ATOM     22  H   UNL     1       0.714   5.158  18.766  0.00  0.00    +0.000 HD
ENDBRANCH   2  21
TORSDOF 4
ENDMDL
MODEL 7
REMARK VINA RESULT:      -6.3      2.177      4.149
REMARK  Name = 
REMARK  8 active torsions:
REMARK  status: ('A' for Active; 'I' for Inactive)
REMARK    1  A    between atoms: C_1  and  C_2
REMARK    2  A    between atoms: C_6  and  C_7
REMARK    3  A    between atoms: C_8  and  N_9
REMARK    4  A    between atoms: C_10  and  S_11
REMARK    5  A    between atoms: N_12  and  C_13
REMARK    6  A    between atoms: N_12  and  C_19
REMARK    7  A    between atoms: C_19  and  C_20
REMARK    8  A    between atoms: C_19  and  C_21
REMARK                            x       y       z     vdW  Elec       q    Type
REMARK                         _______ _______ _______ _____ _____    ______ ____
ROOT
ATOM      1  N   UNL     1       3.457   6.230  19.033  0.00  0.00    +0.000 NA
ATOM      2  C   UNL     1       3.116   5.050  18.567  0.00  0.00    +0.000 C 
ATOM      3  N   UNL     1       4.037   3.990  18.410  0.00  0.00    +0.000 N 
ENDROOT
BRANCH   1  11
ATOM      4  C   UNL     1       1.548   6.423  21.368  0.00  0.00    +0.000 C 
ATOM      5  C   UNL     1       1.690   7.456  20.282  0.00  0.00    +0.000 A 
ATOM      6  C   UNL     1       0.770   8.527  20.356  0.00  0.00    +0.000 A 
ATOM      7  C   UNL     1       0.750   9.507  19.381  0.00  0.00    +0.000 A 
ATOM      8  C   UNL     1       1.604   9.408  18.293  0.00  0.00    +0.000 A 
ATOM      9  C   UNL     1       2.492   8.331  18.164  0.00  0.00    +0.000 A 
ATOM     10  C   UNL     1       3.283   8.241  16.886  0.00  0.00    +0.000 C 
ATOM     11  C   UNL     1       2.594   7.351  19.186  0.00  0.00    +0.000 A 
ENDBRANCH   1  11
BRANCH   3  12
ATOM     12  C   UNL     1       5.113   4.146  17.481  0.00  0.00    +0.000 A 
ATOM     13  C   UNL     1       4.972   4.040  16.081  0.00  0.00    +0.000 A 
ATOM     14  C   UNL     1       6.050   4.250  15.211  0.00  0.00    +0.000 A 
ATOM     15  C   UNL     1       7.311   4.543  15.713  0.00  0.00    +0.000 A 
ATOM     16  C   UNL     1       7.493   4.633  17.087  0.00  0.00    +0.000 A 
ATOM     17  C   UNL     1       6.407   4.441  17.950  0.00  0.00    +0.000 A 
ENDBRANCH   3  12
BRANCH   3  18
ATOM     18  C   UNL     1       3.987   2.693  19.149  0.00  0.00    +0.000 C 
ATOM     19  C   UNL     1       3.268   2.827  20.492  0.00  0.00    +0.000 C 
ATOM     20  C   UNL     1       3.425   1.507  18.366  0.00  0.00    +0.000 C 
ENDBRANCH   3  18
BRANCH   2  21
ATOM     21  S   UNL     1       1.503   4.708  17.889  0.00  0.00    +0.000 S 
ATOM     22  H   UNL     1       1.175   5.956  17.550  0.00  0.00    +0.000 HD
ENDBRANCH   2  21
TORSDOF 4
ENDMDL
MODEL 8
REMARK VINA RESULT:      -6.3      2.181      4.223
REMARK  Name = 
REMARK  8 active torsions:
REMARK  status: ('A' for Active; 'I' for Inactive)
REMARK    1  A    between atoms: C_1  and  C_2
REMARK    2  A    between atoms: C_6  and  C_7
REMARK    3  A    between atoms: C_8  and  N_9
REMARK    4  A    between atoms: C_10  and  S_11
REMARK    5  A    between atoms: N_12  and  C_13
REMARK    6  A    between atoms: N_12  and  C_19
REMARK    7  A    between atoms: C_19  and  C_20
REMARK    8  A    between atoms: C_19  and  C_21
REMARK                            x       y       z     vdW  Elec       q    Type
REMARK                         _______ _______ _______ _____ _____    ______ ____
ROOT
ATOM      1  N   UNL     1       3.421   6.233  19.098  0.00  0.00    +0.000 NA
ATOM      2  C   UNL     1       3.098   5.060  18.601  0.00  0.00    +0.000 C 
ATOM      3  N   UNL     1       4.031   4.011  18.440  0.00  0.00    +0.000 N 
ENDROOT
BRANCH   1  11
ATOM      4  C   UNL     1       1.479   6.369  21.411  0.00  0.00    +0.000 C 
ATOM      5  C   UNL     1       1.626   7.422  20.344  0.00  0.00    +0.000 A 
ATOM      6  C   UNL     1       0.696   8.483  20.423  0.00  0.00    +0.000 A 
ATOM      7  C   UNL     1       0.680   9.479  19.466  0.00  0.00    +0.000 A 
ATOM      8  C   UNL     1       1.548   9.406  18.387  0.00  0.00    +0.000 A 
ATOM      9  C   UNL     1       2.448   8.340  18.252  0.00  0.00    +0.000 A 
ATOM     10  C   UNL     1       3.256   8.279  16.983  0.00  0.00    +0.000 C 
ATOM     11  C   UNL     1       2.545   7.343  19.258  0.00  0.00    +0.000 A 
ENDBRANCH   1  11
BRANCH   3  12
ATOM     12  C   UNL     1       5.122   4.195  17.534  0.00  0.00    +0.000 A 
ATOM     13  C   UNL     1       6.445   4.480  17.934  0.00  0.00    +0.000 A 
ATOM     14  C   UNL     1       7.488   4.602  17.007  0.00  0.00    +0.000 A 
ATOM     15  C   UNL     1       7.238   4.474  15.647  0.00  0.00    +0.000 A 
ATOM     16  C   UNL     1       5.944   4.216  15.214  0.00  0.00    +0.000 A 
ATOM     17  C   UNL     1       4.910   4.075  16.147  0.00  0.00    +0.000 A 
ENDBRANCH   3  12
BRANCH   3  18
ATOM     18  C   UNL     1       3.979   2.699  19.151  0.00  0.00    +0.000 C 
ATOM     19  C   UNL     1       3.238   2.800  20.485  0.00  0.00    +0.000 C 
ATOM     20  C   UNL     1       3.437   1.526  18.334  0.00  0.00    +0.000 C 
ENDBRANCH   3  18
BRANCH   2  21
ATOM     21  S   UNL     1       1.501   4.719  17.888  0.00  0.00    +0.000 S 
ATOM     22  H   UNL     1       1.789   3.534  17.344  0.00  0.00    +0.000 HD
ENDBRANCH   2  21
TORSDOF 4
ENDMDL
MODEL 9
REMARK VINA RESULT:      -6.1      7.321      9.970
REMARK  Name = 
REMARK  8 active torsions:
REMARK  status: ('A' for Active; 'I' for Inactive)
REMARK    1  A    between atoms: C_1  and  C_2
REMARK    2  A    between atoms: C_6  and  C_7
REMARK    3  A    between atoms: C_8  and  N_9
REMARK    4  A    between atoms: C_10  and  S_11
REMARK    5  A    between atoms: N_12  and  C_13
REMARK    6  A    between atoms: N_12  and  C_19
REMARK    7  A    between atoms: C_19  and  C_20
REMARK    8  A    between atoms: C_19  and  C_21
REMARK                            x       y       z     vdW  Elec       q    Type
REMARK                         _______ _______ _______ _____ _____    ______ ____
ROOT
ATOM      1  N   UNL     1      -2.022  10.839  18.724  0.00  0.00    +0.000 NA
ATOM      2  C   UNL     1      -0.885  11.475  18.891  0.00  0.00    +0.000 C 
ATOM      3  N   UNL     1       0.247  10.880  19.493  0.00  0.00    +0.000 N 
ENDROOT
BRANCH   1  11
ATOM      4  C   UNL     1      -4.011  12.351  20.424  0.00  0.00    +0.000 C 
ATOM      5  C   UNL     1      -4.155  12.098  18.948  0.00  0.00    +0.000 A 
ATOM      6  C   UNL     1      -5.376  12.536  18.385  0.00  0.00    +0.000 A 
ATOM      7  C   UNL     1      -5.661  12.304  17.053  0.00  0.00    +0.000 A 
ATOM      8  C   UNL     1      -4.766  11.585  16.275  0.00  0.00    +0.000 A 
ATOM      9  C   UNL     1      -3.570  11.092  16.816  0.00  0.00    +0.000 A 
ATOM     10  C   UNL     1      -2.727  10.213  15.932  0.00  0.00    +0.000 C 
ATOM     11  C   UNL     1      -3.210  11.381  18.159  0.00  0.00    +0.000 A 
ENDBRANCH   1  11
BRANCH   3  12
ATOM     12  C   UNL     1       0.166  10.480  20.863  0.00  0.00    +0.000 A 
ATOM     13  C   UNL     1      -0.731  11.035  21.800  0.00  0.00    +0.000 A 
ATOM     14  C   UNL     1      -0.804  10.572  23.120  0.00  0.00    +0.000 A 
ATOM     15  C   UNL     1       0.040   9.559  23.556  0.00  0.00    +0.000 A 
ATOM     16  C   UNL     1       0.952   9.003  22.669  0.00  0.00    +0.000 A 
ATOM     17  C   UNL     1       1.006   9.457  21.346  0.00  0.00    +0.000 A 
ENDBRANCH   3  12
BRANCH   3  18
ATOM     18  C   UNL     1       1.549  10.625  18.807  0.00  0.00    +0.000 C 
ATOM     19  C   UNL     1       1.439   9.506  17.771  0.00  0.00    +0.000 C 
ATOM     20  C   UNL     1       2.223  11.850  18.190  0.00  0.00    +0.000 C 
ENDBRANCH   3  18
BRANCH   2  21
ATOM     21  S   UNL     1      -0.696  13.217  18.566  0.00  0.00    +0.000 S 
ATOM     22  H   UNL     1       0.017  13.532  19.650  0.00  0.00    +0.000 HD
ENDBRANCH   2  21
TORSDOF 4
ENDMDL
