MODEL 1
REMARK VINA RESULT:      -8.3      0.000      0.000
REMARK  Name = 
REMARK  8 active torsions:
REMARK  status: ('A' for Active; 'I' for Inactive)
REMARK    1  A    between atoms: C_1  and  N_2
REMARK    2  A    between atoms: N_2  and  C_3
REMARK    3  A    between atoms: C_3  and  C_4
REMARK    4  A    between atoms: N_6  and  C_7
REMARK    5  A    between atoms: C_7  and  C_8
REMARK    6  A    between atoms: C_14  and  C_16
REMARK    7  A    between atoms: N_24  and  C_25
REMARK    8  A    between atoms: C_25  and  C_26
REMARK                            x       y       z     vdW  Elec       q    Type
REMARK                         _______ _______ _______ _____ _____    ______ ____
ROOT
ATOM      1  C   UNL     1       1.868   6.140  20.415  0.00  0.00    +0.000 A 
ATOM      2  C   UNL     1       1.300   7.135  21.252  0.00  0.00    +0.000 A 
ATOM      3  C   UNL     1       1.360   8.324  20.548  0.00  0.00    +0.000 A 
ATOM      4  N   UNL     1       1.976   8.002  19.373  0.00  0.00    +0.000 N 
ATOM      5  N   UNL     1       2.303   6.703  19.281  0.00  0.00    +0.000 NA
ATOM      6  C   UNL     1       2.402   8.884  18.307  0.00  0.00    +0.000 C 
ATOM      7  C   UNL     1       1.432   9.980  17.871  0.00  0.00    +0.000 C 
ATOM      8  C   UNL     1       0.112  10.027  18.631  0.00  0.00    +0.000 C 
ATOM      9  N   UNL     1       0.336  10.450  20.009  0.00  0.00    +0.000 N 
ATOM     10  C   UNL     1       0.907   9.621  20.977  0.00  0.00    +0.000 C 
ATOM     11  O   UNL     1       1.004   9.971  22.150  0.00  0.00    +0.000 OA
ENDROOT
BRANCH   1  14
ATOM     12  C   UNL     1       1.772   2.351  20.182  0.00  0.00    +0.000 C 
ATOM     13  N   UNL     1       1.471   3.725  19.811  0.00  0.00    +0.000 N 
ATOM     14  C   UNL     1       1.949   4.698  20.725  0.00  0.00    +0.000 C 
ATOM     15  O   UNL     1       2.421   4.339  21.810  0.00  0.00    +0.000 OA
BRANCH  13  16
ATOM     16  C   UNL     1       1.289   3.999  18.374  0.00  0.00    +0.000 C 
BRANCH  16  17
ATOM     17  C   UNL     1       2.490   3.725  17.446  0.00  0.00    +0.000 C 
ATOM     18  O   UNL     1       2.499   2.762  16.677  0.00  0.00    +0.000 OA
ATOM     19  N   UNL     1       3.470   4.693  17.432  0.00  0.00    +0.000 N 
ATOM     20  H   UNL     1       3.391   5.451  18.099  0.00  0.00    +0.000 HD
BRANCH  19  21
ATOM     21  C   UNL     1       4.680   4.537  16.658  0.00  0.00    +0.000 C 
BRANCH  21  22
ATOM     22  C   UNL     1       5.811   5.376  17.187  0.00  0.00    +0.000 A 
ATOM     23  C   UNL     1       6.670   4.911  18.187  0.00  0.00    +0.000 A 
ATOM     24  C   UNL     1       7.681   5.738  18.670  0.00  0.00    +0.000 A 
ATOM     25  C   UNL     1       7.807   7.008  18.131  0.00  0.00    +0.000 A 
ATOM     26  N   UNL     1       7.007   7.492  17.156  0.00  0.00    +0.000 NA
ATOM     27  C   UNL     1       6.027   6.667  16.714  0.00  0.00    +0.000 A 
ENDBRANCH  21  22
ENDBRANCH  19  21
ENDBRANCH  16  17
ENDBRANCH  13  16
ENDBRANCH   1  14
BRANCH   9  28
ATOM     28  C   UNL     1      -0.179  11.754  20.424  0.00  0.00    +0.000 C 
BRANCH  28  29
ATOM     29  C   UNL     1       0.623  12.910  19.867  0.00  0.00    +0.000 A 
ATOM     30  C   UNL     1       2.021  12.937  20.013  0.00  0.00    +0.000 A 
ATOM     31  C   UNL     1       2.770  14.011  19.530  0.00  0.00    +0.000 A 
ATOM     32  C   UNL     1       2.123  15.061  18.894  0.00  0.00    +0.000 A 
ATOM     33  F   UNL     1       2.839  16.099  18.440  0.00  0.00    +0.000 F 
ATOM     34  C   UNL     1       0.743  15.054  18.727  0.00  0.00    +0.000 A 
ATOM     35  C   UNL     1      -0.008  13.980  19.213  0.00  0.00    +0.000 A 
ENDBRANCH  28  29
ENDBRANCH   9  28
TORSDOF 7
ENDMDL
MODEL 2
REMARK VINA RESULT:      -8.3      0.840      1.027
REMARK  Name = 
REMARK  8 active torsions:
REMARK  status: ('A' for Active; 'I' for Inactive)
REMARK    1  A    between atoms: C_1  and  N_2
REMARK    2  A    between atoms: N_2  and  C_3
REMARK    3  A    between atoms: C_3  and  C_4
REMARK    4  A    between atoms: N_6  and  C_7
REMARK    5  A    between atoms: C_7  and  C_8
REMARK    6  A    between atoms: C_14  and  C_16
REMARK    7  A    between atoms: N_24  and  C_25
REMARK    8  A    between atoms: C_25  and  C_26
REMARK                            x       y       z     vdW  Elec       q    Type
REMARK                         _______ _______ _______ _____ _____    ______ ____
ROOT
ATOM      1  C   UNL     1       1.912   5.894  20.429  0.00  0.00    +0.000 A 
ATOM      2  C   UNL     1       1.387   6.983  21.171  0.00  0.00    +0.000 A 
ATOM      3  C   UNL     1       1.554   8.111  20.387  0.00  0.00    +0.000 A 
ATOM      4  N   UNL     1       2.186   7.663  19.263  0.00  0.00    +0.000 N 
ATOM      5  N   UNL     1       2.425   6.342  19.276  0.00  0.00    +0.000 NA
ATOM      6  C   UNL     1       2.709   8.434  18.156  0.00  0.00    +0.000 C 
ATOM      7  C   UNL     1       1.834   9.558  17.605  0.00  0.00    +0.000 C 
ATOM      8  C   UNL     1       0.495   9.748  18.307  0.00  0.00    +0.000 C 
ATOM      9  N   UNL     1       0.699  10.255  19.659  0.00  0.00    +0.000 N 
ATOM     10  C   UNL     1       1.177   9.463  20.706  0.00  0.00    +0.000 C 
ATOM     11  O   UNL     1       1.258   9.890  21.854  0.00  0.00    +0.000 OA
ENDROOT
BRANCH   1  14
ATOM     12  C   UNL     1       1.570   2.112  20.458  0.00  0.00    +0.000 C 
ATOM     13  N   UNL     1       1.379   3.471  19.978  0.00  0.00    +0.000 N 
ATOM     14  C   UNL     1       1.882   4.476  20.843  0.00  0.00    +0.000 C 
ATOM     15  O   UNL     1       2.282   4.168  21.971  0.00  0.00    +0.000 OA
BRANCH  13  16
ATOM     16  C   UNL     1       1.278   3.651  18.518  0.00  0.00    +0.000 C 
BRANCH  16  17
ATOM     17  C   UNL     1       2.523   3.306  17.677  0.00  0.00    +0.000 C 
ATOM     18  O   UNL     1       2.727   2.160  17.272  0.00  0.00    +0.000 OA
ATOM     19  N   UNL     1       3.303   4.375  17.294  0.00  0.00    +0.000 N 
ATOM     20  H   UNL     1       3.072   5.285  17.674  0.00  0.00    +0.000 HD
BRANCH  19  21
ATOM     21  C   UNL     1       4.534   4.193  16.558  0.00  0.00    +0.000 C 
BRANCH  21  22
ATOM     22  C   UNL     1       5.676   4.974  17.147  0.00  0.00    +0.000 A 
ATOM     23  C   UNL     1       6.005   4.891  18.503  0.00  0.00    +0.000 A 
ATOM     24  C   UNL     1       7.049   5.662  19.010  0.00  0.00    +0.000 A 
ATOM     25  C   UNL     1       7.738   6.491  18.140  0.00  0.00    +0.000 A 
ATOM     26  N   UNL     1       7.460   6.593  16.821  0.00  0.00    +0.000 NA
ATOM     27  C   UNL     1       6.433   5.838  16.361  0.00  0.00    +0.000 A 
ENDBRANCH  21  22
ENDBRANCH  19  21
ENDBRANCH  16  17
ENDBRANCH  13  16
ENDBRANCH   1  14
BRANCH   9  28
ATOM     28  C   UNL     1       0.262  11.617  19.960  0.00  0.00    +0.000 C 
BRANCH  28  29
ATOM     29  C   UNL     1       1.349  12.648  19.746  0.00  0.00    +0.000 A 
ATOM     30  C   UNL     1       1.673  13.074  18.446  0.00  0.00    +0.000 A 
ATOM     31  C   UNL     1       2.693  14.002  18.231  0.00  0.00    +0.000 A 
ATOM     32  C   UNL     1       3.391  14.511  19.317  0.00  0.00    +0.000 A 
ATOM     33  F   UNL     1       4.379  15.392  19.113  0.00  0.00    +0.000 F 
ATOM     34  C   UNL     1       3.083  14.114  20.614  0.00  0.00    +0.000 A 
ATOM     35  C   UNL     1       2.064  13.183  20.829  0.00  0.00    +0.000 A 
ENDBRANCH  28  29
ENDBRANCH   9  28
TORSDOF 7
ENDMDL
MODEL 3
REMARK VINA RESULT:      -8.2      2.210      2.866
REMARK  Name = 
REMARK  8 active torsions:
REMARK  status: ('A' for Active; 'I' for Inactive)
REMARK    1  A    between atoms: C_1  and  N_2
REMARK    2  A    between atoms: N_2  and  C_3
REMARK    3  A    between atoms: C_3  and  C_4
REMARK    4  A    between atoms: N_6  and  C_7
REMARK    5  A    between atoms: C_7  and  C_8
REMARK    6  A    between atoms: C_14  and  C_16
REMARK    7  A    between atoms: N_24  and  C_25
REMARK    8  A    between atoms: C_25  and  C_26
REMARK                            x       y       z     vdW  Elec       q    Type
REMARK                         _______ _______ _______ _____ _____    ______ ____
ROOT
ATOM      1  C   UNL     1       2.385   5.436  18.904  0.00  0.00    +0.000 A 
ATOM      2  C   UNL     1       1.881   6.065  20.072  0.00  0.00    +0.000 A 
ATOM      3  C   UNL     1       1.883   7.426  19.819  0.00  0.00    +0.000 A 
ATOM      4  N   UNL     1       2.407   7.546  18.564  0.00  0.00    +0.000 N 
ATOM      5  N   UNL     1       2.729   6.368  18.006  0.00  0.00    +0.000 NA
ATOM      6  C   UNL     1       2.747   8.752  17.841  0.00  0.00    +0.000 C 
ATOM      7  C   UNL     1       1.742   9.903  17.880  0.00  0.00    +0.000 C 
ATOM      8  C   UNL     1       0.485   9.646  18.703  0.00  0.00    +0.000 C 
ATOM      9  N   UNL     1       0.814   9.576  20.122  0.00  0.00    +0.000 N 
ATOM     10  C   UNL     1       1.461   8.481  20.701  0.00  0.00    +0.000 C 
ATOM     11  O   UNL     1       1.648   8.410  21.912  0.00  0.00    +0.000 OA
ENDROOT
BRANCH   1  14
ATOM     12  C   UNL     1       3.692   1.883  18.608  0.00  0.00    +0.000 C 
ATOM     13  N   UNL     1       3.756   3.335  18.659  0.00  0.00    +0.000 N 
ATOM     14  C   UNL     1       2.494   3.979  18.690  0.00  0.00    +0.000 C 
ATOM     15  O   UNL     1       1.465   3.317  18.513  0.00  0.00    +0.000 OA
BRANCH  13  16
ATOM     16  C   UNL     1       4.969   3.925  19.257  0.00  0.00    +0.000 C 
BRANCH  16  17
ATOM     17  C   UNL     1       5.999   4.546  18.292  0.00  0.00    +0.000 C 
ATOM     18  O   UNL     1       7.208   4.496  18.526  0.00  0.00    +0.000 OA
ATOM     19  N   UNL     1       5.495   5.023  17.102  0.00  0.00    +0.000 N 
ATOM     20  H   UNL     1       4.489   5.034  16.989  0.00  0.00    +0.000 HD
BRANCH  19  21
ATOM     21  C   UNL     1       6.336   5.688  16.133  0.00  0.00    +0.000 C 
BRANCH  21  22
ATOM     22  C   UNL     1       6.332   4.995  14.798  0.00  0.00    +0.000 A 
ATOM     23  C   UNL     1       5.283   4.159  14.403  0.00  0.00    +0.000 A 
ATOM     24  C   UNL     1       5.341   3.511  13.172  0.00  0.00    +0.000 A 
ATOM     25  C   UNL     1       6.448   3.723  12.368  0.00  0.00    +0.000 A 
ATOM     26  N   UNL     1       7.478   4.531  12.705  0.00  0.00    +0.000 NA
ATOM     27  C   UNL     1       7.397   5.140  13.913  0.00  0.00    +0.000 A 
ENDBRANCH  21  22
ENDBRANCH  19  21
ENDBRANCH  16  17
ENDBRANCH  13  16
ENDBRANCH   1  14
BRANCH   9  28
ATOM     28  C   UNL     1       0.329  10.642  20.998  0.00  0.00    +0.000 C 
BRANCH  28  29
ATOM     29  C   UNL     1       0.467  12.018  20.384  0.00  0.00    +0.000 A 
ATOM     30  C   UNL     1       1.723  12.648  20.334  0.00  0.00    +0.000 A 
ATOM     31  C   UNL     1       1.860  13.929  19.798  0.00  0.00    +0.000 A 
ATOM     32  C   UNL     1       0.741  14.585  19.305  0.00  0.00    +0.000 A 
ATOM     33  F   UNL     1       0.867  15.819  18.801  0.00  0.00    +0.000 F 
ATOM     34  C   UNL     1      -0.511  13.980  19.332  0.00  0.00    +0.000 A 
ATOM     35  C   UNL     1      -0.649  12.698  19.871  0.00  0.00    +0.000 A 
ENDBRANCH  28  29
ENDBRANCH   9  28
TORSDOF 7
ENDMDL
MODEL 4
REMARK VINA RESULT:      -8.0      1.901      2.604
REMARK  Name = 
REMARK  8 active torsions:
REMARK  status: ('A' for Active; 'I' for Inactive)
REMARK    1  A    between atoms: C_1  and  N_2
REMARK    2  A    between atoms: N_2  and  C_3
REMARK    3  A    between atoms: C_3  and  C_4
REMARK    4  A    between atoms: N_6  and  C_7
REMARK    5  A    between atoms: C_7  and  C_8
REMARK    6  A    between atoms: C_14  and  C_16
REMARK    7  A    between atoms: N_24  and  C_25
REMARK    8  A    between atoms: C_25  and  C_26
REMARK                            x       y       z     vdW  Elec       q    Type
REMARK                         _______ _______ _______ _____ _____    ______ ____
ROOT
ATOM      1  C   UNL     1       2.095   5.488  19.052  0.00  0.00    +0.000 A 
ATOM      2  C   UNL     1       1.663   6.184  20.210  0.00  0.00    +0.000 A 
ATOM      3  C   UNL     1       1.746   7.533  19.914  0.00  0.00    +0.000 A 
ATOM      4  N   UNL     1       2.243   7.580  18.643  0.00  0.00    +0.000 N 
ATOM      5  N   UNL     1       2.475   6.367  18.116  0.00  0.00    +0.000 NA
ATOM      6  C   UNL     1       2.640   8.739  17.873  0.00  0.00    +0.000 C 
ATOM      7  C   UNL     1       1.713   9.953  17.900  0.00  0.00    +0.000 C 
ATOM      8  C   UNL     1       0.464   9.804  18.761  0.00  0.00    +0.000 C 
ATOM      9  N   UNL     1       0.824   9.756  20.173  0.00  0.00    +0.000 N 
ATOM     10  C   UNL     1       1.415   8.640  20.771  0.00  0.00    +0.000 C 
ATOM     11  O   UNL     1       1.628   8.593  21.979  0.00  0.00    +0.000 OA
ENDROOT
BRANCH   1  14
ATOM     12  C   UNL     1       3.103   1.827  19.039  0.00  0.00    +0.000 C 
ATOM     13  N   UNL     1       3.290   3.268  19.078  0.00  0.00    +0.000 N 
ATOM     14  C   UNL     1       2.105   4.021  18.882  0.00  0.00    +0.000 C 
ATOM     15  O   UNL     1       1.064   3.446  18.542  0.00  0.00    +0.000 OA
BRANCH  13  16
ATOM     16  C   UNL     1       4.433   3.768  19.865  0.00  0.00    +0.000 C 
BRANCH  16  17
ATOM     17  C   UNL     1       5.489   4.608  19.118  0.00  0.00    +0.000 C 
ATOM     18  O   UNL     1       5.587   5.824  19.300  0.00  0.00    +0.000 OA
ATOM     19  N   UNL     1       6.393   3.899  18.358  0.00  0.00    +0.000 N 
ATOM     20  H   UNL     1       6.239   2.903  18.255  0.00  0.00    +0.000 HD
BRANCH  19  21
ATOM     21  C   UNL     1       7.396   4.561  17.556  0.00  0.00    +0.000 C 
BRANCH  21  22
ATOM     22  C   UNL     1       7.054   4.557  16.092  0.00  0.00    +0.000 A 
ATOM     23  C   UNL     1       6.031   3.756  15.574  0.00  0.00    +0.000 A 
ATOM     24  C   UNL     1       5.775   3.759  14.206  0.00  0.00    +0.000 A 
ATOM     25  C   UNL     1       6.549   4.571  13.393  0.00  0.00    +0.000 A 
ATOM     26  N   UNL     1       7.538   5.369  13.852  0.00  0.00    +0.000 NA
ATOM     27  C   UNL     1       7.769   5.337  15.187  0.00  0.00    +0.000 A 
ENDBRANCH  21  22
ENDBRANCH  19  21
ENDBRANCH  16  17
ENDBRANCH  13  16
ENDBRANCH   1  14
BRANCH   9  28
ATOM     28  C   UNL     1       0.431  10.877  21.025  0.00  0.00    +0.000 C 
BRANCH  28  29
ATOM     29  C   UNL     1       0.632  12.222  20.361  0.00  0.00    +0.000 A 
ATOM     30  C   UNL     1      -0.462  12.904  19.800  0.00  0.00    +0.000 A 
ATOM     31  C   UNL     1      -0.288  14.132  19.159  0.00  0.00    +0.000 A 
ATOM     32  C   UNL     1       0.983  14.684  19.080  0.00  0.00    +0.000 A 
ATOM     33  F   UNL     1       1.156  15.856  18.455  0.00  0.00    +0.000 F 
ATOM     34  C   UNL     1       2.080  14.036  19.637  0.00  0.00    +0.000 A 
ATOM     35  C   UNL     1       1.906  12.805  20.276  0.00  0.00    +0.000 A 
ENDBRANCH  28  29
ENDBRANCH   9  28
TORSDOF 7
ENDMDL
MODEL 5
REMARK VINA RESULT:      -8.0      1.984      4.226
REMARK  Name = 
REMARK  8 active torsions:
REMARK  status: ('A' for Active; 'I' for Inactive)
REMARK    1  A    between atoms: C_1  and  N_2
REMARK    2  A    between atoms: N_2  and  C_3
REMARK    3  A    between atoms: C_3  and  C_4
REMARK    4  A    between atoms: N_6  and  C_7
REMARK    5  A    between atoms: C_7  and  C_8
REMARK    6  A    between atoms: C_14  and  C_16
REMARK    7  A    between atoms: N_24  and  C_25
REMARK    8  A    between atoms: C_25  and  C_26
REMARK                            x       y       z     vdW  Elec       q    Type
REMARK                         _______ _______ _______ _____ _____    ______ ____
ROOT
ATOM      1  C   UNL     1       4.487   6.405  18.372  0.00  0.00    +0.000 A 
ATOM      2  C   UNL     1       3.828   7.534  17.819  0.00  0.00    +0.000 A 
ATOM      3  C   UNL     1       2.683   7.730  18.569  0.00  0.00    +0.000 A 
ATOM      4  N   UNL     1       2.690   6.718  19.486  0.00  0.00    +0.000 N 
ATOM      5  N   UNL     1       3.752   5.904  19.374  0.00  0.00    +0.000 NA
ATOM      6  C   UNL     1       1.670   6.368  20.450  0.00  0.00    +0.000 C 
ATOM      7  C   UNL     1       1.024   7.508  21.236  0.00  0.00    +0.000 C 
ATOM      8  C   UNL     1       1.529   8.905  20.897  0.00  0.00    +0.000 C 
ATOM      9  N   UNL     1       1.108   9.283  19.552  0.00  0.00    +0.000 N 
ATOM     10  C   UNL     1       1.686   8.753  18.396  0.00  0.00    +0.000 C 
ATOM     11  O   UNL     1       1.373   9.152  17.278  0.00  0.00    +0.000 OA
ENDROOT
BRANCH   1  14
ATOM     12  C   UNL     1       7.217   4.446  16.605  0.00  0.00    +0.000 C 
ATOM     13  N   UNL     1       5.875   4.747  17.077  0.00  0.00    +0.000 N 
ATOM     14  C   UNL     1       5.793   5.871  17.937  0.00  0.00    +0.000 C 
ATOM     15  O   UNL     1       6.830   6.403  18.350  0.00  0.00    +0.000 OA
BRANCH  13  16
ATOM     16  C   UNL     1       4.758   4.315  16.218  0.00  0.00    +0.000 C 
BRANCH  16  17
ATOM     17  C   UNL     1       3.742   3.327  16.827  0.00  0.00    +0.000 C 
ATOM     18  O   UNL     1       2.556   3.336  16.489  0.00  0.00    +0.000 OA
ATOM     19  N   UNL     1       4.268   2.357  17.652  0.00  0.00    +0.000 N 
ATOM     20  H   UNL     1       5.251   2.423  17.885  0.00  0.00    +0.000 HD
BRANCH  19  21
ATOM     21  C   UNL     1       3.426   1.406  18.341  0.00  0.00    +0.000 C 
BRANCH  21  22
ATOM     22  C   UNL     1       2.747   2.006  19.542  0.00  0.00    +0.000 A 
ATOM     23  C   UNL     1       1.397   2.367  19.524  0.00  0.00    +0.000 A 
ATOM     24  C   UNL     1       0.822   2.951  20.649  0.00  0.00    +0.000 A 
ATOM     25  C   UNL     1       1.617   3.152  21.765  0.00  0.00    +0.000 A 
ATOM     26  N   UNL     1       2.922   2.808  21.830  0.00  0.00    +0.000 NA
ATOM     27  C   UNL     1       3.455   2.250  20.716  0.00  0.00    +0.000 A 
ENDBRANCH  21  22
ENDBRANCH  19  21
ENDBRANCH  16  17
ENDBRANCH  13  16
ENDBRANCH   1  14
BRANCH   9  28
ATOM     28  C   UNL     1       0.128  10.359  19.411  0.00  0.00    +0.000 C 
BRANCH  28  29
ATOM     29  C   UNL     1       0.682  11.715  19.791  0.00  0.00    +0.000 A 
ATOM     30  C   UNL     1       1.690  12.311  19.012  0.00  0.00    +0.000 A 
ATOM     31  C   UNL     1       2.229  13.549  19.366  0.00  0.00    +0.000 A 
ATOM     32  C   UNL     1       1.760  14.197  20.500  0.00  0.00    +0.000 A 
ATOM     33  F   UNL     1       2.285  15.379  20.849  0.00  0.00    +0.000 F 
ATOM     34  C   UNL     1       0.756  13.635  21.281  0.00  0.00    +0.000 A 
ATOM     35  C   UNL     1       0.217  12.395  20.928  0.00  0.00    +0.000 A 
ENDBRANCH  28  29
ENDBRANCH   9  28
TORSDOF 7
ENDMDL
MODEL 6
REMARK VINA RESULT:      -8.0      2.163      2.857
REMARK  Name = 
REMARK  8 active torsions:
REMARK  status: ('A' for Active; 'I' for Inactive)
REMARK    1  A    between atoms: C_1  and  N_2
REMARK    2  A    between atoms: N_2  and  C_3
REMARK    3  A    between atoms: C_3  and  C_4
REMARK    4  A    between atoms: N_6  and  C_7
REMARK    5  A    between atoms: C_7  and  C_8
REMARK    6  A    between atoms: C_14  and  C_16
REMARK    7  A    between atoms: N_24  and  C_25
REMARK    8  A    between atoms: C_25  and  C_26
REMARK                            x       y       z     vdW  Elec       q    Type
REMARK                         _______ _______ _______ _____ _____    ______ ____
ROOT
ATOM      1  C   UNL     1       1.774   5.871  20.220  0.00  0.00    +0.000 A 
ATOM      2  C   UNL     1       1.490   6.884  21.172  0.00  0.00    +0.000 A 
ATOM      3  C   UNL     1       1.665   8.094  20.525  0.00  0.00    +0.000 A 
ATOM      4  N   UNL     1       2.069   7.760  19.265  0.00  0.00    +0.000 N 
ATOM      5  N   UNL     1       2.157   6.435  19.067  0.00  0.00    +0.000 NA
ATOM      6  C   UNL     1       2.505   8.633  18.197  0.00  0.00    +0.000 C 
ATOM      7  C   UNL     1       1.689   9.900  17.946  0.00  0.00    +0.000 C 
ATOM      8  C   UNL     1       0.499  10.106  18.876  0.00  0.00    +0.000 C 
ATOM      9  N   UNL     1       0.957  10.390  20.231  0.00  0.00    +0.000 N 
ATOM     10  C   UNL     1       1.494   9.414  21.074  0.00  0.00    +0.000 C 
ATOM     11  O   UNL     1       1.791   9.660  22.239  0.00  0.00    +0.000 OA
ENDROOT
BRANCH   1  14
ATOM     12  C   UNL     1       1.454   2.120  19.723  0.00  0.00    +0.000 C 
ATOM     13  N   UNL     1       1.385   3.530  19.371  0.00  0.00    +0.000 N 
ATOM     14  C   UNL     1       1.646   4.417  20.445  0.00  0.00    +0.000 C 
ATOM     15  O   UNL     1       1.747   3.974  21.595  0.00  0.00    +0.000 OA
BRANCH  13  16
ATOM     16  C   UNL     1       1.657   3.876  17.964  0.00  0.00    +0.000 C 
BRANCH  16  17
ATOM     17  C   UNL     1       3.067   3.563  17.422  0.00  0.00    +0.000 C 
ATOM     18  O   UNL     1       3.495   2.409  17.377  0.00  0.00    +0.000 OA
ATOM     19  N   UNL     1       3.745   4.626  16.866  0.00  0.00    +0.000 N 
ATOM     20  H   UNL     1       3.327   5.544  16.949  0.00  0.00    +0.000 HD
BRANCH  19  21
ATOM     21  C   UNL     1       5.098   4.492  16.377  0.00  0.00    +0.000 C 
BRANCH  21  22
ATOM     22  C   UNL     1       6.092   5.237  17.226  0.00  0.00    +0.000 A 
ATOM     23  C   UNL     1       6.545   6.514  16.883  0.00  0.00    +0.000 A 
ATOM     24  C   UNL     1       7.493   7.149  17.681  0.00  0.00    +0.000 A 
ATOM     25  C   UNL     1       7.955   6.488  18.807  0.00  0.00    +0.000 A 
ATOM     26  N   UNL     1       7.536   5.259  19.182  0.00  0.00    +0.000 NA
ATOM     27  C   UNL     1       6.621   4.663  18.379  0.00  0.00    +0.000 A 
ENDBRANCH  21  22
ENDBRANCH  19  21
ENDBRANCH  16  17
ENDBRANCH  13  16
ENDBRANCH   1  14
BRANCH   9  28
ATOM     28  C   UNL     1       0.725  11.728  20.774  0.00  0.00    +0.000 C 
BRANCH  28  29
ATOM     29  C   UNL     1      -0.687  11.922  21.283  0.00  0.00    +0.000 A 
ATOM     30  C   UNL     1      -1.690  12.402  20.422  0.00  0.00    +0.000 A 
ATOM     31  C   UNL     1      -2.989  12.613  20.885  0.00  0.00    +0.000 A 
ATOM     32  C   UNL     1      -3.292  12.341  22.212  0.00  0.00    +0.000 A 
ATOM     33  F   UNL     1      -4.535  12.555  22.662  0.00  0.00    +0.000 F 
ATOM     34  C   UNL     1      -2.322  11.855  23.081  0.00  0.00    +0.000 A 
ATOM     35  C   UNL     1      -1.020  11.646  22.619  0.00  0.00    +0.000 A 
ENDBRANCH  28  29
ENDBRANCH   9  28
TORSDOF 7
ENDMDL
MODEL 7
REMARK VINA RESULT:      -7.9      2.238      2.834
REMARK  Name = 
REMARK  8 active torsions:
REMARK  status: ('A' for Active; 'I' for Inactive)
REMARK    1  A    between atoms: C_1  and  N_2
REMARK    2  A    between atoms: N_2  and  C_3
REMARK    3  A    between atoms: C_3  and  C_4
REMARK    4  A    between atoms: N_6  and  C_7
REMARK    5  A    between atoms: C_7  and  C_8
REMARK    6  A    between atoms: C_14  and  C_16
REMARK    7  A    between atoms: N_24  and  C_25
REMARK    8  A    between atoms: C_25  and  C_26
REMARK                            x       y       z     vdW  Elec       q    Type
REMARK                         _______ _______ _______ _____ _____    ______ ____
ROOT
ATOM      1  C   UNL     1       1.684   5.780  19.929  0.00  0.00    +0.000 A 
ATOM      2  C   UNL     1       1.424   6.715  20.964  0.00  0.00    +0.000 A 
ATOM      3  C   UNL     1       1.648   7.971  20.428  0.00  0.00    +0.000 A 
ATOM      4  N   UNL     1       2.056   7.733  19.146  0.00  0.00    +0.000 N 
ATOM      5  N   UNL     1       2.100   6.429  18.834  0.00  0.00    +0.000 NA
ATOM      6  C   UNL     1       2.535   8.681  18.163  0.00  0.00    +0.000 C 
ATOM      7  C   UNL     1       1.766   9.993  18.017  0.00  0.00    +0.000 C 
ATOM      8  C   UNL     1       0.573  10.160  18.951  0.00  0.00    +0.000 C 
ATOM      9  N   UNL     1       1.026  10.307  20.330  0.00  0.00    +0.000 N 
ATOM     10  C   UNL     1       1.517   9.242  21.088  0.00  0.00    +0.000 C 
ATOM     11  O   UNL     1       1.810   9.375  22.273  0.00  0.00    +0.000 OA
ENDROOT
BRANCH   1  14
ATOM     12  C   UNL     1       1.601   2.061  19.170  0.00  0.00    +0.000 C 
ATOM     13  N   UNL     1       1.642   3.486  18.885  0.00  0.00    +0.000 N 
ATOM     14  C   UNL     1       1.503   4.318  20.025  0.00  0.00    +0.000 C 
ATOM     15  O   UNL     1       1.201   3.817  21.114  0.00  0.00    +0.000 OA
BRANCH  13  16
ATOM     16  C   UNL     1       2.384   3.901  17.680  0.00  0.00    +0.000 C 
BRANCH  16  17
ATOM     17  C   UNL     1       3.914   3.708  17.694  0.00  0.00    +0.000 C 
ATOM     18  O   UNL     1       4.487   3.187  18.653  0.00  0.00    +0.000 OA
ATOM     19  N   UNL     1       4.569   4.020  16.522  0.00  0.00    +0.000 N 
ATOM     20  H   UNL     1       4.027   4.449  15.782  0.00  0.00    +0.000 HD
BRANCH  19  21
ATOM     21  C   UNL     1       6.008   3.948  16.413  0.00  0.00    +0.000 C 
BRANCH  21  22
ATOM     22  C   UNL     1       6.690   5.136  17.034  0.00  0.00    +0.000 A 
ATOM     23  C   UNL     1       7.408   5.034  18.230  0.00  0.00    +0.000 A 
ATOM     24  C   UNL     1       7.992   6.169  18.785  0.00  0.00    +0.000 A 
ATOM     25  C   UNL     1       7.846   7.376  18.122  0.00  0.00    +0.000 A 
ATOM     26  N   UNL     1       7.172   7.517  16.959  0.00  0.00    +0.000 NA
ATOM     27  C   UNL     1       6.606   6.396  16.450  0.00  0.00    +0.000 A 
ENDBRANCH  21  22
ENDBRANCH  19  21
ENDBRANCH  16  17
ENDBRANCH  13  16
ENDBRANCH   1  14
BRANCH   9  28
ATOM     28  C   UNL     1       0.834  11.600  20.986  0.00  0.00    +0.000 C 
BRANCH  28  29
ATOM     29  C   UNL     1      -0.595  11.832  21.428  0.00  0.00    +0.000 A 
ATOM     30  C   UNL     1      -1.543  12.337  20.520  0.00  0.00    +0.000 A 
ATOM     31  C   UNL     1      -2.857  12.584  20.921  0.00  0.00    +0.000 A 
ATOM     32  C   UNL     1      -3.229  12.322  22.232  0.00  0.00    +0.000 A 
ATOM     33  F   UNL     1      -4.486  12.569  22.623  0.00  0.00    +0.000 F 
ATOM     34  C   UNL     1      -2.314  11.812  23.146  0.00  0.00    +0.000 A 
ATOM     35  C   UNL     1      -0.998  11.567  22.746  0.00  0.00    +0.000 A 
ENDBRANCH  28  29
ENDBRANCH   9  28
TORSDOF 7
ENDMDL
MODEL 8
REMARK VINA RESULT:      -7.9      2.072      2.684
REMARK  Name = 
REMARK  8 active torsions:
REMARK  status: ('A' for Active; 'I' for Inactive)
REMARK    1  A    between atoms: C_1  and  N_2
REMARK    2  A    between atoms: N_2  and  C_3
REMARK    3  A    between atoms: C_3  and  C_4
REMARK    4  A    between atoms: N_6  and  C_7
REMARK    5  A    between atoms: C_7  and  C_8
REMARK    6  A    between atoms: C_14  and  C_16
REMARK    7  A    between atoms: N_24  and  C_25
REMARK    8  A    between atoms: C_25  and  C_26
REMARK                            x       y       z     vdW  Elec       q    Type
REMARK                         _______ _______ _______ _____ _____    ______ ____
ROOT
ATOM      1  C   UNL     1       1.882   6.110  20.329  0.00  0.00    +0.000 A 
ATOM      2  C   UNL     1       1.287   7.139  21.103  0.00  0.00    +0.000 A 
ATOM      3  C   UNL     1       1.431   8.310  20.381  0.00  0.00    +0.000 A 
ATOM      4  N   UNL     1       2.118   7.945  19.259  0.00  0.00    +0.000 N 
ATOM      5  N   UNL     1       2.412   6.636  19.217  0.00  0.00    +0.000 NA
ATOM      6  C   UNL     1       2.643   8.790  18.208  0.00  0.00    +0.000 C 
ATOM      7  C   UNL     1       1.738   9.903  17.682  0.00  0.00    +0.000 C 
ATOM      8  C   UNL     1       0.370  10.003  18.346  0.00  0.00    +0.000 C 
ATOM      9  N   UNL     1       0.509  10.451  19.728  0.00  0.00    +0.000 N 
ATOM     10  C   UNL     1       0.987   9.628  20.751  0.00  0.00    +0.000 C 
ATOM     11  O   UNL     1       1.012  10.002  21.920  0.00  0.00    +0.000 OA
ENDROOT
BRANCH   1  14
ATOM     12  C   UNL     1       1.634   2.324  20.181  0.00  0.00    +0.000 C 
ATOM     13  N   UNL     1       1.396   3.700  19.774  0.00  0.00    +0.000 N 
ATOM     14  C   UNL     1       1.899   4.674  20.673  0.00  0.00    +0.000 C 
ATOM     15  O   UNL     1       2.339   4.322  21.773  0.00  0.00    +0.000 OA
BRANCH  13  16
ATOM     16  C   UNL     1       1.247   3.947  18.328  0.00  0.00    +0.000 C 
BRANCH  16  17
ATOM     17  C   UNL     1       2.467   3.652  17.433  0.00  0.00    +0.000 C 
ATOM     18  O   UNL     1       2.420   2.797  16.546  0.00  0.00    +0.000 OA
ATOM     19  N   UNL     1       3.547   4.492  17.594  0.00  0.00    +0.000 N 
ATOM     20  H   UNL     1       3.509   5.165  18.350  0.00  0.00    +0.000 HD
BRANCH  19  21
ATOM     21  C   UNL     1       4.780   4.292  16.867  0.00  0.00    +0.000 C 
BRANCH  21  22
ATOM     22  C   UNL     1       5.854   5.259  17.283  0.00  0.00    +0.000 A 
ATOM     23  C   UNL     1       6.805   4.934  18.256  0.00  0.00    +0.000 A 
ATOM     24  C   UNL     1       7.758   5.876  18.634  0.00  0.00    +0.000 A 
ATOM     25  C   UNL     1       7.736   7.117  18.020  0.00  0.00    +0.000 A 
ATOM     26  N   UNL     1       6.844   7.469  17.068  0.00  0.00    +0.000 NA
ATOM     27  C   UNL     1       5.923   6.535  16.730  0.00  0.00    +0.000 A 
ENDBRANCH  21  22
ENDBRANCH  19  21
ENDBRANCH  16  17
ENDBRANCH  13  16
ENDBRANCH   1  14
BRANCH   9  28
ATOM     28  C   UNL     1       0.005  11.777  20.078  0.00  0.00    +0.000 C 
BRANCH  28  29
ATOM     29  C   UNL     1      -1.477  11.936  19.811  0.00  0.00    +0.000 A 
ATOM     30  C   UNL     1      -2.296  12.600  20.740  0.00  0.00    +0.000 A 
ATOM     31  C   UNL     1      -3.669  12.729  20.520  0.00  0.00    +0.000 A 
ATOM     32  C   UNL     1      -4.226  12.195  19.367  0.00  0.00    +0.000 A 
ATOM     33  F   UNL     1      -5.545  12.306  19.159  0.00  0.00    +0.000 F 
ATOM     34  C   UNL     1      -3.436  11.544  18.426  0.00  0.00    +0.000 A 
ATOM     35  C   UNL     1      -2.063  11.413  18.647  0.00  0.00    +0.000 A 
ENDBRANCH  28  29
ENDBRANCH   9  28
TORSDOF 7
ENDMDL
MODEL 9
REMARK VINA RESULT:      -7.9      2.235      3.015
REMARK  Name = 
REMARK  8 active torsions:
REMARK  status: ('A' for Active; 'I' for Inactive)
REMARK    1  A    between atoms: C_1  and  N_2
REMARK    2  A    between atoms: N_2  and  C_3
REMARK    3  A    between atoms: C_3  and  C_4
REMARK    4  A    between atoms: N_6  and  C_7
REMARK    5  A    between atoms: C_7  and  C_8
REMARK    6  A    between atoms: C_14  and  C_16
REMARK    7  A    between atoms: N_24  and  C_25
REMARK    8  A    between atoms: C_25  and  C_26
REMARK                            x       y       z     vdW  Elec       q    Type
REMARK                         _______ _______ _______ _____ _____    ______ ____
ROOT
ATOM      1  C   UNL     1       2.322   5.320  18.690  0.00  0.00    +0.000 A 
ATOM      2  C   UNL     1       1.843   5.926  19.880  0.00  0.00    +0.000 A 
ATOM      3  C   UNL     1       1.910   7.293  19.682  0.00  0.00    +0.000 A 
ATOM      4  N   UNL     1       2.445   7.438  18.434  0.00  0.00    +0.000 N 
ATOM      5  N   UNL     1       2.715   6.270  17.830  0.00  0.00    +0.000 NA
ATOM      6  C   UNL     1       2.845   8.655  17.761  0.00  0.00    +0.000 C 
ATOM      7  C   UNL     1       1.896   9.849  17.843  0.00  0.00    +0.000 C 
ATOM      8  C   UNL     1       0.624   9.620  18.651  0.00  0.00    +0.000 C 
ATOM      9  N   UNL     1       0.942   9.478  20.067  0.00  0.00    +0.000 N 
ATOM     10  C   UNL     1       1.534   8.332  20.604  0.00  0.00    +0.000 C 
ATOM     11  O   UNL     1       1.711   8.203  21.812  0.00  0.00    +0.000 OA
ENDROOT
BRANCH   1  14
ATOM     12  C   UNL     1       3.426   1.700  18.377  0.00  0.00    +0.000 C 
ATOM     13  N   UNL     1       3.576   3.141  18.508  0.00  0.00    +0.000 N 
ATOM     14  C   UNL     1       2.363   3.869  18.418  0.00  0.00    +0.000 C 
ATOM     15  O   UNL     1       1.324   3.288  18.084  0.00  0.00    +0.000 OA
BRANCH  13  16
ATOM     16  C   UNL     1       4.740   3.619  19.277  0.00  0.00    +0.000 C 
BRANCH  16  17
ATOM     17  C   UNL     1       5.716   4.572  18.557  0.00  0.00    +0.000 C 
ATOM     18  O   UNL     1       6.078   5.630  19.075  0.00  0.00    +0.000 OA
ATOM     19  N   UNL     1       6.260   4.099  17.383  0.00  0.00    +0.000 N 
ATOM     20  H   UNL     1       5.905   3.222  17.021  0.00  0.00    +0.000 HD
BRANCH  19  21
ATOM     21  C   UNL     1       7.139   4.910  16.572  0.00  0.00    +0.000 C 
BRANCH  21  22
ATOM     22  C   UNL     1       6.982   4.634  15.102  0.00  0.00    +0.000 A 
ATOM     23  C   UNL     1       7.769   5.276  14.142  0.00  0.00    +0.000 A 
ATOM     24  C   UNL     1       7.563   5.014  12.790  0.00  0.00    +0.000 A 
ATOM     25  C   UNL     1       6.575   4.110  12.438  0.00  0.00    +0.000 A 
ATOM     26  N   UNL     1       5.799   3.459  13.333  0.00  0.00    +0.000 NA
ATOM     27  C   UNL     1       6.018   3.742  14.640  0.00  0.00    +0.000 A 
ENDBRANCH  21  22
ENDBRANCH  19  21
ENDBRANCH  16  17
ENDBRANCH  13  16
ENDBRANCH   1  14
BRANCH   9  28
ATOM     28  C   UNL     1       0.503  10.529  20.983  0.00  0.00    +0.000 C 
BRANCH  28  29
ATOM     29  C   UNL     1       0.560  11.911  20.367  0.00  0.00    +0.000 A 
ATOM     30  C   UNL     1      -0.582  12.463  19.761  0.00  0.00    +0.000 A 
ATOM     31  C   UNL     1      -0.536  13.724  19.164  0.00  0.00    +0.000 A 
ATOM     32  C   UNL     1       0.654  14.439  19.173  0.00  0.00    +0.000 A 
ATOM     33  F   UNL     1       0.704  15.644  18.590  0.00  0.00    +0.000 F 
ATOM     34  C   UNL     1       1.794  13.920  19.776  0.00  0.00    +0.000 A 
ATOM     35  C   UNL     1       1.750  12.657  20.372  0.00  0.00    +0.000 A 
ENDBRANCH  28  29
ENDBRANCH   9  28
TORSDOF 7
ENDMDL
