MODEL 1
REMARK VINA RESULT:      -7.0      0.000      0.000
REMARK  Name = 
REMARK  9 active torsions:
REMARK  status: ('A' for Active; 'I' for Inactive)
REMARK    1  A    between atoms: C_1  and  O_2
REMARK    2  A    between atoms: O_2  and  N_3
REMARK    3  A    between atoms: C_4  and  C_5
REMARK    4  A    between atoms: C_6  and  C_7
REMARK    5  A    between atoms: C_17  and  C_18
REMARK    6  A    between atoms: C_21  and  C_22
REMARK    7  A    between atoms: C_23  and  O_24
REMARK    8  A    between atoms: C_25  and  C_26
REMARK    9  A    between atoms: C_25  and  C_27
REMARK                            x       y       z     vdW  Elec       q    Type
REMARK                         _______ _______ _______ _____ _____    ______ ____
ROOT
ATOM      1  C   UNL     1      -1.934  12.808  22.049  0.00  0.00    +0.000 A 
ATOM      2  C   UNL     1      -1.551  13.057  20.704  0.00  0.00    +0.000 A 
ATOM      3  C   UNL     1      -1.696  14.374  20.235  0.00  0.00    +0.000 A 
ATOM      4  C   UNL     1      -2.140  15.424  21.054  0.00  0.00    +0.000 A 
ATOM      5  C   UNL     1      -2.115  16.825  20.494  0.00  0.00    +0.000 C 
ATOM      6  C   UNL     1      -2.613  15.152  22.353  0.00  0.00    +0.000 A 
ATOM      7  C   UNL     1      -2.540  13.823  22.858  0.00  0.00    +0.000 A 
ATOM      8  C   UNL     1      -3.071  13.521  24.267  0.00  0.00    +0.000 C 
ATOM      9  C   UNL     1      -4.395  12.728  24.290  0.00  0.00    +0.000 C 
ATOM     10  C   UNL     1      -3.238  14.802  25.107  0.00  0.00    +0.000 C 
ATOM     11  C   UNL     1      -3.884  15.960  24.308  0.00  0.00    +0.000 C 
ATOM     12  C   UNL     1      -5.306  15.717  23.775  0.00  0.00    +0.000 C 
ATOM     13  C   UNL     1      -3.946  17.214  25.201  0.00  0.00    +0.000 C 
ATOM     14  N   UNL     1      -2.991  16.245  23.167  0.00  0.00    +0.000 N 
ATOM     15  H   UNL     1      -3.313  17.044  22.626  0.00  0.00    +0.000 HD
ENDROOT
BRANCH   2  16
ATOM     16  C   UNL     1      -1.087  11.999  19.764  0.00  0.00    +0.000 A 
ATOM     17  C   UNL     1       0.260  11.564  19.745  0.00  0.00    +0.000 A 
ATOM     18  C   UNL     1       0.731  10.596  18.860  0.00  0.00    +0.000 A 
ATOM     19  C   UNL     1      -0.141   9.967  17.977  0.00  0.00    +0.000 A 
ATOM     20  C   UNL     1      -1.502  10.319  17.988  0.00  0.00    +0.000 A 
ATOM     21  C   UNL     1      -2.627   9.844  17.258  0.00  0.00    +0.000 A 
ATOM     22  C   UNL     1      -3.726  10.551  17.682  0.00  0.00    +0.000 A 
ATOM     23  N   UNL     1      -3.300  11.463  18.610  0.00  0.00    +0.000 N 
ATOM     24  C   UNL     1      -1.946  11.323  18.858  0.00  0.00    +0.000 A 
ATOM     25  H   UNL     1      -3.901  12.131  19.071  0.00  0.00    +0.000 HD
ENDBRANCH   2  16
BRANCH   1  27
ATOM     26  N   UNL     1      -0.441  11.233  23.140  0.00  0.00    +0.000 NA
ATOM     27  C   UNL     1      -1.596  11.469  22.617  0.00  0.00    +0.000 C 
BRANCH  26  29
ATOM     28  C   UNL     1      -0.363   9.068  22.488  0.00  0.00    +0.000 C 
ATOM     29  O   UNL     1      -0.327   9.931  23.623  0.00  0.00    +0.000 OA
ENDBRANCH  26  29
ENDBRANCH   1  27
BRANCH  10  30
ATOM     30  O   UNL     1      -1.924  15.212  25.551  0.00  0.00    +0.000 OA
ATOM     31  H   UNL     1      -2.088  15.664  26.406  0.00  0.00    +0.000 HD
ENDBRANCH  10  30
TORSDOF 4
ENDMDL
MODEL 2
REMARK VINA RESULT:      -6.8      3.123      4.741
REMARK  Name = 
REMARK  9 active torsions:
REMARK  status: ('A' for Active; 'I' for Inactive)
REMARK    1  A    between atoms: C_1  and  O_2
REMARK    2  A    between atoms: O_2  and  N_3
REMARK    3  A    between atoms: C_4  and  C_5
REMARK    4  A    between atoms: C_6  and  C_7
REMARK    5  A    between atoms: C_17  and  C_18
REMARK    6  A    between atoms: C_21  and  C_22
REMARK    7  A    between atoms: C_23  and  O_24
REMARK    8  A    between atoms: C_25  and  C_26
REMARK    9  A    between atoms: C_25  and  C_27
REMARK                            x       y       z     vdW  Elec       q    Type
REMARK                         _______ _______ _______ _____ _____    ______ ____
ROOT
ATOM      1  C   UNL     1      -2.992  12.169  19.473  0.00  0.00    +0.000 A 
ATOM      2  C   UNL     1      -1.774  12.474  20.138  0.00  0.00    +0.000 A 
ATOM      3  C   UNL     1      -1.862  12.827  21.496  0.00  0.00    +0.000 A 
ATOM      4  C   UNL     1      -3.076  12.827  22.200  0.00  0.00    +0.000 A 
ATOM      5  C   UNL     1      -3.037  13.073  23.689  0.00  0.00    +0.000 C 
ATOM      6  C   UNL     1      -4.289  12.623  21.513  0.00  0.00    +0.000 A 
ATOM      7  C   UNL     1      -4.260  12.318  20.124  0.00  0.00    +0.000 A 
ATOM      8  C   UNL     1      -5.582  12.112  19.368  0.00  0.00    +0.000 C 
ATOM      9  C   UNL     1      -5.952  13.264  18.410  0.00  0.00    +0.000 C 
ATOM     10  C   UNL     1      -6.760  11.859  20.329  0.00  0.00    +0.000 C 
ATOM     11  C   UNL     1      -6.750  12.808  21.551  0.00  0.00    +0.000 C 
ATOM     12  C   UNL     1      -6.872  14.312  21.253  0.00  0.00    +0.000 C 
ATOM     13  C   UNL     1      -7.917  12.438  22.486  0.00  0.00    +0.000 C 
ATOM     14  N   UNL     1      -5.483  12.568  22.270  0.00  0.00    +0.000 N 
ATOM     15  H   UNL     1      -5.428  13.110  23.129  0.00  0.00    +0.000 HD
ENDROOT
BRANCH   2  16
ATOM     16  C   UNL     1      -0.448  12.515  19.462  0.00  0.00    +0.000 A 
ATOM     17  C   UNL     1       0.189  13.742  19.155  0.00  0.00    +0.000 A 
ATOM     18  C   UNL     1       1.417  13.814  18.500  0.00  0.00    +0.000 A 
ATOM     19  C   UNL     1       2.104  12.652  18.163  0.00  0.00    +0.000 A 
ATOM     20  C   UNL     1       1.546  11.405  18.493  0.00  0.00    +0.000 A 
ATOM     21  C   UNL     1       2.005  10.069  18.328  0.00  0.00    +0.000 A 
ATOM     22  C   UNL     1       1.044   9.232  18.841  0.00  0.00    +0.000 A 
ATOM     23  N   UNL     1       0.004  10.010  19.272  0.00  0.00    +0.000 N 
ATOM     24  C   UNL     1       0.292  11.354  19.116  0.00  0.00    +0.000 A 
ATOM     25  H   UNL     1      -0.849   9.650  19.676  0.00  0.00    +0.000 HD
ENDBRANCH   2  16
BRANCH   1  27
ATOM     26  N   UNL     1      -2.822  10.329  17.898  0.00  0.00    +0.000 NA
ATOM     27  C   UNL     1      -2.893  11.601  18.096  0.00  0.00    +0.000 C 
BRANCH  26  29
ATOM     28  C   UNL     1      -3.222  11.133  15.822  0.00  0.00    +0.000 C 
ATOM     29  O   UNL     1      -2.748  10.000  16.546  0.00  0.00    +0.000 OA
ENDBRANCH  26  29
ENDBRANCH   1  27
BRANCH  10  30
ATOM     30  O   UNL     1      -6.665  10.492  20.793  0.00  0.00    +0.000 OA
ATOM     31  H   UNL     1      -7.561  10.291  21.136  0.00  0.00    +0.000 HD
ENDBRANCH  10  30
TORSDOF 4
ENDMDL
MODEL 3
REMARK VINA RESULT:      -6.4      1.121      1.943
REMARK  Name = 
REMARK  9 active torsions:
REMARK  status: ('A' for Active; 'I' for Inactive)
REMARK    1  A    between atoms: C_1  and  O_2
REMARK    2  A    between atoms: O_2  and  N_3
REMARK    3  A    between atoms: C_4  and  C_5
REMARK    4  A    between atoms: C_6  and  C_7
REMARK    5  A    between atoms: C_17  and  C_18
REMARK    6  A    between atoms: C_21  and  C_22
REMARK    7  A    between atoms: C_23  and  O_24
REMARK    8  A    between atoms: C_25  and  C_26
REMARK    9  A    between atoms: C_25  and  C_27
REMARK                            x       y       z     vdW  Elec       q    Type
REMARK                         _______ _______ _______ _____ _____    ______ ____
ROOT
ATOM      1  C   UNL     1      -1.959  13.105  22.031  0.00  0.00    +0.000 A 
ATOM      2  C   UNL     1      -1.892  13.298  20.625  0.00  0.00    +0.000 A 
ATOM      3  C   UNL     1      -1.919  14.624  20.163  0.00  0.00    +0.000 A 
ATOM      4  C   UNL     1      -1.950  15.727  21.031  0.00  0.00    +0.000 A 
ATOM      5  C   UNL     1      -1.822  17.108  20.435  0.00  0.00    +0.000 C 
ATOM      6  C   UNL     1      -2.117  15.528  22.416  0.00  0.00    +0.000 A 
ATOM      7  C   UNL     1      -2.154  14.203  22.931  0.00  0.00    +0.000 A 
ATOM      8  C   UNL     1      -2.354  13.983  24.438  0.00  0.00    +0.000 C 
ATOM      9  C   UNL     1      -3.746  13.439  24.820  0.00  0.00    +0.000 C 
ATOM     10  C   UNL     1      -2.075  15.264  25.248  0.00  0.00    +0.000 C 
ATOM     11  C   UNL     1      -2.689  16.528  24.599  0.00  0.00    +0.000 C 
ATOM     12  C   UNL     1      -4.220  16.548  24.449  0.00  0.00    +0.000 C 
ATOM     13  C   UNL     1      -2.303  17.762  25.435  0.00  0.00    +0.000 C 
ATOM     14  N   UNL     1      -2.079  16.662  23.261  0.00  0.00    +0.000 N 
ATOM     15  H   UNL     1      -2.383  17.512  22.791  0.00  0.00    +0.000 HD
ENDROOT
BRANCH   2  16
ATOM     16  C   UNL     1      -1.875  12.185  19.635  0.00  0.00    +0.000 A 
ATOM     17  C   UNL     1      -3.033  11.828  18.902  0.00  0.00    +0.000 A 
ATOM     18  C   UNL     1      -3.058  10.776  17.989  0.00  0.00    +0.000 A 
ATOM     19  C   UNL     1      -1.900  10.053  17.718  0.00  0.00    +0.000 A 
ATOM     20  C   UNL     1      -0.706  10.397  18.376  0.00  0.00    +0.000 A 
ATOM     21  C   UNL     1       0.621   9.894  18.291  0.00  0.00    +0.000 A 
ATOM     22  C   UNL     1       1.396  10.613  19.168  0.00  0.00    +0.000 A 
ATOM     23  N   UNL     1       0.578  11.503  19.809  0.00  0.00    +0.000 N 
ATOM     24  C   UNL     1      -0.714  11.433  19.319  0.00  0.00    +0.000 A 
ATOM     25  H   UNL     1       0.884  12.146  20.526  0.00  0.00    +0.000 HD
ENDBRANCH   2  16
BRANCH   1  27
ATOM     26  N   UNL     1      -0.573  11.348  22.975  0.00  0.00    +0.000 NA
ATOM     27  C   UNL     1      -1.728  11.721  22.541  0.00  0.00    +0.000 C 
BRANCH  26  29
ATOM     28  C   UNL     1       0.493   9.369  22.724  0.00  0.00    +0.000 C 
ATOM     29  O   UNL     1      -0.566  10.027  23.417  0.00  0.00    +0.000 OA
ENDBRANCH  26  29
ENDBRANCH   1  27
BRANCH  10  30
ATOM     30  O   UNL     1      -0.641  15.428  25.333  0.00  0.00    +0.000 OA
ATOM     31  H   UNL     1      -0.300  15.010  24.515  0.00  0.00    +0.000 HD
ENDBRANCH  10  30
TORSDOF 4
ENDMDL
MODEL 4
REMARK VINA RESULT:      -6.4      3.261      4.937
REMARK  Name = 
REMARK  9 active torsions:
REMARK  status: ('A' for Active; 'I' for Inactive)
REMARK    1  A    between atoms: C_1  and  O_2
REMARK    2  A    between atoms: O_2  and  N_3
REMARK    3  A    between atoms: C_4  and  C_5
REMARK    4  A    between atoms: C_6  and  C_7
REMARK    5  A    between atoms: C_17  and  C_18
REMARK    6  A    between atoms: C_21  and  C_22
REMARK    7  A    between atoms: C_23  and  O_24
REMARK    8  A    between atoms: C_25  and  C_26
REMARK    9  A    between atoms: C_25  and  C_27
REMARK                            x       y       z     vdW  Elec       q    Type
REMARK                         _______ _______ _______ _____ _____    ______ ____
ROOT
ATOM      1  C   UNL     1      -2.967  12.157  19.573  0.00  0.00    +0.000 A 
ATOM      2  C   UNL     1      -1.745  12.367  20.267  0.00  0.00    +0.000 A 
ATOM      3  C   UNL     1      -1.835  12.665  21.638  0.00  0.00    +0.000 A 
ATOM      4  C   UNL     1      -3.058  12.700  22.325  0.00  0.00    +0.000 A 
ATOM      5  C   UNL     1      -3.030  12.878  23.823  0.00  0.00    +0.000 C 
ATOM      6  C   UNL     1      -4.269  12.591  21.613  0.00  0.00    +0.000 A 
ATOM      7  C   UNL     1      -4.235  12.345  20.213  0.00  0.00    +0.000 A 
ATOM      8  C   UNL     1      -5.554  12.243  19.431  0.00  0.00    +0.000 C 
ATOM      9  C   UNL     1      -5.847  13.454  18.520  0.00  0.00    +0.000 C 
ATOM     10  C   UNL     1      -6.759  12.013  20.364  0.00  0.00    +0.000 C 
ATOM     11  C   UNL     1      -6.717  12.907  21.626  0.00  0.00    +0.000 C 
ATOM     12  C   UNL     1      -6.755  14.426  21.394  0.00  0.00    +0.000 C 
ATOM     13  C   UNL     1      -7.916  12.560  22.529  0.00  0.00    +0.000 C 
ATOM     14  N   UNL     1      -5.476  12.567  22.351  0.00  0.00    +0.000 N 
ATOM     15  H   UNL     1      -5.406  13.068  23.234  0.00  0.00    +0.000 HD
ENDROOT
BRANCH   2  16
ATOM     16  C   UNL     1      -0.408  12.365  19.612  0.00  0.00    +0.000 A 
ATOM     17  C   UNL     1       0.242  11.157  19.259  0.00  0.00    +0.000 A 
ATOM     18  C   UNL     1       1.504  11.120  18.669  0.00  0.00    +0.000 A 
ATOM     19  C   UNL     1       2.165  12.302  18.348  0.00  0.00    +0.000 A 
ATOM     20  C   UNL     1       1.544  13.533  18.625  0.00  0.00    +0.000 A 
ATOM     21  C   UNL     1       1.928  14.881  18.387  0.00  0.00    +0.000 A 
ATOM     22  C   UNL     1       0.926  15.690  18.866  0.00  0.00    +0.000 A 
ATOM     23  N   UNL     1      -0.029  14.882  19.421  0.00  0.00    +0.000 N 
ATOM     24  C   UNL     1       0.293  13.546  19.254  0.00  0.00    +0.000 A 
ATOM     25  H   UNL     1      -0.870  15.217  19.869  0.00  0.00    +0.000 HD
ENDBRANCH   2  16
BRANCH   1  27
ATOM     26  N   UNL     1      -2.965  10.384  17.913  0.00  0.00    +0.000 NA
ATOM     27  C   UNL     1      -2.877  11.644  18.174  0.00  0.00    +0.000 C 
BRANCH  26  29
ATOM     28  C   UNL     1      -3.882  10.879  15.906  0.00  0.00    +0.000 C 
ATOM     29  O   UNL     1      -2.869  10.110  16.551  0.00  0.00    +0.000 OA
ENDBRANCH  26  29
ENDBRANCH   1  27
BRANCH  10  30
ATOM     30  O   UNL     1      -6.744  10.624  20.769  0.00  0.00    +0.000 OA
ATOM     31  H   UNL     1      -7.646  10.465  21.119  0.00  0.00    +0.000 HD
ENDBRANCH  10  30
TORSDOF 4
ENDMDL
MODEL 5
REMARK VINA RESULT:      -6.3      1.545      1.737
REMARK  Name = 
REMARK  9 active torsions:
REMARK  status: ('A' for Active; 'I' for Inactive)
REMARK    1  A    between atoms: C_1  and  O_2
REMARK    2  A    between atoms: O_2  and  N_3
REMARK    3  A    between atoms: C_4  and  C_5
REMARK    4  A    between atoms: C_6  and  C_7
REMARK    5  A    between atoms: C_17  and  C_18
REMARK    6  A    between atoms: C_21  and  C_22
REMARK    7  A    between atoms: C_23  and  O_24
REMARK    8  A    between atoms: C_25  and  C_26
REMARK    9  A    between atoms: C_25  and  C_27
REMARK                            x       y       z     vdW  Elec       q    Type
REMARK                         _______ _______ _______ _____ _____    ______ ____
ROOT
ATOM      1  C   UNL     1      -1.133  13.295  21.337  0.00  0.00    +0.000 A 
ATOM      2  C   UNL     1      -0.816  13.232  19.954  0.00  0.00    +0.000 A 
ATOM      3  C   UNL     1      -0.509  14.445  19.315  0.00  0.00    +0.000 A 
ATOM      4  C   UNL     1      -0.452  15.668  20.002  0.00  0.00    +0.000 A 
ATOM      5  C   UNL     1       0.036  16.884  19.254  0.00  0.00    +0.000 C 
ATOM      6  C   UNL     1      -0.864  15.740  21.347  0.00  0.00    +0.000 A 
ATOM      7  C   UNL     1      -1.241  14.547  22.026  0.00  0.00    +0.000 A 
ATOM      8  C   UNL     1      -1.708  14.625  23.487  0.00  0.00    +0.000 C 
ATOM      9  C   UNL     1      -3.223  14.402  23.682  0.00  0.00    +0.000 C 
ATOM     10  C   UNL     1      -1.307  15.958  24.149  0.00  0.00    +0.000 C 
ATOM     11  C   UNL     1      -1.553  17.179  23.230  0.00  0.00    +0.000 C 
ATOM     12  C   UNL     1      -3.008  17.436  22.804  0.00  0.00    +0.000 C 
ATOM     13  C   UNL     1      -1.061  18.453  23.943  0.00  0.00    +0.000 C 
ATOM     14  N   UNL     1      -0.732  16.977  22.020  0.00  0.00    +0.000 N 
ATOM     15  H   UNL     1      -0.786  17.774  21.390  0.00  0.00    +0.000 HD
ENDROOT
BRANCH   2  16
ATOM     16  C   UNL     1      -0.869  11.980  19.147  0.00  0.00    +0.000 A 
ATOM     17  C   UNL     1       0.261  11.139  19.011  0.00  0.00    +0.000 A 
ATOM     18  C   UNL     1       0.252   9.976  18.243  0.00  0.00    +0.000 A 
ATOM     19  C   UNL     1      -0.915   9.562  17.609  0.00  0.00    +0.000 A 
ATOM     20  C   UNL     1      -2.085  10.329  17.754  0.00  0.00    +0.000 A 
ATOM     21  C   UNL     1      -3.415  10.158  17.280  0.00  0.00    +0.000 A 
ATOM     22  C   UNL     1      -4.157  11.222  17.730  0.00  0.00    +0.000 A 
ATOM     23  N   UNL     1      -3.316  12.050  18.423  0.00  0.00    +0.000 N 
ATOM     24  C   UNL     1      -2.042  11.515  18.498  0.00  0.00    +0.000 A 
ATOM     25  H   UNL     1      -3.596  12.924  18.847  0.00  0.00    +0.000 HD
ENDBRANCH   2  16
BRANCH   1  27
ATOM     26  N   UNL     1      -0.298  11.535  22.786  0.00  0.00    +0.000 NA
ATOM     27  C   UNL     1      -1.262  12.000  22.067  0.00  0.00    +0.000 C 
BRANCH  26  29
ATOM     28  C   UNL     1      -0.392   9.305  22.422  0.00  0.00    +0.000 C 
ATOM     29  O   UNL     1      -0.618  10.323  23.394  0.00  0.00    +0.000 OA
ENDBRANCH  26  29
ENDBRANCH   1  27
BRANCH  10  30
ATOM     30  O   UNL     1       0.101  15.886  24.470  0.00  0.00    +0.000 OA
ATOM     31  H   UNL     1       0.550  15.916  23.599  0.00  0.00    +0.000 HD
ENDBRANCH  10  30
TORSDOF 4
ENDMDL
MODEL 6
REMARK VINA RESULT:      -6.2      2.664      4.338
REMARK  Name = 
REMARK  9 active torsions:
REMARK  status: ('A' for Active; 'I' for Inactive)
REMARK    1  A    between atoms: C_1  and  O_2
REMARK    2  A    between atoms: O_2  and  N_3
REMARK    3  A    between atoms: C_4  and  C_5
REMARK    4  A    between atoms: C_6  and  C_7
REMARK    5  A    between atoms: C_17  and  C_18
REMARK    6  A    between atoms: C_21  and  C_22
REMARK    7  A    between atoms: C_23  and  O_24
REMARK    8  A    between atoms: C_25  and  C_26
REMARK    9  A    between atoms: C_25  and  C_27
REMARK                            x       y       z     vdW  Elec       q    Type
REMARK                         _______ _______ _______ _____ _____    ______ ____
ROOT
ATOM      1  C   UNL     1      -1.740  11.971  20.094  0.00  0.00    +0.000 A 
ATOM      2  C   UNL     1      -1.497  10.997  19.089  0.00  0.00    +0.000 A 
ATOM      3  C   UNL     1      -2.530  10.764  18.165  0.00  0.00    +0.000 A 
ATOM      4  C   UNL     1      -3.732  11.489  18.176  0.00  0.00    +0.000 A 
ATOM      5  C   UNL     1      -4.710  11.266  17.049  0.00  0.00    +0.000 C 
ATOM      6  C   UNL     1      -4.007  12.380  19.233  0.00  0.00    +0.000 A 
ATOM      7  C   UNL     1      -3.016  12.610  20.227  0.00  0.00    +0.000 A 
ATOM      8  C   UNL     1      -3.320  13.566  21.390  0.00  0.00    +0.000 C 
ATOM      9  C   UNL     1      -3.542  12.866  22.747  0.00  0.00    +0.000 C 
ATOM     10  C   UNL     1      -4.530  14.472  21.088  0.00  0.00    +0.000 C 
ATOM     11  C   UNL     1      -5.706  13.703  20.439  0.00  0.00    +0.000 C 
ATOM     12  C   UNL     1      -6.329  12.572  21.273  0.00  0.00    +0.000 C 
ATOM     13  C   UNL     1      -6.837  14.696  20.110  0.00  0.00    +0.000 C 
ATOM     14  N   UNL     1      -5.201  13.137  19.172  0.00  0.00    +0.000 N 
ATOM     15  H   UNL     1      -5.936  12.668  18.649  0.00  0.00    +0.000 HD
ENDROOT
BRANCH   2  16
ATOM     16  C   UNL     1      -0.259  10.172  19.015  0.00  0.00    +0.000 A 
ATOM     17  C   UNL     1       0.589  10.209  17.882  0.00  0.00    +0.000 A 
ATOM     18  C   UNL     1       1.739   9.430  17.771  0.00  0.00    +0.000 A 
ATOM     19  C   UNL     1       2.135   8.608  18.821  0.00  0.00    +0.000 A 
ATOM     20  C   UNL     1       1.362   8.571  19.994  0.00  0.00    +0.000 A 
ATOM     21  C   UNL     1       1.516   7.884  21.230  0.00  0.00    +0.000 A 
ATOM     22  C   UNL     1       0.453   8.224  22.031  0.00  0.00    +0.000 A 
ATOM     23  N   UNL     1      -0.358   9.059  21.310  0.00  0.00    +0.000 N 
ATOM     24  C   UNL     1       0.188   9.332  20.068  0.00  0.00    +0.000 A 
ATOM     25  H   UNL     1      -1.227   9.446  21.651  0.00  0.00    +0.000 HD
ENDBRANCH   2  16
BRANCH   1  27
ATOM     26  N   UNL     1       0.244  13.285  20.578  0.00  0.00    +0.000 NA
ATOM     27  C   UNL     1      -0.585  12.370  20.950  0.00  0.00    +0.000 C 
BRANCH  26  29
ATOM     28  C   UNL     1       1.142  14.893  21.891  0.00  0.00    +0.000 C 
ATOM     29  O   UNL     1       1.243  13.520  21.520  0.00  0.00    +0.000 OA
ENDBRANCH  26  29
ENDBRANCH   1  27
BRANCH  10  30
ATOM     30  O   UNL     1      -4.089  15.510  20.182  0.00  0.00    +0.000 OA
ATOM     31  H   UNL     1      -4.705  16.254  20.348  0.00  0.00    +0.000 HD
ENDBRANCH  10  30
TORSDOF 4
ENDMDL
MODEL 7
REMARK VINA RESULT:      -6.2      1.988      6.559
REMARK  Name = 
REMARK  9 active torsions:
REMARK  status: ('A' for Active; 'I' for Inactive)
REMARK    1  A    between atoms: C_1  and  O_2
REMARK    2  A    between atoms: O_2  and  N_3
REMARK    3  A    between atoms: C_4  and  C_5
REMARK    4  A    between atoms: C_6  and  C_7
REMARK    5  A    between atoms: C_17  and  C_18
REMARK    6  A    between atoms: C_21  and  C_22
REMARK    7  A    between atoms: C_23  and  O_24
REMARK    8  A    between atoms: C_25  and  C_26
REMARK    9  A    between atoms: C_25  and  C_27
REMARK                            x       y       z     vdW  Elec       q    Type
REMARK                         _______ _______ _______ _____ _____    ______ ____
ROOT
ATOM      1  C   UNL     1      -2.247  13.207  21.909  0.00  0.00    +0.000 A 
ATOM      2  C   UNL     1      -3.583  13.445  21.492  0.00  0.00    +0.000 A 
ATOM      3  C   UNL     1      -3.963  12.919  20.245  0.00  0.00    +0.000 A 
ATOM      4  C   UNL     1      -3.099  12.142  19.457  0.00  0.00    +0.000 A 
ATOM      5  C   UNL     1      -3.655  11.500  18.210  0.00  0.00    +0.000 C 
ATOM      6  C   UNL     1      -1.748  11.995  19.828  0.00  0.00    +0.000 A 
ATOM      7  C   UNL     1      -1.297  12.557  21.055  0.00  0.00    +0.000 A 
ATOM      8  C   UNL     1       0.179  12.414  21.454  0.00  0.00    +0.000 C 
ATOM      9  C   UNL     1       0.995  13.719  21.346  0.00  0.00    +0.000 C 
ATOM     10  C   UNL     1       0.889  11.309  20.647  0.00  0.00    +0.000 C 
ATOM     11  C   UNL     1       0.532  11.347  19.141  0.00  0.00    +0.000 C 
ATOM     12  C   UNL     1       0.914  12.625  18.376  0.00  0.00    +0.000 C 
ATOM     13  C   UNL     1       1.227  10.171  18.429  0.00  0.00    +0.000 C 
ATOM     14  N   UNL     1      -0.928  11.153  19.042  0.00  0.00    +0.000 N 
ATOM     15  H   UNL     1      -1.237  11.098  18.074  0.00  0.00    +0.000 HD
ENDROOT
BRANCH   2  16
ATOM     16  C   UNL     1      -4.557  14.272  22.257  0.00  0.00    +0.000 A 
ATOM     17  C   UNL     1      -4.465  15.685  22.287  0.00  0.00    +0.000 A 
ATOM     18  C   UNL     1      -5.343  16.486  23.015  0.00  0.00    +0.000 A 
ATOM     19  C   UNL     1      -6.402  15.914  23.712  0.00  0.00    +0.000 A 
ATOM     20  C   UNL     1      -6.577  14.520  23.674  0.00  0.00    +0.000 A 
ATOM     21  C   UNL     1      -7.558  13.654  24.231  0.00  0.00    +0.000 A 
ATOM     22  C   UNL     1      -7.235  12.369  23.869  0.00  0.00    +0.000 A 
ATOM     23  N   UNL     1      -6.073  12.422  23.148  0.00  0.00    +0.000 N 
ATOM     24  C   UNL     1      -5.659  13.730  22.969  0.00  0.00    +0.000 A 
ATOM     25  H   UNL     1      -5.595  11.614  22.774  0.00  0.00    +0.000 HD
ENDBRANCH   2  16
BRANCH   1  27
ATOM     26  N   UNL     1      -1.347  14.718  23.585  0.00  0.00    +0.000 NA
ATOM     27  C   UNL     1      -1.893  13.582  23.311  0.00  0.00    +0.000 C 
BRANCH  26  29
ATOM     28  C   UNL     1      -2.343  15.277  25.537  0.00  0.00    +0.000 C 
ATOM     29  O   UNL     1      -1.106  14.882  24.948  0.00  0.00    +0.000 OA
ENDBRANCH  26  29
ENDBRANCH   1  27
BRANCH  10  30
ATOM     30  O   UNL     1       0.485  10.033  21.195  0.00  0.00    +0.000 OA
ATOM     31  H   UNL     1      -0.456   9.945  20.936  0.00  0.00    +0.000 HD
ENDBRANCH  10  30
TORSDOF 4
ENDMDL
MODEL 8
REMARK VINA RESULT:      -6.2      2.636      6.445
REMARK  Name = 
REMARK  9 active torsions:
REMARK  status: ('A' for Active; 'I' for Inactive)
REMARK    1  A    between atoms: C_1  and  O_2
REMARK    2  A    between atoms: O_2  and  N_3
REMARK    3  A    between atoms: C_4  and  C_5
REMARK    4  A    between atoms: C_6  and  C_7
REMARK    5  A    between atoms: C_17  and  C_18
REMARK    6  A    between atoms: C_21  and  C_22
REMARK    7  A    between atoms: C_23  and  O_24
REMARK    8  A    between atoms: C_25  and  C_26
REMARK    9  A    between atoms: C_25  and  C_27
REMARK                            x       y       z     vdW  Elec       q    Type
REMARK                         _______ _______ _______ _____ _____    ______ ____
ROOT
ATOM      1  C   UNL     1      -2.823  12.311  20.616  0.00  0.00    +0.000 A 
ATOM      2  C   UNL     1      -3.987  12.343  19.802  0.00  0.00    +0.000 A 
ATOM      3  C   UNL     1      -3.836  11.951  18.462  0.00  0.00    +0.000 A 
ATOM      4  C   UNL     1      -2.618  11.487  17.941  0.00  0.00    +0.000 A 
ATOM      5  C   UNL     1      -2.604  10.947  16.532  0.00  0.00    +0.000 C 
ATOM      6  C   UNL     1      -1.448  11.553  18.723  0.00  0.00    +0.000 A 
ATOM      7  C   UNL     1      -1.535  11.998  20.072  0.00  0.00    +0.000 A 
ATOM      8  C   UNL     1      -0.258  12.087  20.921  0.00  0.00    +0.000 C 
ATOM      9  C   UNL     1       0.223  13.528  21.195  0.00  0.00    +0.000 C 
ATOM     10  C   UNL     1       0.901  11.280  20.304  0.00  0.00    +0.000 C 
ATOM     11  C   UNL     1       1.018  11.476  18.773  0.00  0.00    +0.000 C 
ATOM     12  C   UNL     1       1.303  12.906  18.284  0.00  0.00    +0.000 C 
ATOM     13  C   UNL     1       2.152  10.582  18.236  0.00  0.00    +0.000 C 
ATOM     14  N   UNL     1      -0.255  11.017  18.184  0.00  0.00    +0.000 N 
ATOM     15  H   UNL     1      -0.234  11.052  17.167  0.00  0.00    +0.000 HD
ENDROOT
BRANCH   2  16
ATOM     16  C   UNL     1      -5.312  12.838  20.270  0.00  0.00    +0.000 A 
ATOM     17  C   UNL     1      -6.345  11.944  20.644  0.00  0.00    +0.000 A 
ATOM     18  C   UNL     1      -7.604  12.373  21.060  0.00  0.00    +0.000 A 
ATOM     19  C   UNL     1      -7.880  13.732  21.177  0.00  0.00    +0.000 A 
ATOM     20  C   UNL     1      -6.875  14.666  20.871  0.00  0.00    +0.000 A 
ATOM     21  C   UNL     1      -6.829  16.087  20.927  0.00  0.00    +0.000 A 
ATOM     22  C   UNL     1      -5.579  16.479  20.514  0.00  0.00    +0.000 A 
ATOM     23  N   UNL     1      -4.883  15.352  20.170  0.00  0.00    +0.000 N 
ATOM     24  C   UNL     1      -5.630  14.213  20.417  0.00  0.00    +0.000 A 
ATOM     25  H   UNL     1      -3.939  15.351  19.810  0.00  0.00    +0.000 HD
ENDBRANCH   2  16
BRANCH   1  27
ATOM     26  N   UNL     1      -3.041  13.716  22.585  0.00  0.00    +0.000 NA
ATOM     27  C   UNL     1      -3.008  12.530  22.081  0.00  0.00    +0.000 C 
BRANCH  26  29
ATOM     28  C   UNL     1      -4.202  12.697  24.237  0.00  0.00    +0.000 C 
ATOM     29  O   UNL     1      -3.234  13.708  23.965  0.00  0.00    +0.000 OA
ENDBRANCH  26  29
ENDBRANCH   1  27
BRANCH  10  30
ATOM     30  O   UNL     1       0.661   9.881  20.583  0.00  0.00    +0.000 OA
ATOM     31  H   UNL     1      -0.150   9.879  21.133  0.00  0.00    +0.000 HD
ENDBRANCH  10  30
TORSDOF 4
ENDMDL
MODEL 9
REMARK VINA RESULT:      -6.2      1.181      2.073
REMARK  Name = 
REMARK  9 active torsions:
REMARK  status: ('A' for Active; 'I' for Inactive)
REMARK    1  A    between atoms: C_1  and  O_2
REMARK    2  A    between atoms: O_2  and  N_3
REMARK    3  A    between atoms: C_4  and  C_5
REMARK    4  A    between atoms: C_6  and  C_7
REMARK    5  A    between atoms: C_17  and  C_18
REMARK    6  A    between atoms: C_21  and  C_22
REMARK    7  A    between atoms: C_23  and  O_24
REMARK    8  A    between atoms: C_25  and  C_26
REMARK    9  A    between atoms: C_25  and  C_27
REMARK                            x       y       z     vdW  Elec       q    Type
REMARK                         _______ _______ _______ _____ _____    ______ ____
ROOT
ATOM      1  C   UNL     1      -1.969  12.928  22.125  0.00  0.00    +0.000 A 
ATOM      2  C   UNL     1      -1.589  13.191  20.782  0.00  0.00    +0.000 A 
ATOM      3  C   UNL     1      -1.845  14.483  20.290  0.00  0.00    +0.000 A 
ATOM      4  C   UNL     1      -2.394  15.500  21.085  0.00  0.00    +0.000 A 
ATOM      5  C   UNL     1      -2.485  16.890  20.503  0.00  0.00    +0.000 C 
ATOM      6  C   UNL     1      -2.861  15.206  22.381  0.00  0.00    +0.000 A 
ATOM      7  C   UNL     1      -2.678  13.897  22.908  0.00  0.00    +0.000 A 
ATOM      8  C   UNL     1      -3.202  13.569  24.314  0.00  0.00    +0.000 C 
ATOM      9  C   UNL     1      -4.449  12.661  24.331  0.00  0.00    +0.000 C 
ATOM     10  C   UNL     1      -3.495  14.842  25.130  0.00  0.00    +0.000 C 
ATOM     11  C   UNL     1      -4.230  15.925  24.304  0.00  0.00    +0.000 C 
ATOM     12  C   UNL     1      -5.616  15.548  23.755  0.00  0.00    +0.000 C 
ATOM     13  C   UNL     1      -4.419  17.182  25.176  0.00  0.00    +0.000 C 
ATOM     14  N   UNL     1      -3.348  16.273  23.172  0.00  0.00    +0.000 N 
ATOM     15  H   UNL     1      -3.732  17.031  22.614  0.00  0.00    +0.000 HD
ENDROOT
BRANCH   2  16
ATOM     16  C   UNL     1      -1.018  12.166  19.865  0.00  0.00    +0.000 A 
ATOM     17  C   UNL     1      -1.800  11.091  19.377  0.00  0.00    +0.000 A 
ATOM     18  C   UNL     1      -1.289  10.101  18.541  0.00  0.00    +0.000 A 
ATOM     19  C   UNL     1       0.029  10.164  18.100  0.00  0.00    +0.000 A 
ATOM     20  C   UNL     1       0.839  11.238  18.508  0.00  0.00    +0.000 A 
ATOM     21  C   UNL     1       2.180  11.604  18.208  0.00  0.00    +0.000 A 
ATOM     22  C   UNL     1       2.458  12.764  18.888  0.00  0.00    +0.000 A 
ATOM     23  N   UNL     1       1.349  13.090  19.621  0.00  0.00    +0.000 N 
ATOM     24  C   UNL     1       0.316  12.201  19.381  0.00  0.00    +0.000 A 
ATOM     25  H   UNL     1       1.285  13.890  20.235  0.00  0.00    +0.000 HD
ENDBRANCH   2  16
BRANCH   1  27
ATOM     26  N   UNL     1      -0.282  11.414  22.996  0.00  0.00    +0.000 NA
ATOM     27  C   UNL     1      -1.522  11.634  22.719  0.00  0.00    +0.000 C 
BRANCH  26  29
ATOM     28  C   UNL     1      -0.375   9.201  22.536  0.00  0.00    +0.000 C 
ATOM     29  O   UNL     1      -0.072  10.155  23.553  0.00  0.00    +0.000 OA
ENDBRANCH  26  29
ENDBRANCH   1  27
BRANCH  10  30
ATOM     30  O   UNL     1      -2.231  15.375  25.588  0.00  0.00    +0.000 OA
ATOM     31  H   UNL     1      -2.472  15.962  26.335  0.00  0.00    +0.000 HD
ENDBRANCH  10  30
TORSDOF 4
ENDMDL
