MODEL 1
REMARK VINA RESULT:      -8.2      0.000      0.000
REMARK  Name = 
REMARK  4 active torsions:
REMARK  status: ('A' for Active; 'I' for Inactive)
REMARK    1  A    between atoms: C_1  and  C_2
REMARK    2  A    between atoms: C_2  and  O_3
REMARK    3  A    between atoms: O_3  and  C_4
REMARK    4  A    between atoms: C_15  and  C_16
REMARK                            x       y       z     vdW  Elec       q    Type
REMARK                         _______ _______ _______ _____ _____    ______ ____
ROOT
ATOM      1  C   UNL     1       4.508   5.694  17.195  0.00  0.00    +0.000 C 
ATOM      2  O   UNL     1       4.506   6.710  16.516  0.00  0.00    +0.000 OA
ATOM      3  N   UNL     1       3.773   5.618  18.386  0.00  0.00    +0.000 N 
ATOM      4  C   UNL     1       3.543   4.541  19.269  0.00  0.00    +0.000 A 
ATOM      5  C   UNL     1       4.066   3.231  19.296  0.00  0.00    +0.000 A 
ATOM      6  C   UNL     1       3.631   2.346  20.291  0.00  0.00    +0.000 A 
ATOM      7  C   UNL     1       2.689   2.735  21.236  0.00  0.00    +0.000 A 
ATOM      8  C   UNL     1       2.159   4.027  21.219  0.00  0.00    +0.000 A 
ATOM      9  C   UNL     1       2.599   4.931  20.238  0.00  0.00    +0.000 A 
ATOM     10  C   UNL     1       2.322   6.270  19.922  0.00  0.00    +0.000 A 
ATOM     11  O   UNL     1       1.531   7.270  20.394  0.00  0.00    +0.000 OA
ATOM     12  C   UNL     1       1.711   8.314  19.514  0.00  0.00    +0.000 A 
ATOM     13  C   UNL     1       2.681   8.016  18.573  0.00  0.00    +0.000 A 
ATOM     14  C   UNL     1       3.015   6.677  18.850  0.00  0.00    +0.000 A 
ENDROOT
BRANCH  12  15
ATOM     15  C   UNL     1       0.971   9.558  19.661  0.00  0.00    +0.000 C 
ATOM     16  O   UNL     1       0.404  10.055  18.684  0.00  0.00    +0.000 OA
ATOM     17  N   UNL     1       0.843  10.148  20.919  0.00  0.00    +0.000 N 
ATOM     18  C   UNL     1       1.315   9.620  22.205  0.00  0.00    +0.000 C 
ATOM     19  C   UNL     1       0.160   9.505  23.209  0.00  0.00    +0.000 C 
ATOM     20  O   UNL     1      -0.561  10.739  23.334  0.00  0.00    +0.000 OA
ATOM     21  C   UNL     1      -1.092  11.146  22.062  0.00  0.00    +0.000 C 
ATOM     22  C   UNL     1       0.039  11.366  21.052  0.00  0.00    +0.000 C 
ENDBRANCH  12  15
BRANCH   1  23
ATOM     23  O   UNL     1       5.041   4.493  16.877  0.00  0.00    +0.000 OA
BRANCH  23  25
ATOM     24  C   UNL     1       7.296   4.647  17.604  0.00  0.00    +0.000 C 
ATOM     25  C   UNL     1       6.386   4.553  16.393  0.00  0.00    +0.000 C 
ENDBRANCH  23  25
ENDBRANCH   1  23
TORSDOF 3
ENDMDL
MODEL 2
REMARK VINA RESULT:      -8.1      1.689      1.915
REMARK  Name = 
REMARK  4 active torsions:
REMARK  status: ('A' for Active; 'I' for Inactive)
REMARK    1  A    between atoms: C_1  and  C_2
REMARK    2  A    between atoms: C_2  and  O_3
REMARK    3  A    between atoms: O_3  and  C_4
REMARK    4  A    between atoms: C_15  and  C_16
REMARK                            x       y       z     vdW  Elec       q    Type
REMARK                         _______ _______ _______ _____ _____    ______ ____
ROOT
ATOM      1  C   UNL     1       5.422   5.366  16.290  0.00  0.00    +0.000 C 
ATOM      2  O   UNL     1       5.781   6.469  15.908  0.00  0.00    +0.000 OA
ATOM      3  N   UNL     1       4.328   5.218  17.154  0.00  0.00    +0.000 N 
ATOM      4  C   UNL     1       3.677   4.065  17.641  0.00  0.00    +0.000 A 
ATOM      5  C   UNL     1       3.983   2.694  17.505  0.00  0.00    +0.000 A 
ATOM      6  C   UNL     1       3.129   1.746  18.081  0.00  0.00    +0.000 A 
ATOM      7  C   UNL     1       1.985   2.134  18.768  0.00  0.00    +0.000 A 
ATOM      8  C   UNL     1       1.665   3.487  18.906  0.00  0.00    +0.000 A 
ATOM      9  C   UNL     1       2.522   4.450  18.349  0.00  0.00    +0.000 A 
ATOM     10  C   UNL     1       2.545   5.852  18.298  0.00  0.00    +0.000 A 
ATOM     11  O   UNL     1       1.780   6.886  18.740  0.00  0.00    +0.000 OA
ATOM     12  C   UNL     1       2.380   8.017  18.233  0.00  0.00    +0.000 A 
ATOM     13  C   UNL     1       3.561   7.710  17.581  0.00  0.00    +0.000 A 
ATOM     14  C   UNL     1       3.604   6.303  17.612  0.00  0.00    +0.000 A 
ENDROOT
BRANCH  12  15
ATOM     15  C   UNL     1       1.803   9.335  18.449  0.00  0.00    +0.000 C 
ATOM     16  O   UNL     1       1.666  10.109  17.499  0.00  0.00    +0.000 OA
ATOM     17  N   UNL     1       1.339   9.694  19.715  0.00  0.00    +0.000 N 
ATOM     18  C   UNL     1       1.280   8.851  20.916  0.00  0.00    +0.000 C 
ATOM     19  C   UNL     1      -0.148   8.787  21.473  0.00  0.00    +0.000 C 
ATOM     20  O   UNL     1      -0.701  10.096  21.671  0.00  0.00    +0.000 OA
ATOM     21  C   UNL     1      -0.717  10.831  20.437  0.00  0.00    +0.000 C 
ATOM     22  C   UNL     1       0.704  11.003  19.894  0.00  0.00    +0.000 C 
ENDBRANCH  12  15
BRANCH   1  23
ATOM     23  O   UNL     1       5.868   4.162  15.865  0.00  0.00    +0.000 OA
BRANCH  23  25
ATOM     24  C   UNL     1       5.803   3.861  13.511  0.00  0.00    +0.000 C 
ATOM     25  C   UNL     1       6.686   4.215  14.693  0.00  0.00    +0.000 C 
ENDBRANCH  23  25
ENDBRANCH   1  23
TORSDOF 3
ENDMDL
MODEL 3
REMARK VINA RESULT:      -7.9      2.132      7.040
REMARK  Name = 
REMARK  4 active torsions:
REMARK  status: ('A' for Active; 'I' for Inactive)
REMARK    1  A    between atoms: C_1  and  C_2
REMARK    2  A    between atoms: C_2  and  O_3
REMARK    3  A    between atoms: O_3  and  C_4
REMARK    4  A    between atoms: C_15  and  C_16
REMARK                            x       y       z     vdW  Elec       q    Type
REMARK                         _______ _______ _______ _____ _____    ______ ____
ROOT
ATOM      1  C   UNL     1       1.455  10.854  18.341  0.00  0.00    +0.000 C 
ATOM      2  O   UNL     1       2.179  10.562  17.400  0.00  0.00    +0.000 OA
ATOM      3  N   UNL     1       1.194   9.934  19.367  0.00  0.00    +0.000 N 
ATOM      4  C   UNL     1       0.487  10.071  20.580  0.00  0.00    +0.000 A 
ATOM      5  C   UNL     1      -0.273  11.140  21.101  0.00  0.00    +0.000 A 
ATOM      6  C   UNL     1      -0.850  11.009  22.369  0.00  0.00    +0.000 A 
ATOM      7  C   UNL     1      -0.675   9.854  23.122  0.00  0.00    +0.000 A 
ATOM      8  C   UNL     1       0.079   8.789  22.623  0.00  0.00    +0.000 A 
ATOM      9  C   UNL     1       0.649   8.899  21.344  0.00  0.00    +0.000 A 
ATOM     10  C   UNL     1       1.427   8.066  20.526  0.00  0.00    +0.000 A 
ATOM     11  O   UNL     1       1.971   6.821  20.589  0.00  0.00    +0.000 OA
ATOM     12  C   UNL     1       2.702   6.691  19.429  0.00  0.00    +0.000 A 
ATOM     13  C   UNL     1       2.529   7.786  18.601  0.00  0.00    +0.000 A 
ATOM     14  C   UNL     1       1.736   8.662  19.366  0.00  0.00    +0.000 A 
ENDROOT
BRANCH  12  15
ATOM     15  C   UNL     1       3.486   5.495  19.164  0.00  0.00    +0.000 C 
ATOM     16  O   UNL     1       4.662   5.437  19.532  0.00  0.00    +0.000 OA
ATOM     17  N   UNL     1       2.887   4.389  18.559  0.00  0.00    +0.000 N 
ATOM     18  C   UNL     1       1.474   4.225  18.198  0.00  0.00    +0.000 C 
ATOM     19  C   UNL     1       0.880   2.972  18.856  0.00  0.00    +0.000 C 
ATOM     20  O   UNL     1       1.671   1.806  18.589  0.00  0.00    +0.000 OA
ATOM     21  C   UNL     1       3.015   1.986  19.065  0.00  0.00    +0.000 C 
ATOM     22  C   UNL     1       3.681   3.172  18.362  0.00  0.00    +0.000 C 
ENDBRANCH  12  15
BRANCH   1  23
ATOM     23  O   UNL     1       0.940  12.068  18.638  0.00  0.00    +0.000 OA
BRANCH  23  25
ATOM     24  C   UNL     1       2.480  13.395  19.865  0.00  0.00    +0.000 C 
ATOM     25  C   UNL     1       1.864  13.152  18.500  0.00  0.00    +0.000 C 
ENDBRANCH  23  25
ENDBRANCH   1  23
TORSDOF 3
ENDMDL
MODEL 4
REMARK VINA RESULT:      -7.8      1.402      3.306
REMARK  Name = 
REMARK  4 active torsions:
REMARK  status: ('A' for Active; 'I' for Inactive)
REMARK    1  A    between atoms: C_1  and  C_2
REMARK    2  A    between atoms: C_2  and  O_3
REMARK    3  A    between atoms: O_3  and  C_4
REMARK    4  A    between atoms: C_15  and  C_16
REMARK                            x       y       z     vdW  Elec       q    Type
REMARK                         _______ _______ _______ _____ _____    ______ ____
ROOT
ATOM      1  C   UNL     1       2.867   4.533  20.137  0.00  0.00    +0.000 C 
ATOM      2  O   UNL     1       2.145   4.804  21.086  0.00  0.00    +0.000 OA
ATOM      3  N   UNL     1       3.093   5.461  19.111  0.00  0.00    +0.000 N 
ATOM      4  C   UNL     1       3.948   5.416  17.989  0.00  0.00    +0.000 A 
ATOM      5  C   UNL     1       4.764   4.384  17.481  0.00  0.00    +0.000 A 
ATOM      6  C   UNL     1       5.545   4.631  16.345  0.00  0.00    +0.000 A 
ATOM      7  C   UNL     1       5.536   5.876  15.725  0.00  0.00    +0.000 A 
ATOM      8  C   UNL     1       4.737   6.909  16.220  0.00  0.00    +0.000 A 
ATOM      9  C   UNL     1       3.935   6.669  17.348  0.00  0.00    +0.000 A 
ATOM     10  C   UNL     1       3.021   7.425  18.097  0.00  0.00    +0.000 A 
ATOM     11  O   UNL     1       2.511   8.685  18.085  0.00  0.00    +0.000 OA
ATOM     12  C   UNL     1       1.708   8.757  19.202  0.00  0.00    +0.000 A 
ATOM     13  C   UNL     1       1.625   7.533  19.841  0.00  0.00    +0.000 A 
ATOM     14  C   UNL     1       2.518   6.718  19.119  0.00  0.00    +0.000 A 
ENDROOT
BRANCH  12  15
ATOM     15  C   UNL     1       1.028   9.993  19.561  0.00  0.00    +0.000 C 
ATOM     16  O   UNL     1       0.484  10.671  18.686  0.00  0.00    +0.000 OA
ATOM     17  N   UNL     1       0.929  10.370  20.901  0.00  0.00    +0.000 N 
ATOM     18  C   UNL     1       1.377   9.613  22.076  0.00  0.00    +0.000 C 
ATOM     19  C   UNL     1       0.219   9.386  23.058  0.00  0.00    +0.000 C 
ATOM     20  O   UNL     1      -0.443  10.614  23.393  0.00  0.00    +0.000 OA
ATOM     21  C   UNL     1      -0.955  11.251  22.211  0.00  0.00    +0.000 C 
ATOM     22  C   UNL     1       0.183  11.584  21.242  0.00  0.00    +0.000 C 
ENDBRANCH  12  15
BRANCH   1  23
ATOM     23  O   UNL     1       3.650   3.442  19.984  0.00  0.00    +0.000 OA
BRANCH  23  25
ATOM     24  C   UNL     1       2.054   2.177  18.763  0.00  0.00    +0.000 C 
ATOM     25  C   UNL     1       2.941   2.200  19.995  0.00  0.00    +0.000 C 
ENDBRANCH  23  25
ENDBRANCH   1  23
TORSDOF 3
ENDMDL
MODEL 5
REMARK VINA RESULT:      -7.6      1.422      2.133
REMARK  Name = 
REMARK  4 active torsions:
REMARK  status: ('A' for Active; 'I' for Inactive)
REMARK    1  A    between atoms: C_1  and  C_2
REMARK    2  A    between atoms: C_2  and  O_3
REMARK    3  A    between atoms: O_3  and  C_4
REMARK    4  A    between atoms: C_15  and  C_16
REMARK                            x       y       z     vdW  Elec       q    Type
REMARK                         _______ _______ _______ _____ _____    ______ ____
ROOT
ATOM      1  C   UNL     1       3.896   6.248  17.548  0.00  0.00    +0.000 C 
ATOM      2  O   UNL     1       4.091   7.441  17.368  0.00  0.00    +0.000 OA
ATOM      3  N   UNL     1       3.102   5.795  18.611  0.00  0.00    +0.000 N 
ATOM      4  C   UNL     1       2.660   4.500  18.955  0.00  0.00    +0.000 A 
ATOM      5  C   UNL     1       2.962   3.236  18.407  0.00  0.00    +0.000 A 
ATOM      6  C   UNL     1       2.344   2.098  18.939  0.00  0.00    +0.000 A 
ATOM      7  C   UNL     1       1.433   2.199  19.984  0.00  0.00    +0.000 A 
ATOM      8  C   UNL     1       1.120   3.444  20.534  0.00  0.00    +0.000 A 
ATOM      9  C   UNL     1       1.746   4.592  20.022  0.00  0.00    +0.000 A 
ATOM     10  C   UNL     1       1.704   5.963  20.316  0.00  0.00    +0.000 A 
ATOM     11  O   UNL     1       1.064   6.784  21.191  0.00  0.00    +0.000 OA
ATOM     12  C   UNL     1       1.451   8.057  20.836  0.00  0.00    +0.000 A 
ATOM     13  C   UNL     1       2.405   8.031  19.834  0.00  0.00    +0.000 A 
ATOM     14  C   UNL     1       2.504   6.666  19.503  0.00  0.00    +0.000 A 
ENDROOT
BRANCH  12  15
ATOM     15  C   UNL     1       0.916   9.224  21.520  0.00  0.00    +0.000 C 
ATOM     16  O   UNL     1       1.309   9.505  22.655  0.00  0.00    +0.000 OA
ATOM     17  N   UNL     1       0.015  10.065  20.864  0.00  0.00    +0.000 N 
ATOM     18  C   UNL     1      -0.439   9.972  19.471  0.00  0.00    +0.000 C 
ATOM     19  C   UNL     1      -0.163  11.278  18.715  0.00  0.00    +0.000 C 
ATOM     20  O   UNL     1      -0.691  12.417  19.409  0.00  0.00    +0.000 OA
ATOM     21  C   UNL     1      -0.124  12.515  20.726  0.00  0.00    +0.000 C 
ATOM     22  C   UNL     1      -0.460  11.269  21.550  0.00  0.00    +0.000 C 
ENDBRANCH  12  15
BRANCH   1  23
ATOM     23  O   UNL     1       4.242   5.225  16.734  0.00  0.00    +0.000 OA
BRANCH  23  25
ATOM     24  C   UNL     1       5.483   4.426  14.873  0.00  0.00    +0.000 C 
ATOM     25  C   UNL     1       5.457   5.435  16.007  0.00  0.00    +0.000 C 
ENDBRANCH  23  25
ENDBRANCH   1  23
TORSDOF 3
ENDMDL
MODEL 6
REMARK VINA RESULT:      -7.6      1.867      3.771
REMARK  Name = 
REMARK  4 active torsions:
REMARK  status: ('A' for Active; 'I' for Inactive)
REMARK    1  A    between atoms: C_1  and  C_2
REMARK    2  A    between atoms: C_2  and  O_3
REMARK    3  A    between atoms: O_3  and  C_4
REMARK    4  A    between atoms: C_15  and  C_16
REMARK                            x       y       z     vdW  Elec       q    Type
REMARK                         _______ _______ _______ _____ _____    ______ ____
ROOT
ATOM      1  C   UNL     1       2.374   3.805  20.314  0.00  0.00    +0.000 C 
ATOM      2  O   UNL     1       1.729   3.821  21.352  0.00  0.00    +0.000 OA
ATOM      3  N   UNL     1       2.608   4.981  19.588  0.00  0.00    +0.000 N 
ATOM      4  C   UNL     1       3.392   5.225  18.440  0.00  0.00    +0.000 A 
ATOM      5  C   UNL     1       4.101   4.347  17.593  0.00  0.00    +0.000 A 
ATOM      6  C   UNL     1       4.832   4.878  16.523  0.00  0.00    +0.000 A 
ATOM      7  C   UNL     1       4.877   6.248  16.294  0.00  0.00    +0.000 A 
ATOM      8  C   UNL     1       4.185   7.130  17.127  0.00  0.00    +0.000 A 
ATOM      9  C   UNL     1       3.433   6.610  18.194  0.00  0.00    +0.000 A 
ATOM     10  C   UNL     1       2.620   7.158  19.198  0.00  0.00    +0.000 A 
ATOM     11  O   UNL     1       2.202   8.391  19.591  0.00  0.00    +0.000 OA
ATOM     12  C   UNL     1       1.472   8.172  20.738  0.00  0.00    +0.000 A 
ATOM     13  C   UNL     1       1.337   6.820  20.997  0.00  0.00    +0.000 A 
ATOM     14  C   UNL     1       2.126   6.209  20.005  0.00  0.00    +0.000 A 
ENDROOT
BRANCH  12  15
ATOM     15  C   UNL     1       0.904   9.280  21.491  0.00  0.00    +0.000 C 
ATOM     16  O   UNL     1       1.332   9.540  22.618  0.00  0.00    +0.000 OA
ATOM     17  N   UNL     1      -0.072  10.091  20.909  0.00  0.00    +0.000 N 
ATOM     18  C   UNL     1      -0.584  10.024  19.535  0.00  0.00    +0.000 C 
ATOM     19  C   UNL     1      -0.416  11.371  18.820  0.00  0.00    +0.000 C 
ATOM     20  O   UNL     1      -0.975  12.451  19.582  0.00  0.00    +0.000 OA
ATOM     21  C   UNL     1      -0.355  12.532  20.875  0.00  0.00    +0.000 C 
ATOM     22  C   UNL     1      -0.582  11.239  21.663  0.00  0.00    +0.000 C 
ENDBRANCH  12  15
BRANCH   1  23
ATOM     23  O   UNL     1       3.067   2.768  19.791  0.00  0.00    +0.000 OA
BRANCH  23  25
ATOM     24  C   UNL     1       1.082   2.284  18.580  0.00  0.00    +0.000 C 
ATOM     25  C   UNL     1       2.252   1.683  19.337  0.00  0.00    +0.000 C 
ENDBRANCH  23  25
ENDBRANCH   1  23
TORSDOF 3
ENDMDL
MODEL 7
REMARK VINA RESULT:      -7.6      0.872      1.040
REMARK  Name = 
REMARK  4 active torsions:
REMARK  status: ('A' for Active; 'I' for Inactive)
REMARK    1  A    between atoms: C_1  and  C_2
REMARK    2  A    between atoms: C_2  and  O_3
REMARK    3  A    between atoms: O_3  and  C_4
REMARK    4  A    between atoms: C_15  and  C_16
REMARK                            x       y       z     vdW  Elec       q    Type
REMARK                         _______ _______ _______ _____ _____    ______ ____
ROOT
ATOM      1  C   UNL     1       5.120   5.853  16.799  0.00  0.00    +0.000 C 
ATOM      2  O   UNL     1       5.132   6.874  16.127  0.00  0.00    +0.000 OA
ATOM      3  N   UNL     1       4.279   5.729  17.914  0.00  0.00    +0.000 N 
ATOM      4  C   UNL     1       4.020   4.634  18.765  0.00  0.00    +0.000 A 
ATOM      5  C   UNL     1       4.603   3.351  18.837  0.00  0.00    +0.000 A 
ATOM      6  C   UNL     1       4.120   2.437  19.780  0.00  0.00    +0.000 A 
ATOM      7  C   UNL     1       3.074   2.770  20.633  0.00  0.00    +0.000 A 
ATOM      8  C   UNL     1       2.483   4.034  20.571  0.00  0.00    +0.000 A 
ATOM      9  C   UNL     1       2.969   4.968  19.641  0.00  0.00    +0.000 A 
ATOM     10  C   UNL     1       2.657   6.294  19.306  0.00  0.00    +0.000 A 
ATOM     11  O   UNL     1       1.775   7.249  19.705  0.00  0.00    +0.000 OA
ATOM     12  C   UNL     1       1.986   8.309  18.850  0.00  0.00    +0.000 A 
ATOM     13  C   UNL     1       3.056   8.069  18.006  0.00  0.00    +0.000 A 
ATOM     14  C   UNL     1       3.428   6.745  18.307  0.00  0.00    +0.000 A 
ENDROOT
BRANCH  12  15
ATOM     15  C   UNL     1       1.174   9.514  18.932  0.00  0.00    +0.000 C 
ATOM     16  O   UNL     1       0.636   9.961  17.916  0.00  0.00    +0.000 OA
ATOM     17  N   UNL     1       0.946  10.119  20.168  0.00  0.00    +0.000 N 
ATOM     18  C   UNL     1       1.376   9.641  21.488  0.00  0.00    +0.000 C 
ATOM     19  C   UNL     1       0.176   9.482  22.432  0.00  0.00    +0.000 C 
ATOM     20  O   UNL     1      -0.615  10.677  22.492  0.00  0.00    +0.000 OA
ATOM     21  C   UNL     1      -1.097  11.031  21.185  0.00  0.00    +0.000 C 
ATOM     22  C   UNL     1       0.073  11.294  20.233  0.00  0.00    +0.000 C 
ENDBRANCH  12  15
BRANCH   1  23
ATOM     23  O   UNL     1       5.740   4.683  16.528  0.00  0.00    +0.000 OA
BRANCH  23  25
ATOM     24  C   UNL     1       6.029   4.023  14.265  0.00  0.00    +0.000 C 
ATOM     25  C   UNL     1       6.666   4.743  15.440  0.00  0.00    +0.000 C 
ENDBRANCH  23  25
ENDBRANCH   1  23
TORSDOF 3
ENDMDL
MODEL 8
REMARK VINA RESULT:      -7.4      2.340      3.996
REMARK  Name = 
REMARK  4 active torsions:
REMARK  status: ('A' for Active; 'I' for Inactive)
REMARK    1  A    between atoms: C_1  and  C_2
REMARK    2  A    between atoms: C_2  and  O_3
REMARK    3  A    between atoms: O_3  and  C_4
REMARK    4  A    between atoms: C_15  and  C_16
REMARK                            x       y       z     vdW  Elec       q    Type
REMARK                         _______ _______ _______ _____ _____    ______ ____
ROOT
ATOM      1  C   UNL     1       2.296   5.118  19.984  0.00  0.00    +0.000 C 
ATOM      2  O   UNL     1       1.562   5.674  20.787  0.00  0.00    +0.000 OA
ATOM      3  N   UNL     1       2.814   5.807  18.878  0.00  0.00    +0.000 N 
ATOM      4  C   UNL     1       3.743   5.415  17.891  0.00  0.00    +0.000 A 
ATOM      5  C   UNL     1       4.364   4.174  17.635  0.00  0.00    +0.000 A 
ATOM      6  C   UNL     1       5.285   4.078  16.585  0.00  0.00    +0.000 A 
ATOM      7  C   UNL     1       5.603   5.183  15.805  0.00  0.00    +0.000 A 
ATOM      8  C   UNL     1       5.001   6.420  16.049  0.00  0.00    +0.000 A 
ATOM      9  C   UNL     1       4.061   6.527  17.088  0.00  0.00    +0.000 A 
ATOM     10  C   UNL     1       3.263   7.559  17.605  0.00  0.00    +0.000 A 
ATOM     11  O   UNL     1       3.039   8.876  17.357  0.00  0.00    +0.000 OA
ATOM     12  C   UNL     1       2.168   9.283  18.343  0.00  0.00    +0.000 A 
ATOM     13  C   UNL     1       1.763   8.218  19.126  0.00  0.00    +0.000 A 
ATOM     14  C   UNL     1       2.525   7.138  18.642  0.00  0.00    +0.000 A 
ENDROOT
BRANCH  12  15
ATOM     15  C   UNL     1       1.737  10.670  18.440  0.00  0.00    +0.000 C 
ATOM     16  O   UNL     1       2.493  11.575  18.077  0.00  0.00    +0.000 OA
ATOM     17  N   UNL     1       0.446  10.970  18.876  0.00  0.00    +0.000 N 
ATOM     18  C   UNL     1      -0.629  10.023  19.199  0.00  0.00    +0.000 C 
ATOM     19  C   UNL     1      -1.885  10.312  18.365  0.00  0.00    +0.000 C 
ATOM     20  O   UNL     1      -2.288  11.685  18.468  0.00  0.00    +0.000 OA
ATOM     21  C   UNL     1      -1.231  12.557  18.034  0.00  0.00    +0.000 C 
ATOM     22  C   UNL     1       0.014  12.370  18.905  0.00  0.00    +0.000 C 
ENDBRANCH  12  15
BRANCH   1  23
ATOM     23  O   UNL     1       2.838   3.883  20.081  0.00  0.00    +0.000 OA
BRANCH  23  25
ATOM     24  C   UNL     1       1.201   2.529  19.021  0.00  0.00    +0.000 C 
ATOM     25  C   UNL     1       1.891   2.841  20.336  0.00  0.00    +0.000 C 
ENDBRANCH  23  25
ENDBRANCH   1  23
TORSDOF 3
ENDMDL
MODEL 9
REMARK VINA RESULT:      -7.4      1.733      7.169
REMARK  Name = 
REMARK  4 active torsions:
REMARK  status: ('A' for Active; 'I' for Inactive)
REMARK    1  A    between atoms: C_1  and  C_2
REMARK    2  A    between atoms: C_2  and  O_3
REMARK    3  A    between atoms: O_3  and  C_4
REMARK    4  A    between atoms: C_15  and  C_16
REMARK                            x       y       z     vdW  Elec       q    Type
REMARK                         _______ _______ _______ _____ _____    ______ ____
ROOT
ATOM      1  C   UNL     1       1.570  10.651  18.439  0.00  0.00    +0.000 C 
ATOM      2  O   UNL     1       2.276  10.160  17.570  0.00  0.00    +0.000 OA
ATOM      3  N   UNL     1       1.147   9.896  19.542  0.00  0.00    +0.000 N 
ATOM      4  C   UNL     1       0.428  10.263  20.699  0.00  0.00    +0.000 A 
ATOM      5  C   UNL     1      -0.191  11.477  21.065  0.00  0.00    +0.000 A 
ATOM      6  C   UNL     1      -0.823  11.569  22.311  0.00  0.00    +0.000 A 
ATOM      7  C   UNL     1      -0.838  10.492  23.190  0.00  0.00    +0.000 A 
ATOM      8  C   UNL     1      -0.226   9.286  22.843  0.00  0.00    +0.000 A 
ATOM      9  C   UNL     1       0.397   9.173  21.589  0.00  0.00    +0.000 A 
ATOM     10  C   UNL     1       1.076   8.155  20.903  0.00  0.00    +0.000 A 
ATOM     11  O   UNL     1       1.436   6.863  21.124  0.00  0.00    +0.000 OA
ATOM     12  C   UNL     1       2.180   6.506  20.020  0.00  0.00    +0.000 A 
ATOM     13  C   UNL     1       2.191   7.514  19.074  0.00  0.00    +0.000 A 
ATOM     14  C   UNL     1       1.504   8.570  19.703  0.00  0.00    +0.000 A 
ENDROOT
BRANCH  12  15
ATOM     15  C   UNL     1       2.796   5.191  19.922  0.00  0.00    +0.000 C 
ATOM     16  O   UNL     1       2.290   4.230  20.507  0.00  0.00    +0.000 OA
ATOM     17  N   UNL     1       3.914   5.004  19.109  0.00  0.00    +0.000 N 
ATOM     18  C   UNL     1       4.552   5.991  18.228  0.00  0.00    +0.000 C 
ATOM     19  C   UNL     1       4.618   5.476  16.783  0.00  0.00    +0.000 C 
ATOM     20  O   UNL     1       5.221   4.176  16.709  0.00  0.00    +0.000 OA
ATOM     21  C   UNL     1       4.486   3.232  17.505  0.00  0.00    +0.000 C 
ATOM     22  C   UNL     1       4.478   3.658  18.975  0.00  0.00    +0.000 C 
ENDBRANCH  12  15
BRANCH   1  23
ATOM     23  O   UNL     1       1.222  11.950  18.580  0.00  0.00    +0.000 OA
BRANCH  23  25
ATOM     24  C   UNL     1       2.520  13.613  19.670  0.00  0.00    +0.000 C 
ATOM     25  C   UNL     1       2.291  12.875  18.363  0.00  0.00    +0.000 C 
ENDBRANCH  23  25
ENDBRANCH   1  23
TORSDOF 3
ENDMDL
