MODEL 1
REMARK VINA RESULT:      -8.5      0.000      0.000
REMARK  Name = 
REMARK  4 active torsions:
REMARK  status: ('A' for Active; 'I' for Inactive)
REMARK    1  A    between atoms: C_1  and  C_2
REMARK    2  A    between atoms: C_2  and  C_3
REMARK    3  A    between atoms: C_8  and  C_9
REMARK    4  A    between atoms: C_11  and  C_12
REMARK                            x       y       z     vdW  Elec       q    Type
REMARK                         _______ _______ _______ _____ _____    ______ ____
ROOT
ATOM      1  C   UNL     1       6.873   6.984  17.230  0.00  0.00    +0.000 A 
ATOM      2  N   UNL     1       7.108   8.272  17.133  0.00  0.00    +0.000 NA
ATOM      3  C   UNL     1       8.077   8.484  18.096  0.00  0.00    +0.000 A 
ATOM      4  N   UNL     1       8.437   7.368  18.750  0.00  0.00    +0.000 NA
ATOM      5  O   UNL     1       7.638   6.376  18.182  0.00  0.00    +0.000 OA
ENDROOT
BRANCH   3   6
ATOM      6  C   UNL     1       8.600   9.811  18.380  0.00  0.00    +0.000 A 
ATOM      7  C   UNL     1       9.392  10.036  19.502  0.00  0.00    +0.000 A 
ATOM      8  C   UNL     1       9.919  11.307  19.733  0.00  0.00    +0.000 A 
ATOM      9  C   UNL     1       9.641  12.365  18.861  0.00  0.00    +0.000 A 
ATOM     10  N   UNL     1      10.154  13.621  19.115  0.00  0.00    +0.000 N 
ATOM     11  C   UNL     1       9.417  14.805  18.689  0.00  0.00    +0.000 C 
ATOM     12  C   UNL     1      10.212  15.612  17.666  0.00  0.00    +0.000 C 
ATOM     13  C   UNL     1      11.636  15.883  18.145  0.00  0.00    +0.000 C 
ATOM     14  C   UNL     1      12.333  14.582  18.527  0.00  0.00    +0.000 C 
ATOM     15  C   UNL     1      11.530  13.798  19.566  0.00  0.00    +0.000 C 
ATOM     16  N   UNL     1       8.846  12.164  17.790  0.00  0.00    +0.000 NA
ATOM     17  C   UNL     1       8.363  10.907  17.562  0.00  0.00    +0.000 A 
ENDBRANCH   3   6
BRANCH   1  23
ATOM     18  C   UNL     1       2.802   4.469  17.761  0.00  0.00    +0.000 C 
ATOM     19  O   UNL     1       2.081   5.307  18.299  0.00  0.00    +0.000 OA
ATOM     20  N   UNL     1       3.988   4.816  17.146  0.00  0.00    +0.000 N 
ATOM     21  C   UNL     1       4.908   3.946  16.442  0.00  0.00    +0.000 C 
ATOM     22  C   UNL     1       6.244   4.643  16.626  0.00  0.00    +0.000 C 
ATOM     23  C   UNL     1       5.879   6.130  16.535  0.00  0.00    +0.000 C 
ATOM     24  C   UNL     1       4.467   6.194  17.136  0.00  0.00    +0.000 C 
BRANCH  18  26
ATOM     25  C   UNL     1       1.197   2.667  18.537  0.00  0.00    +0.000 C 
ATOM     26  C   UNL     1       2.454   2.988  17.748  0.00  0.00    +0.000 C 
ENDBRANCH  18  26
ENDBRANCH   1  23
TORSDOF 3
ENDMDL
MODEL 2
REMARK VINA RESULT:      -8.3      6.779      9.169
REMARK  Name = 
REMARK  4 active torsions:
REMARK  status: ('A' for Active; 'I' for Inactive)
REMARK    1  A    between atoms: C_1  and  C_2
REMARK    2  A    between atoms: C_2  and  C_3
REMARK    3  A    between atoms: C_8  and  C_9
REMARK    4  A    between atoms: C_11  and  C_12
REMARK                            x       y       z     vdW  Elec       q    Type
REMARK                         _______ _______ _______ _____ _____    ______ ____
ROOT
ATOM      1  C   UNL     1       2.807   7.415  18.384  0.00  0.00    +0.000 A 
ATOM      2  N   UNL     1       2.038   7.919  19.320  0.00  0.00    +0.000 NA
ATOM      3  C   UNL     1       1.545   9.069  18.731  0.00  0.00    +0.000 A 
ATOM      4  N   UNL     1       1.981   9.258  17.475  0.00  0.00    +0.000 NA
ATOM      5  O   UNL     1       2.820   8.168  17.246  0.00  0.00    +0.000 OA
ENDROOT
BRANCH   3   6
ATOM      6  C   UNL     1       0.677   9.988  19.450  0.00  0.00    +0.000 A 
ATOM      7  C   UNL     1       0.241  11.166  18.850  0.00  0.00    +0.000 A 
ATOM      8  C   UNL     1      -0.626  12.013  19.542  0.00  0.00    +0.000 A 
ATOM      9  C   UNL     1      -1.043  11.704  20.841  0.00  0.00    +0.000 A 
ATOM     10  N   UNL     1      -1.885  12.564  21.517  0.00  0.00    +0.000 N 
ATOM     11  C   UNL     1      -1.811  12.655  22.971  0.00  0.00    +0.000 C 
ATOM     12  C   UNL     1      -3.120  12.213  23.619  0.00  0.00    +0.000 C 
ATOM     13  C   UNL     1      -4.324  12.916  22.994  0.00  0.00    +0.000 C 
ATOM     14  C   UNL     1      -4.332  12.726  21.481  0.00  0.00    +0.000 C 
ATOM     15  C   UNL     1      -3.019  13.192  20.850  0.00  0.00    +0.000 C 
ATOM     16  N   UNL     1      -0.597  10.582  21.442  0.00  0.00    +0.000 NA
ATOM     17  C   UNL     1       0.227   9.749  20.740  0.00  0.00    +0.000 A 
ENDBRANCH   3   6
BRANCH   1  23
ATOM     18  C   UNL     1       6.371   5.142  16.078  0.00  0.00    +0.000 C 
ATOM     19  O   UNL     1       7.178   6.058  15.941  0.00  0.00    +0.000 OA
ATOM     20  N   UNL     1       5.303   5.237  16.947  0.00  0.00    +0.000 N 
ATOM     21  C   UNL     1       4.305   4.228  17.238  0.00  0.00    +0.000 C 
ATOM     22  C   UNL     1       3.090   5.051  17.625  0.00  0.00    +0.000 C 
ATOM     23  C   UNL     1       3.696   6.227  18.402  0.00  0.00    +0.000 C 
ATOM     24  C   UNL     1       5.054   6.450  17.720  0.00  0.00    +0.000 C 
BRANCH  18  26
ATOM     25  C   UNL     1       6.027   3.988  13.847  0.00  0.00    +0.000 C 
ATOM     26  C   UNL     1       6.475   3.844  15.291  0.00  0.00    +0.000 C 
ENDBRANCH  18  26
ENDBRANCH   1  23
TORSDOF 3
ENDMDL
MODEL 3
REMARK VINA RESULT:      -8.2      6.998      8.938
REMARK  Name = 
REMARK  4 active torsions:
REMARK  status: ('A' for Active; 'I' for Inactive)
REMARK    1  A    between atoms: C_1  and  C_2
REMARK    2  A    between atoms: C_2  and  C_3
REMARK    3  A    between atoms: C_8  and  C_9
REMARK    4  A    between atoms: C_11  and  C_12
REMARK                            x       y       z     vdW  Elec       q    Type
REMARK                         _______ _______ _______ _____ _____    ______ ____
ROOT
ATOM      1  C   UNL     1       2.606   7.636  18.428  0.00  0.00    +0.000 A 
ATOM      2  N   UNL     1       1.862   8.180  19.363  0.00  0.00    +0.000 NA
ATOM      3  C   UNL     1       1.415   9.344  18.766  0.00  0.00    +0.000 A 
ATOM      4  N   UNL     1       1.854   9.505  17.508  0.00  0.00    +0.000 NA
ATOM      5  O   UNL     1       2.646   8.379  17.284  0.00  0.00    +0.000 OA
ENDROOT
BRANCH   3   6
ATOM      6  C   UNL     1       0.590  10.305  19.481  0.00  0.00    +0.000 A 
ATOM      7  C   UNL     1      -0.708  10.578  19.058  0.00  0.00    +0.000 A 
ATOM      8  C   UNL     1      -1.497  11.471  19.783  0.00  0.00    +0.000 A 
ATOM      9  C   UNL     1      -0.991  12.114  20.918  0.00  0.00    +0.000 A 
ATOM     10  N   UNL     1      -1.780  13.009  21.612  0.00  0.00    +0.000 N 
ATOM     11  C   UNL     1      -1.160  14.128  22.314  0.00  0.00    +0.000 C 
ATOM     12  C   UNL     1      -1.408  14.041  23.818  0.00  0.00    +0.000 C 
ATOM     13  C   UNL     1      -2.887  13.827  24.133  0.00  0.00    +0.000 C 
ATOM     14  C   UNL     1      -3.428  12.614  23.385  0.00  0.00    +0.000 C 
ATOM     15  C   UNL     1      -3.186  12.729  21.880  0.00  0.00    +0.000 C 
ATOM     16  N   UNL     1       0.277  11.882  21.314  0.00  0.00    +0.000 NA
ATOM     17  C   UNL     1       1.026  10.982  20.611  0.00  0.00    +0.000 A 
ENDBRANCH   3   6
BRANCH   1  23
ATOM     18  C   UNL     1       5.937   5.110  16.040  0.00  0.00    +0.000 C 
ATOM     19  O   UNL     1       6.774   5.984  15.818  0.00  0.00    +0.000 OA
ATOM     20  N   UNL     1       4.924   5.290  16.960  0.00  0.00    +0.000 N 
ATOM     21  C   UNL     1       3.903   4.340  17.349  0.00  0.00    +0.000 C 
ATOM     22  C   UNL     1       2.747   5.231  17.763  0.00  0.00    +0.000 C 
ATOM     23  C   UNL     1       3.444   6.412  18.452  0.00  0.00    +0.000 C 
ATOM     24  C   UNL     1       4.770   6.545  17.689  0.00  0.00    +0.000 C 
BRANCH  18  26
ATOM     25  C   UNL     1       6.012   3.927  13.799  0.00  0.00    +0.000 C 
ATOM     26  C   UNL     1       5.943   3.776  15.309  0.00  0.00    +0.000 C 
ENDBRANCH  18  26
ENDBRANCH   1  23
TORSDOF 3
ENDMDL
MODEL 4
REMARK VINA RESULT:      -8.1      8.093     10.903
REMARK  Name = 
REMARK  4 active torsions:
REMARK  status: ('A' for Active; 'I' for Inactive)
REMARK    1  A    between atoms: C_1  and  C_2
REMARK    2  A    between atoms: C_2  and  C_3
REMARK    3  A    between atoms: C_8  and  C_9
REMARK    4  A    between atoms: C_11  and  C_12
REMARK                            x       y       z     vdW  Elec       q    Type
REMARK                         _______ _______ _______ _____ _____    ______ ____
ROOT
ATOM      1  C   UNL     1      -0.632  11.172  21.949  0.00  0.00    +0.000 A 
ATOM      2  N   UNL     1      -0.298  10.562  20.836  0.00  0.00    +0.000 NA
ATOM      3  C   UNL     1       0.609   9.609  21.263  0.00  0.00    +0.000 A 
ATOM      4  N   UNL     1       0.814   9.621  22.590  0.00  0.00    +0.000 NA
ATOM      5  O   UNL     1      -0.002  10.657  23.045  0.00  0.00    +0.000 OA
ENDROOT
BRANCH   3   6
ATOM      6  C   UNL     1       1.293   8.727  20.331  0.00  0.00    +0.000 A 
ATOM      7  C   UNL     1       1.606   9.160  19.046  0.00  0.00    +0.000 A 
ATOM      8  C   UNL     1       2.301   8.313  18.182  0.00  0.00    +0.000 A 
ATOM      9  C   UNL     1       2.666   7.024  18.585  0.00  0.00    +0.000 A 
ATOM     10  N   UNL     1       3.336   6.193  17.710  0.00  0.00    +0.000 N 
ATOM     11  C   UNL     1       3.152   4.748  17.799  0.00  0.00    +0.000 C 
ATOM     12  C   UNL     1       4.462   4.045  18.144  0.00  0.00    +0.000 C 
ATOM     13  C   UNL     1       5.599   4.490  17.227  0.00  0.00    +0.000 C 
ATOM     14  C   UNL     1       5.736   6.009  17.236  0.00  0.00    +0.000 C 
ATOM     15  C   UNL     1       4.419   6.693  16.870  0.00  0.00    +0.000 C 
ATOM     16  N   UNL     1       2.336   6.585  19.817  0.00  0.00    +0.000 NA
ATOM     17  C   UNL     1       1.683   7.437  20.660  0.00  0.00    +0.000 A 
ENDBRANCH   3   6
BRANCH   1  23
ATOM     18  C   UNL     1      -4.869  12.630  23.710  0.00  0.00    +0.000 C 
ATOM     19  O   UNL     1      -4.847  12.110  24.824  0.00  0.00    +0.000 OA
ATOM     20  N   UNL     1      -3.733  12.737  22.934  0.00  0.00    +0.000 N 
ATOM     21  C   UNL     1      -3.605  13.357  21.632  0.00  0.00    +0.000 C 
ATOM     22  C   UNL     1      -2.457  12.590  21.000  0.00  0.00    +0.000 C 
ATOM     23  C   UNL     1      -1.506  12.348  22.180  0.00  0.00    +0.000 C 
ATOM     24  C   UNL     1      -2.451  12.201  23.382  0.00  0.00    +0.000 C 
BRANCH  18  26
ATOM     25  C   UNL     1      -7.394  12.794  23.875  0.00  0.00    +0.000 C 
ATOM     26  C   UNL     1      -6.148  13.177  23.094  0.00  0.00    +0.000 C 
ENDBRANCH  18  26
ENDBRANCH   1  23
TORSDOF 3
ENDMDL
MODEL 5
REMARK VINA RESULT:      -8.0      6.717      8.610
REMARK  Name = 
REMARK  4 active torsions:
REMARK  status: ('A' for Active; 'I' for Inactive)
REMARK    1  A    between atoms: C_1  and  C_2
REMARK    2  A    between atoms: C_2  and  C_3
REMARK    3  A    between atoms: C_8  and  C_9
REMARK    4  A    between atoms: C_11  and  C_12
REMARK                            x       y       z     vdW  Elec       q    Type
REMARK                         _______ _______ _______ _____ _____    ______ ____
ROOT
ATOM      1  C   UNL     1       2.958   7.262  18.327  0.00  0.00    +0.000 A 
ATOM      2  N   UNL     1       2.160   7.685  19.280  0.00  0.00    +0.000 NA
ATOM      3  C   UNL     1       1.669   8.873  18.770  0.00  0.00    +0.000 A 
ATOM      4  N   UNL     1       2.135   9.164  17.545  0.00  0.00    +0.000 NA
ATOM      5  O   UNL     1       2.992   8.103  17.253  0.00  0.00    +0.000 OA
ENDROOT
BRANCH   3   6
ATOM      6  C   UNL     1       0.773   9.725  19.536  0.00  0.00    +0.000 A 
ATOM      7  C   UNL     1       0.486   9.437  20.867  0.00  0.00    +0.000 A 
ATOM      8  C   UNL     1      -0.342  10.292  21.595  0.00  0.00    +0.000 A 
ATOM      9  C   UNL     1      -0.905  11.423  20.996  0.00  0.00    +0.000 A 
ATOM     10  N   UNL     1      -1.737  12.247  21.727  0.00  0.00    +0.000 N 
ATOM     11  C   UNL     1      -2.808  12.976  21.055  0.00  0.00    +0.000 C 
ATOM     12  C   UNL     1      -2.607  14.484  21.171  0.00  0.00    +0.000 C 
ATOM     13  C   UNL     1      -2.353  14.909  22.616  0.00  0.00    +0.000 C 
ATOM     14  C   UNL     1      -1.192  14.121  23.213  0.00  0.00    +0.000 C 
ATOM     15  C   UNL     1      -1.422  12.613  23.103  0.00  0.00    +0.000 C 
ATOM     16  N   UNL     1      -0.659  11.691  19.698  0.00  0.00    +0.000 NA
ATOM     17  C   UNL     1       0.177  10.861  19.008  0.00  0.00    +0.000 A 
ENDBRANCH   3   6
BRANCH   1  23
ATOM     18  C   UNL     1       6.339   5.016  15.738  0.00  0.00    +0.000 C 
ATOM     19  O   UNL     1       7.121   5.941  15.527  0.00  0.00    +0.000 OA
ATOM     20  N   UNL     1       5.348   5.104  16.694  0.00  0.00    +0.000 N 
ATOM     21  C   UNL     1       4.391   4.086  17.075  0.00  0.00    +0.000 C 
ATOM     22  C   UNL     1       3.203   4.897  17.560  0.00  0.00    +0.000 C 
ATOM     23  C   UNL     1       3.860   6.085  18.276  0.00  0.00    +0.000 C 
ATOM     24  C   UNL     1       5.152   6.319  17.479  0.00  0.00    +0.000 C 
BRANCH  18  26
ATOM     25  C   UNL     1       6.122   3.905  13.469  0.00  0.00    +0.000 C 
ATOM     26  C   UNL     1       6.391   3.714  14.952  0.00  0.00    +0.000 C 
ENDBRANCH  18  26
ENDBRANCH   1  23
TORSDOF 3
ENDMDL
MODEL 6
REMARK VINA RESULT:      -8.0      1.086      1.834
REMARK  Name = 
REMARK  4 active torsions:
REMARK  status: ('A' for Active; 'I' for Inactive)
REMARK    1  A    between atoms: C_1  and  C_2
REMARK    2  A    between atoms: C_2  and  C_3
REMARK    3  A    between atoms: C_8  and  C_9
REMARK    4  A    between atoms: C_11  and  C_12
REMARK                            x       y       z     vdW  Elec       q    Type
REMARK                         _______ _______ _______ _____ _____    ______ ____
ROOT
ATOM      1  C   UNL     1       7.147   6.930  17.252  0.00  0.00    +0.000 A 
ATOM      2  N   UNL     1       7.343   8.221  17.120  0.00  0.00    +0.000 NA
ATOM      3  C   UNL     1       8.194   8.515  18.170  0.00  0.00    +0.000 A 
ATOM      4  N   UNL     1       8.521   7.444  18.911  0.00  0.00    +0.000 NA
ATOM      5  O   UNL     1       7.825   6.396  18.309  0.00  0.00    +0.000 OA
ENDROOT
BRANCH   3   6
ATOM      6  C   UNL     1       8.634   9.873  18.446  0.00  0.00    +0.000 A 
ATOM      7  C   UNL     1       8.430  10.887  17.514  0.00  0.00    +0.000 A 
ATOM      8  C   UNL     1       8.821  12.192  17.816  0.00  0.00    +0.000 A 
ATOM      9  C   UNL     1       9.437  12.489  19.036  0.00  0.00    +0.000 A 
ATOM     10  N   UNL     1       9.835  13.782  19.310  0.00  0.00    +0.000 N 
ATOM     11  C   UNL     1      10.991  14.018  20.169  0.00  0.00    +0.000 C 
ATOM     12  C   UNL     1      10.593  14.769  21.436  0.00  0.00    +0.000 C 
ATOM     13  C   UNL     1       9.767  16.014  21.117  0.00  0.00    +0.000 C 
ATOM     14  C   UNL     1       8.564  15.656  20.253  0.00  0.00    +0.000 C 
ATOM     15  C   UNL     1       8.986  14.920  18.981  0.00  0.00    +0.000 C 
ATOM     16  N   UNL     1       9.670  11.506  19.930  0.00  0.00    +0.000 NA
ATOM     17  C   UNL     1       9.254  10.240  19.631  0.00  0.00    +0.000 A 
ENDBRANCH   3   6
BRANCH   1  23
ATOM     18  C   UNL     1       3.153   4.251  17.472  0.00  0.00    +0.000 C 
ATOM     19  O   UNL     1       2.346   5.073  17.900  0.00  0.00    +0.000 OA
ATOM     20  N   UNL     1       4.379   4.629  16.966  0.00  0.00    +0.000 N 
ATOM     21  C   UNL     1       5.403   3.778  16.395  0.00  0.00    +0.000 C 
ATOM     22  C   UNL     1       6.682   4.542  16.683  0.00  0.00    +0.000 C 
ATOM     23  C   UNL     1       6.266   6.007  16.496  0.00  0.00    +0.000 C 
ATOM     24  C   UNL     1       4.799   6.027  16.949  0.00  0.00    +0.000 C 
BRANCH  18  26
ATOM     25  C   UNL     1       2.942   2.149  18.875  0.00  0.00    +0.000 C 
ATOM     26  C   UNL     1       2.871   2.756  17.484  0.00  0.00    +0.000 C 
ENDBRANCH  18  26
ENDBRANCH   1  23
TORSDOF 3
ENDMDL
MODEL 7
REMARK VINA RESULT:      -7.8      6.475      8.425
REMARK  Name = 
REMARK  4 active torsions:
REMARK  status: ('A' for Active; 'I' for Inactive)
REMARK    1  A    between atoms: C_1  and  C_2
REMARK    2  A    between atoms: C_2  and  C_3
REMARK    3  A    between atoms: C_8  and  C_9
REMARK    4  A    between atoms: C_11  and  C_12
REMARK                            x       y       z     vdW  Elec       q    Type
REMARK                         _______ _______ _______ _____ _____    ______ ____
ROOT
ATOM      1  C   UNL     1       3.437   5.337  19.266  0.00  0.00    +0.000 A 
ATOM      2  N   UNL     1       3.191   6.619  19.133  0.00  0.00    +0.000 NA
ATOM      3  C   UNL     1       2.157   6.831  20.027  0.00  0.00    +0.000 A 
ATOM      4  N   UNL     1       1.791   5.726  20.696  0.00  0.00    +0.000 NA
ATOM      5  O   UNL     1       2.632   4.736  20.190  0.00  0.00    +0.000 OA
ENDROOT
BRANCH   3   6
ATOM      6  C   UNL     1       1.518   8.130  20.168  0.00  0.00    +0.000 A 
ATOM      7  C   UNL     1       1.442   9.003  19.087  0.00  0.00    +0.000 A 
ATOM      8  C   UNL     1       0.787  10.227  19.232  0.00  0.00    +0.000 A 
ATOM      9  C   UNL     1       0.225  10.596  20.459  0.00  0.00    +0.000 A 
ATOM     10  N   UNL     1      -0.402  11.818  20.590  0.00  0.00    +0.000 N 
ATOM     11  C   UNL     1      -0.395  12.502  21.879  0.00  0.00    +0.000 C 
ATOM     12  C   UNL     1      -1.811  12.666  22.424  0.00  0.00    +0.000 C 
ATOM     13  C   UNL     1      -2.749  13.273  21.382  0.00  0.00    +0.000 C 
ATOM     14  C   UNL     1      -2.715  12.464  20.090  0.00  0.00    +0.000 C 
ATOM     15  C   UNL     1      -1.291  12.327  19.552  0.00  0.00    +0.000 C 
ATOM     16  N   UNL     1       0.326   9.770  21.521  0.00  0.00    +0.000 NA
ATOM     17  C   UNL     1       0.943   8.564  21.353  0.00  0.00    +0.000 A 
ENDBRANCH   3   6
BRANCH   1  23
ATOM     18  C   UNL     1       6.722   5.156  15.751  0.00  0.00    +0.000 C 
ATOM     19  O   UNL     1       7.452   6.093  16.070  0.00  0.00    +0.000 OA
ATOM     20  N   UNL     1       5.793   4.628  16.625  0.00  0.00    +0.000 N 
ATOM     21  C   UNL     1       4.903   3.508  16.400  0.00  0.00    +0.000 C 
ATOM     22  C   UNL     1       3.720   3.826  17.296  0.00  0.00    +0.000 C 
ATOM     23  C   UNL     1       4.377   4.454  18.533  0.00  0.00    +0.000 C 
ATOM     24  C   UNL     1       5.603   5.181  17.962  0.00  0.00    +0.000 C 
BRANCH  18  26
ATOM     25  C   UNL     1       7.703   5.250  13.415  0.00  0.00    +0.000 C 
ATOM     26  C   UNL     1       6.771   4.523  14.369  0.00  0.00    +0.000 C 
ENDBRANCH  18  26
ENDBRANCH   1  23
TORSDOF 3
ENDMDL
MODEL 8
REMARK VINA RESULT:      -7.7      7.384     10.375
REMARK  Name = 
REMARK  4 active torsions:
REMARK  status: ('A' for Active; 'I' for Inactive)
REMARK    1  A    between atoms: C_1  and  C_2
REMARK    2  A    between atoms: C_2  and  C_3
REMARK    3  A    between atoms: C_8  and  C_9
REMARK    4  A    between atoms: C_11  and  C_12
REMARK                            x       y       z     vdW  Elec       q    Type
REMARK                         _______ _______ _______ _____ _____    ______ ____
ROOT
ATOM      1  C   UNL     1      -1.217  11.154  19.043  0.00  0.00    +0.000 A 
ATOM      2  N   UNL     1      -0.629  10.128  18.474  0.00  0.00    +0.000 NA
ATOM      3  C   UNL     1       0.495   9.941  19.258  0.00  0.00    +0.000 A 
ATOM      4  N   UNL     1       0.588  10.809  20.278  0.00  0.00    +0.000 NA
ATOM      5  O   UNL     1      -0.541  11.615  20.135  0.00  0.00    +0.000 OA
ENDROOT
BRANCH   3   6
ATOM      6  C   UNL     1       1.487   8.924  18.948  0.00  0.00    +0.000 A 
ATOM      7  C   UNL     1       1.745   7.889  19.843  0.00  0.00    +0.000 A 
ATOM      8  C   UNL     1       2.669   6.900  19.507  0.00  0.00    +0.000 A 
ATOM      9  C   UNL     1       3.357   6.948  18.289  0.00  0.00    +0.000 A 
ATOM     10  N   UNL     1       4.282   5.971  17.982  0.00  0.00    +0.000 N 
ATOM     11  C   UNL     1       5.428   6.297  17.139  0.00  0.00    +0.000 C 
ATOM     12  C   UNL     1       5.403   5.494  15.841  0.00  0.00    +0.000 C 
ATOM     13  C   UNL     1       5.206   4.002  16.105  0.00  0.00    +0.000 C 
ATOM     14  C   UNL     1       3.964   3.765  16.957  0.00  0.00    +0.000 C 
ATOM     15  C   UNL     1       4.017   4.564  18.260  0.00  0.00    +0.000 C 
ATOM     16  N   UNL     1       3.138   7.965  17.432  0.00  0.00    +0.000 NA
ATOM     17  C   UNL     1       2.209   8.909  17.763  0.00  0.00    +0.000 A 
ENDBRANCH   3   6
BRANCH   1  23
ATOM     18  C   UNL     1      -5.648  12.465  20.396  0.00  0.00    +0.000 C 
ATOM     19  O   UNL     1      -5.422  12.919  21.516  0.00  0.00    +0.000 OA
ATOM     20  N   UNL     1      -4.635  12.228  19.489  0.00  0.00    +0.000 N 
ATOM     21  C   UNL     1      -4.759  11.739  18.132  0.00  0.00    +0.000 C 
ATOM     22  C   UNL     1      -3.438  11.026  17.904  0.00  0.00    +0.000 C 
ATOM     23  C   UNL     1      -2.429  11.913  18.646  0.00  0.00    +0.000 C 
ATOM     24  C   UNL     1      -3.236  12.469  19.828  0.00  0.00    +0.000 C 
BRANCH  18  26
ATOM     25  C   UNL     1      -7.509  10.743  20.403  0.00  0.00    +0.000 C 
ATOM     26  C   UNL     1      -7.053  12.113  19.931  0.00  0.00    +0.000 C 
ENDBRANCH  18  26
ENDBRANCH   1  23
TORSDOF 3
ENDMDL
MODEL 9
REMARK VINA RESULT:      -7.7      7.595     10.836
REMARK  Name = 
REMARK  4 active torsions:
REMARK  status: ('A' for Active; 'I' for Inactive)
REMARK    1  A    between atoms: C_1  and  C_2
REMARK    2  A    between atoms: C_2  and  C_3
REMARK    3  A    between atoms: C_8  and  C_9
REMARK    4  A    between atoms: C_11  and  C_12
REMARK                            x       y       z     vdW  Elec       q    Type
REMARK                         _______ _______ _______ _____ _____    ______ ____
ROOT
ATOM      1  C   UNL     1      -1.402  11.630  18.885  0.00  0.00    +0.000 A 
ATOM      2  N   UNL     1      -1.086  10.379  19.127  0.00  0.00    +0.000 NA
ATOM      3  C   UNL     1       0.297  10.400  19.111  0.00  0.00    +0.000 A 
ATOM      4  N   UNL     1       0.813  11.618  18.884  0.00  0.00    +0.000 NA
ATOM      5  O   UNL     1      -0.309  12.432  18.728  0.00  0.00    +0.000 OA
ENDROOT
BRANCH   3   6
ATOM      6  C   UNL     1       1.085   9.189  19.280  0.00  0.00    +0.000 A 
ATOM      7  C   UNL     1       1.098   8.516  20.498  0.00  0.00    +0.000 A 
ATOM      8  C   UNL     1       1.826   7.333  20.626  0.00  0.00    +0.000 A 
ATOM      9  C   UNL     1       2.563   6.827  19.549  0.00  0.00    +0.000 A 
ATOM     10  N   UNL     1       3.293   5.666  19.700  0.00  0.00    +0.000 N 
ATOM     11  C   UNL     1       4.515   5.473  18.926  0.00  0.00    +0.000 C 
ATOM     12  C   UNL     1       4.392   4.275  17.989  0.00  0.00    +0.000 C 
ATOM     13  C   UNL     1       3.898   3.032  18.725  0.00  0.00    +0.000 C 
ATOM     14  C   UNL     1       2.598   3.325  19.466  0.00  0.00    +0.000 C 
ATOM     15  C   UNL     1       2.748   4.516  20.412  0.00  0.00    +0.000 C 
ATOM     16  N   UNL     1       2.583   7.492  18.376  0.00  0.00    +0.000 NA
ATOM     17  C   UNL     1       1.841   8.632  18.259  0.00  0.00    +0.000 A 
ENDBRANCH   3   6
BRANCH   1  23
ATOM     18  C   UNL     1      -5.881  11.999  20.610  0.00  0.00    +0.000 C 
ATOM     19  O   UNL     1      -5.654  12.252  21.792  0.00  0.00    +0.000 OA
ATOM     20  N   UNL     1      -4.901  12.093  19.644  0.00  0.00    +0.000 N 
ATOM     21  C   UNL     1      -5.037  11.866  18.220  0.00  0.00    +0.000 C 
ATOM     22  C   UNL     1      -3.648  11.409  17.812  0.00  0.00    +0.000 C 
ATOM     23  C   UNL     1      -2.726  12.269  18.687  0.00  0.00    +0.000 C 
ATOM     24  C   UNL     1      -3.529  12.461  19.981  0.00  0.00    +0.000 C 
BRANCH  18  26
ATOM     25  C   UNL     1      -7.541  10.089  20.444  0.00  0.00    +0.000 C 
ATOM     26  C   UNL     1      -7.251  11.546  20.127  0.00  0.00    +0.000 C 
ENDBRANCH  18  26
ENDBRANCH   1  23
TORSDOF 3
ENDMDL
