MODEL 1
REMARK VINA RESULT:      -8.9      0.000      0.000
REMARK  Name = 
REMARK  7 active torsions:
REMARK  status: ('A' for Active; 'I' for Inactive)
REMARK    1  A    between atoms: C_1  and  O_2
REMARK    2  A    between atoms: O_2  and  C_3
REMARK    3  A    between atoms: C_5  and  C_6
REMARK    4  A    between atoms: C_10  and  C_11
REMARK    5  A    between atoms: C_15  and  N_16
REMARK    6  A    between atoms: C_23  and  S_24
REMARK    7  A    between atoms: S_24  and  N_27
REMARK                            x       y       z     vdW  Elec       q    Type
REMARK                         _______ _______ _______ _____ _____    ______ ____
ROOT
ATOM      1  N   UNL     1       0.179  11.646  19.954  0.00  0.00    +0.000 N 
ATOM      2  C   UNL     1       0.925  12.521  20.818  0.00  0.00    +0.000 A 
ATOM      3  O   UNL     1       2.135  12.529  21.029  0.00  0.00    +0.000 OA
ATOM      4  C   UNL     1       0.073  13.462  21.607  0.00  0.00    +0.000 A 
ATOM      5  C   UNL     1      -0.625  12.636  22.405  0.00  0.00    +0.000 A 
ATOM      6  C   UNL     1      -1.720  12.118  21.571  0.00  0.00    +0.000 A 
ATOM      7  C   UNL     1      -3.010  12.550  21.958  0.00  0.00    +0.000 A 
ATOM      8  C   UNL     1      -3.960  12.758  20.984  0.00  0.00    +0.000 A 
ATOM      9  C   UNL     1      -3.626  12.427  19.651  0.00  0.00    +0.000 A 
ATOM     10  C   UNL     1      -2.330  11.849  19.295  0.00  0.00    +0.000 A 
ATOM     11  C   UNL     1      -1.322  11.652  20.265  0.00  0.00    +0.000 A 
ENDROOT
BRANCH   1  17
ATOM     12  C   UNL     1       1.128   9.245  20.322  0.00  0.00    +0.000 A 
ATOM     13  C   UNL     1       1.702   7.995  19.816  0.00  0.00    +0.000 A 
ATOM     14  C   UNL     1       2.187   7.806  18.510  0.00  0.00    +0.000 A 
ATOM     15  C   UNL     1       1.991   8.975  17.725  0.00  0.00    +0.000 A 
ATOM     16  C   UNL     1       1.421  10.239  18.211  0.00  0.00    +0.000 A 
ATOM     17  C   UNL     1       0.993  10.438  19.536  0.00  0.00    +0.000 A 
BRANCH  14  18
ATOM     18  C   UNL     1       2.888   6.499  18.013  0.00  0.00    +0.000 A 
ATOM     19  C   UNL     1       4.211   6.486  17.523  0.00  0.00    +0.000 A 
ATOM     20  C   UNL     1       4.903   5.317  17.112  0.00  0.00    +0.000 A 
ATOM     21  C   UNL     1       4.291   4.084  17.176  0.00  0.00    +0.000 A 
ATOM     22  C   UNL     1       2.990   3.986  17.642  0.00  0.00    +0.000 A 
ATOM     23  C   UNL     1       2.367   2.596  17.710  0.00  0.00    +0.000 C 
ATOM     24  C   UNL     1       2.298   5.184  18.044  0.00  0.00    +0.000 A 
ENDBRANCH  14  18
BRANCH  12  26
ATOM     25  C   UNL     1      -0.256   8.756  22.209  0.00  0.00    +0.000 C 
ATOM     26  O   UNL     1       0.994   9.191  21.697  0.00  0.00    +0.000 OA
ENDBRANCH  12  26
ENDBRANCH   1  17
BRANCH   8  27
ATOM     27  S   UNL     1      -5.547  13.468  21.471  0.00  0.00    +0.000 S 
ATOM     28  O   UNL     1      -6.503  13.183  20.424  0.00  0.00    +0.000 OA
ATOM     29  O   UNL     1      -5.775  13.000  22.825  0.00  0.00    +0.000 OA
BRANCH  27  30
ATOM     30  N   UNL     1      -5.387  15.120  21.628  0.00  0.00    +0.000 N 
ATOM     31  C   UNL     1      -5.100  15.709  22.846  0.00  0.00    +0.000 A 
ATOM     32  N   UNL     1      -3.861  15.649  23.331  0.00  0.00    +0.000 NA
ATOM     33  C   UNL     1      -3.629  16.408  24.424  0.00  0.00    +0.000 A 
ATOM     34  C   UNL     1      -4.591  17.185  25.029  0.00  0.00    +0.000 A 
ATOM     35  C   UNL     1      -5.827  17.171  24.427  0.00  0.00    +0.000 A 
ATOM     36  N   UNL     1      -6.106  16.452  23.322  0.00  0.00    +0.000 NA
ATOM     37  H   UNL     1      -5.989  15.677  21.034  0.00  0.00    +0.000 HD
ENDBRANCH  27  30
ENDBRANCH   8  27
TORSDOF 5
ENDMDL
MODEL 2
REMARK VINA RESULT:      -8.9      0.368      1.175
REMARK  Name = 
REMARK  7 active torsions:
REMARK  status: ('A' for Active; 'I' for Inactive)
REMARK    1  A    between atoms: C_1  and  O_2
REMARK    2  A    between atoms: O_2  and  C_3
REMARK    3  A    between atoms: C_5  and  C_6
REMARK    4  A    between atoms: C_10  and  C_11
REMARK    5  A    between atoms: C_15  and  N_16
REMARK    6  A    between atoms: C_23  and  S_24
REMARK    7  A    between atoms: S_24  and  N_27
REMARK                            x       y       z     vdW  Elec       q    Type
REMARK                         _______ _______ _______ _____ _____    ______ ____
ROOT
ATOM      1  N   UNL     1       0.102  11.789  20.072  0.00  0.00    +0.000 N 
ATOM      2  C   UNL     1       0.832  12.668  20.945  0.00  0.00    +0.000 A 
ATOM      3  O   UNL     1       2.041  12.700  21.152  0.00  0.00    +0.000 OA
ATOM      4  C   UNL     1      -0.038  13.580  21.750  0.00  0.00    +0.000 A 
ATOM      5  C   UNL     1      -0.716  12.728  22.539  0.00  0.00    +0.000 A 
ATOM      6  C   UNL     1      -1.802  12.198  21.701  0.00  0.00    +0.000 A 
ATOM      7  C   UNL     1      -3.099  12.597  22.099  0.00  0.00    +0.000 A 
ATOM      8  C   UNL     1      -4.057  12.798  21.131  0.00  0.00    +0.000 A 
ATOM      9  C   UNL     1      -3.720  12.491  19.792  0.00  0.00    +0.000 A 
ATOM     10  C   UNL     1      -2.414  11.947  19.424  0.00  0.00    +0.000 A 
ATOM     11  C   UNL     1      -1.399  11.758  20.388  0.00  0.00    +0.000 A 
ENDROOT
BRANCH   1  17
ATOM     12  C   UNL     1       1.089   9.398  20.397  0.00  0.00    +0.000 A 
ATOM     13  C   UNL     1       1.689   8.169  19.869  0.00  0.00    +0.000 A 
ATOM     14  C   UNL     1       2.188   8.017  18.564  0.00  0.00    +0.000 A 
ATOM     15  C   UNL     1       1.978   9.199  17.802  0.00  0.00    +0.000 A 
ATOM     16  C   UNL     1       1.382  10.442  18.311  0.00  0.00    +0.000 A 
ATOM     17  C   UNL     1       0.939  10.605  19.636  0.00  0.00    +0.000 A 
BRANCH  14  18
ATOM     18  C   UNL     1       2.915   6.733  18.045  0.00  0.00    +0.000 A 
ATOM     19  C   UNL     1       2.348   5.444  18.152  0.00  0.00    +0.000 A 
ATOM     20  C   UNL     1       2.947   4.261  17.648  0.00  0.00    +0.000 A 
ATOM     21  C   UNL     1       4.162   4.313  17.000  0.00  0.00    +0.000 A 
ATOM     22  C   UNL     1       4.805   5.531  16.842  0.00  0.00    +0.000 A 
ATOM     23  C   UNL     1       6.138   5.535  16.101  0.00  0.00    +0.000 C 
ATOM     24  C   UNL     1       4.189   6.721  17.370  0.00  0.00    +0.000 A 
ENDBRANCH  14  18
BRANCH  12  26
ATOM     25  C   UNL     1      -0.303   8.844  22.260  0.00  0.00    +0.000 C 
ATOM     26  O   UNL     1       0.944   9.311  21.769  0.00  0.00    +0.000 OA
ENDBRANCH  12  26
ENDBRANCH   1  17
BRANCH   8  27
ATOM     27  S   UNL     1      -5.657  13.467  21.632  0.00  0.00    +0.000 S 
ATOM     28  O   UNL     1      -6.617  13.150  20.598  0.00  0.00    +0.000 OA
ATOM     29  O   UNL     1      -5.857  13.000  22.991  0.00  0.00    +0.000 OA
BRANCH  27  30
ATOM     30  N   UNL     1      -5.541  15.123  21.779  0.00  0.00    +0.000 N 
ATOM     31  C   UNL     1      -5.084  15.718  22.942  0.00  0.00    +0.000 A 
ATOM     32  N   UNL     1      -3.781  15.708  23.219  0.00  0.00    +0.000 NA
ATOM     33  C   UNL     1      -3.407  16.471  24.268  0.00  0.00    +0.000 A 
ATOM     34  C   UNL     1      -4.289  17.205  25.029  0.00  0.00    +0.000 A 
ATOM     35  C   UNL     1      -5.603  17.142  24.635  0.00  0.00    +0.000 A 
ATOM     36  N   UNL     1      -6.029  16.417  23.581  0.00  0.00    +0.000 NA
ATOM     37  H   UNL     1      -6.253  15.657  21.296  0.00  0.00    +0.000 HD
ENDBRANCH  27  30
ENDBRANCH   8  27
TORSDOF 5
ENDMDL
MODEL 3
REMARK VINA RESULT:      -8.8      0.760      1.079
REMARK  Name = 
REMARK  7 active torsions:
REMARK  status: ('A' for Active; 'I' for Inactive)
REMARK    1  A    between atoms: C_1  and  O_2
REMARK    2  A    between atoms: O_2  and  C_3
REMARK    3  A    between atoms: C_5  and  C_6
REMARK    4  A    between atoms: C_10  and  C_11
REMARK    5  A    between atoms: C_15  and  N_16
REMARK    6  A    between atoms: C_23  and  S_24
REMARK    7  A    between atoms: S_24  and  N_27
REMARK                            x       y       z     vdW  Elec       q    Type
REMARK                         _______ _______ _______ _____ _____    ______ ____
ROOT
ATOM      1  N   UNL     1       0.040  11.807  20.137  0.00  0.00    +0.000 N 
ATOM      2  C   UNL     1       0.772  12.695  20.999  0.00  0.00    +0.000 A 
ATOM      3  O   UNL     1       1.985  12.747  21.181  0.00  0.00    +0.000 OA
ATOM      4  C   UNL     1      -0.097  13.587  21.825  0.00  0.00    +0.000 A 
ATOM      5  C   UNL     1      -0.743  12.720  22.624  0.00  0.00    +0.000 A 
ATOM      6  C   UNL     1      -1.837  12.175  21.806  0.00  0.00    +0.000 A 
ATOM      7  C   UNL     1      -3.132  12.549  22.232  0.00  0.00    +0.000 A 
ATOM      8  C   UNL     1      -4.113  12.737  21.284  0.00  0.00    +0.000 A 
ATOM      9  C   UNL     1      -3.798  12.442  19.938  0.00  0.00    +0.000 A 
ATOM     10  C   UNL     1      -2.490  11.923  19.540  0.00  0.00    +0.000 A 
ATOM     11  C   UNL     1      -1.453  11.748  20.482  0.00  0.00    +0.000 A 
ENDROOT
BRANCH   1  17
ATOM     12  C   UNL     1       0.863   9.337  20.277  0.00  0.00    +0.000 A 
ATOM     13  C   UNL     1       1.491   8.152  19.685  0.00  0.00    +0.000 A 
ATOM     14  C   UNL     1       2.192   8.141  18.467  0.00  0.00    +0.000 A 
ATOM     15  C   UNL     1       2.158   9.423  17.853  0.00  0.00    +0.000 A 
ATOM     16  C   UNL     1       1.538  10.624  18.429  0.00  0.00    +0.000 A 
ATOM     17  C   UNL     1       0.890  10.640  19.677  0.00  0.00    +0.000 A 
BRANCH  14  18
ATOM     18  C   UNL     1       2.942   6.892  17.896  0.00  0.00    +0.000 A 
ATOM     19  C   UNL     1       4.199   6.988  17.261  0.00  0.00    +0.000 A 
ATOM     20  C   UNL     1       4.938   5.877  16.776  0.00  0.00    +0.000 A 
ATOM     21  C   UNL     1       4.445   4.597  16.909  0.00  0.00    +0.000 A 
ATOM     22  C   UNL     1       3.217   4.394  17.517  0.00  0.00    +0.000 A 
ATOM     23  C   UNL     1       2.726   2.956  17.655  0.00  0.00    +0.000 C 
ATOM     24  C   UNL     1       2.474   5.532  17.993  0.00  0.00    +0.000 A 
ENDBRANCH  14  18
BRANCH  12  26
ATOM     25  C   UNL     1       1.446   9.359  22.596  0.00  0.00    +0.000 C 
ATOM     26  O   UNL     1       0.491   9.081  21.584  0.00  0.00    +0.000 OA
ENDBRANCH  12  26
ENDBRANCH   1  17
BRANCH   8  27
ATOM     27  S   UNL     1      -5.714  13.375  21.821  0.00  0.00    +0.000 S 
ATOM     28  O   UNL     1      -6.018  14.543  21.024  0.00  0.00    +0.000 OA
ATOM     29  O   UNL     1      -6.603  12.229  21.817  0.00  0.00    +0.000 OA
BRANCH  27  30
ATOM     30  N   UNL     1      -5.621  13.818  23.425  0.00  0.00    +0.000 N 
ATOM     31  C   UNL     1      -5.291  15.107  23.805  0.00  0.00    +0.000 A 
ATOM     32  N   UNL     1      -6.197  16.077  23.698  0.00  0.00    +0.000 NA
ATOM     33  C   UNL     1      -5.855  17.254  24.265  0.00  0.00    +0.000 A 
ATOM     34  C   UNL     1      -4.652  17.472  24.899  0.00  0.00    +0.000 A 
ATOM     35  C   UNL     1      -3.808  16.389  24.952  0.00  0.00    +0.000 A 
ATOM     36  N   UNL     1      -4.109  15.186  24.426  0.00  0.00    +0.000 NA
ATOM     37  H   UNL     1      -5.282  13.104  24.058  0.00  0.00    +0.000 HD
ENDBRANCH  27  30
ENDBRANCH   8  27
TORSDOF 5
ENDMDL
MODEL 4
REMARK VINA RESULT:      -8.8      2.206      3.274
REMARK  Name = 
REMARK  7 active torsions:
REMARK  status: ('A' for Active; 'I' for Inactive)
REMARK    1  A    between atoms: C_1  and  O_2
REMARK    2  A    between atoms: O_2  and  C_3
REMARK    3  A    between atoms: C_5  and  C_6
REMARK    4  A    between atoms: C_10  and  C_11
REMARK    5  A    between atoms: C_15  and  N_16
REMARK    6  A    between atoms: C_23  and  S_24
REMARK    7  A    between atoms: S_24  and  N_27
REMARK                            x       y       z     vdW  Elec       q    Type
REMARK                         _______ _______ _______ _____ _____    ______ ____
ROOT
ATOM      1  N   UNL     1       0.444  11.576  19.316  0.00  0.00    +0.000 N 
ATOM      2  C   UNL     1       1.263  12.669  19.764  0.00  0.00    +0.000 A 
ATOM      3  O   UNL     1       2.487  12.759  19.740  0.00  0.00    +0.000 OA
ATOM      4  C   UNL     1       0.494  13.773  20.416  0.00  0.00    +0.000 A 
ATOM      5  C   UNL     1       0.001  13.183  21.519  0.00  0.00    +0.000 A 
ATOM      6  C   UNL     1      -1.181  12.434  21.067  0.00  0.00    +0.000 A 
ATOM      7  C   UNL     1      -2.413  12.930  21.554  0.00  0.00    +0.000 A 
ATOM      8  C   UNL     1      -3.527  12.843  20.751  0.00  0.00    +0.000 A 
ATOM      9  C   UNL     1      -3.402  12.165  19.516  0.00  0.00    +0.000 A 
ATOM     10  C   UNL     1      -2.149  11.539  19.096  0.00  0.00    +0.000 A 
ATOM     11  C   UNL     1      -0.980  11.636  19.883  0.00  0.00    +0.000 A 
ENDROOT
BRANCH   1  17
ATOM     12  C   UNL     1       1.274   9.199  19.993  0.00  0.00    +0.000 A 
ATOM     13  C   UNL     1       1.857   7.895  19.663  0.00  0.00    +0.000 A 
ATOM     14  C   UNL     1       2.463   7.575  18.436  0.00  0.00    +0.000 A 
ATOM     15  C   UNL     1       2.383   8.670  17.532  0.00  0.00    +0.000 A 
ATOM     16  C   UNL     1       1.808   9.986  17.842  0.00  0.00    +0.000 A 
ATOM     17  C   UNL     1       1.256  10.316  19.094  0.00  0.00    +0.000 A 
BRANCH  14  18
ATOM     18  C   UNL     1       3.168   6.211  18.132  0.00  0.00    +0.000 A 
ATOM     19  C   UNL     1       4.514   6.129  17.716  0.00  0.00    +0.000 A 
ATOM     20  C   UNL     1       5.208   4.914  17.482  0.00  0.00    +0.000 A 
ATOM     21  C   UNL     1       4.575   3.702  17.658  0.00  0.00    +0.000 A 
ATOM     22  C   UNL     1       3.250   3.672  18.064  0.00  0.00    +0.000 A 
ATOM     23  C   UNL     1       2.604   2.305  18.262  0.00  0.00    +0.000 C 
ATOM     24  C   UNL     1       2.557   4.914  18.286  0.00  0.00    +0.000 A 
ENDBRANCH  14  18
BRANCH  12  26
ATOM     25  C   UNL     1      -0.222   8.714  21.793  0.00  0.00    +0.000 C 
ATOM     26  O   UNL     1       1.002   9.274  21.346  0.00  0.00    +0.000 OA
ENDBRANCH  12  26
ENDBRANCH   1  17
BRANCH   8  27
ATOM     27  S   UNL     1      -5.053  13.627  21.312  0.00  0.00    +0.000 S 
ATOM     28  O   UNL     1      -5.261  13.259  22.695  0.00  0.00    +0.000 OA
ATOM     29  O   UNL     1      -4.928  15.021  20.932  0.00  0.00    +0.000 OA
BRANCH  27  30
ATOM     30  N   UNL     1      -6.330  13.065  20.400  0.00  0.00    +0.000 N 
ATOM     31  C   UNL     1      -6.713  11.736  20.427  0.00  0.00    +0.000 A 
ATOM     32  N   UNL     1      -7.392  11.268  21.474  0.00  0.00    +0.000 NA
ATOM     33  C   UNL     1      -7.886  10.020  21.332  0.00  0.00    +0.000 A 
ATOM     34  C   UNL     1      -7.702   9.252  20.205  0.00  0.00    +0.000 A 
ATOM     35  C   UNL     1      -6.994   9.851  19.191  0.00  0.00    +0.000 A 
ATOM     36  N   UNL     1      -6.500  11.102  19.269  0.00  0.00    +0.000 NA
ATOM     37  H   UNL     1      -6.453  13.509  19.497  0.00  0.00    +0.000 HD
ENDBRANCH  27  30
ENDBRANCH   8  27
TORSDOF 5
ENDMDL
MODEL 5
REMARK VINA RESULT:      -8.8      0.867      1.216
REMARK  Name = 
REMARK  7 active torsions:
REMARK  status: ('A' for Active; 'I' for Inactive)
REMARK    1  A    between atoms: C_1  and  O_2
REMARK    2  A    between atoms: O_2  and  C_3
REMARK    3  A    between atoms: C_5  and  C_6
REMARK    4  A    between atoms: C_10  and  C_11
REMARK    5  A    between atoms: C_15  and  N_16
REMARK    6  A    between atoms: C_23  and  S_24
REMARK    7  A    between atoms: S_24  and  N_27
REMARK                            x       y       z     vdW  Elec       q    Type
REMARK                         _______ _______ _______ _____ _____    ______ ____
ROOT
ATOM      1  N   UNL     1       0.026  11.843  20.156  0.00  0.00    +0.000 N 
ATOM      2  C   UNL     1       0.749  12.699  21.058  0.00  0.00    +0.000 A 
ATOM      3  O   UNL     1       1.958  12.727  21.271  0.00  0.00    +0.000 OA
ATOM      4  C   UNL     1      -0.127  13.584  21.884  0.00  0.00    +0.000 A 
ATOM      5  C   UNL     1      -0.806  12.708  22.645  0.00  0.00    +0.000 A 
ATOM      6  C   UNL     1      -1.887  12.199  21.787  0.00  0.00    +0.000 A 
ATOM      7  C   UNL     1      -3.187  12.583  22.189  0.00  0.00    +0.000 A 
ATOM      8  C   UNL     1      -4.141  12.809  21.222  0.00  0.00    +0.000 A 
ATOM      9  C   UNL     1      -3.796  12.542  19.877  0.00  0.00    +0.000 A 
ATOM     10  C   UNL     1      -2.487  12.012  19.500  0.00  0.00    +0.000 A 
ATOM     11  C   UNL     1      -1.476  11.799  20.463  0.00  0.00    +0.000 A 
ENDROOT
BRANCH   1  17
ATOM     12  C   UNL     1       1.031   9.452  20.423  0.00  0.00    +0.000 A 
ATOM     13  C   UNL     1       1.637   8.239  19.866  0.00  0.00    +0.000 A 
ATOM     14  C   UNL     1       2.130   8.119  18.555  0.00  0.00    +0.000 A 
ATOM     15  C   UNL     1       1.908   9.316  17.820  0.00  0.00    +0.000 A 
ATOM     16  C   UNL     1       1.306  10.543  18.359  0.00  0.00    +0.000 A 
ATOM     17  C   UNL     1       0.869  10.674  19.690  0.00  0.00    +0.000 A 
BRANCH  14  18
ATOM     18  C   UNL     1       2.863   6.851  18.005  0.00  0.00    +0.000 A 
ATOM     19  C   UNL     1       4.165   6.904  17.461  0.00  0.00    +0.000 A 
ATOM     20  C   UNL     1       4.887   5.773  16.999  0.00  0.00    +0.000 A 
ATOM     21  C   UNL     1       4.330   4.513  17.064  0.00  0.00    +0.000 A 
ATOM     22  C   UNL     1       3.055   4.352  17.581  0.00  0.00    +0.000 A 
ATOM     23  C   UNL     1       2.494   2.935  17.648  0.00  0.00    +0.000 C 
ATOM     24  C   UNL     1       2.331   5.512  18.034  0.00  0.00    +0.000 A 
ENDBRANCH  14  18
BRANCH  12  26
ATOM     25  C   UNL     1      -0.349   8.858  22.283  0.00  0.00    +0.000 C 
ATOM     26  O   UNL     1       0.895   9.334  21.794  0.00  0.00    +0.000 OA
ENDBRANCH  12  26
ENDBRANCH   1  17
BRANCH   8  27
ATOM     27  S   UNL     1      -5.745  13.458  21.735  0.00  0.00    +0.000 S 
ATOM     28  O   UNL     1      -6.514  13.740  20.542  0.00  0.00    +0.000 OA
ATOM     29  O   UNL     1      -6.239  12.520  22.724  0.00  0.00    +0.000 OA
BRANCH  27  30
ATOM     30  N   UNL     1      -5.521  14.874  22.586  0.00  0.00    +0.000 N 
ATOM     31  C   UNL     1      -4.425  15.688  22.365  0.00  0.00    +0.000 A 
ATOM     32  N   UNL     1      -4.386  16.459  21.279  0.00  0.00    +0.000 NA
ATOM     33  C   UNL     1      -3.377  17.355  21.241  0.00  0.00    +0.000 A 
ATOM     34  C   UNL     1      -2.427  17.475  22.230  0.00  0.00    +0.000 A 
ATOM     35  C   UNL     1      -2.583  16.631  23.303  0.00  0.00    +0.000 A 
ATOM     36  N   UNL     1      -3.585  15.736  23.405  0.00  0.00    +0.000 NA
ATOM     37  H   UNL     1      -5.835  14.860  23.549  0.00  0.00    +0.000 HD
ENDBRANCH  27  30
ENDBRANCH   8  27
TORSDOF 5
ENDMDL
MODEL 6
REMARK VINA RESULT:      -8.7      1.840      1.984
REMARK  Name = 
REMARK  7 active torsions:
REMARK  status: ('A' for Active; 'I' for Inactive)
REMARK    1  A    between atoms: C_1  and  O_2
REMARK    2  A    between atoms: O_2  and  C_3
REMARK    3  A    between atoms: C_5  and  C_6
REMARK    4  A    between atoms: C_10  and  C_11
REMARK    5  A    between atoms: C_15  and  N_16
REMARK    6  A    between atoms: C_23  and  S_24
REMARK    7  A    between atoms: S_24  and  N_27
REMARK                            x       y       z     vdW  Elec       q    Type
REMARK                         _______ _______ _______ _____ _____    ______ ____
ROOT
ATOM      1  N   UNL     1       0.124  11.124  18.753  0.00  0.00    +0.000 N 
ATOM      2  C   UNL     1       0.757  12.306  19.273  0.00  0.00    +0.000 A 
ATOM      3  O   UNL     1       1.946  12.483  19.521  0.00  0.00    +0.000 OA
ATOM      4  C   UNL     1      -0.200  13.398  19.627  0.00  0.00    +0.000 A 
ATOM      5  C   UNL     1      -0.905  12.862  20.639  0.00  0.00    +0.000 A 
ATOM      6  C   UNL     1      -1.908  11.996  20.001  0.00  0.00    +0.000 A 
ATOM      7  C   UNL     1      -3.244  12.437  20.147  0.00  0.00    +0.000 A 
ATOM      8  C   UNL     1      -4.134  12.206  19.122  0.00  0.00    +0.000 A 
ATOM      9  C   UNL     1      -3.688  11.445  18.017  0.00  0.00    +0.000 A 
ATOM     10  C   UNL     1      -2.340  10.881  17.953  0.00  0.00    +0.000 A 
ATOM     11  C   UNL     1      -1.394  11.124  18.973  0.00  0.00    +0.000 A 
ENDROOT
BRANCH   1  17
ATOM     12  C   UNL     1       1.129   9.059  19.988  0.00  0.00    +0.000 A 
ATOM     13  C   UNL     1       1.811   7.761  19.983  0.00  0.00    +0.000 A 
ATOM     14  C   UNL     1       2.448   7.194  18.866  0.00  0.00    +0.000 A 
ATOM     15  C   UNL     1       2.291   8.022  17.721  0.00  0.00    +0.000 A 
ATOM     16  C   UNL     1       1.615   9.327  17.703  0.00  0.00    +0.000 A 
ATOM     17  C   UNL     1       1.031   9.914  18.840  0.00  0.00    +0.000 A 
BRANCH  14  18
ATOM     18  C   UNL     1       3.257   5.855  18.901  0.00  0.00    +0.000 A 
ATOM     19  C   UNL     1       4.648   5.815  19.139  0.00  0.00    +0.000 A 
ATOM     20  C   UNL     1       5.410   4.622  19.232  0.00  0.00    +0.000 A 
ATOM     21  C   UNL     1       4.805   3.392  19.091  0.00  0.00    +0.000 A 
ATOM     22  C   UNL     1       3.441   3.321  18.853  0.00  0.00    +0.000 A 
ATOM     23  C   UNL     1       2.819   1.935  18.723  0.00  0.00    +0.000 C 
ATOM     24  C   UNL     1       2.684   4.541  18.749  0.00  0.00    +0.000 A 
ENDBRANCH  14  18
BRANCH  12  26
ATOM     25  C   UNL     1      -0.316   8.891  21.885  0.00  0.00    +0.000 C 
ATOM     26  O   UNL     1       0.842   9.447  21.284  0.00  0.00    +0.000 OA
ENDBRANCH  12  26
ENDBRANCH   1  17
BRANCH   8  27
ATOM     27  S   UNL     1      -5.788  12.918  19.245  0.00  0.00    +0.000 S 
ATOM     28  O   UNL     1      -6.185  13.355  17.925  0.00  0.00    +0.000 OA
ATOM     29  O   UNL     1      -6.575  11.932  19.962  0.00  0.00    +0.000 OA
BRANCH  27  30
ATOM     30  N   UNL     1      -5.747  14.235  20.267  0.00  0.00    +0.000 N 
ATOM     31  C   UNL     1      -6.336  14.201  21.518  0.00  0.00    +0.000 A 
ATOM     32  N   UNL     1      -5.736  13.546  22.510  0.00  0.00    +0.000 NA
ATOM     33  C   UNL     1      -6.279  13.725  23.734  0.00  0.00    +0.000 A 
ATOM     34  C   UNL     1      -7.387  14.508  23.967  0.00  0.00    +0.000 A 
ATOM     35  C   UNL     1      -7.907  15.140  22.864  0.00  0.00    +0.000 A 
ATOM     36  N   UNL     1      -7.391  15.018  21.626  0.00  0.00    +0.000 NA
ATOM     37  H   UNL     1      -5.791  15.141  19.816  0.00  0.00    +0.000 HD
ENDBRANCH  27  30
ENDBRANCH   8  27
TORSDOF 5
ENDMDL
MODEL 7
REMARK VINA RESULT:      -8.6      1.497      2.052
REMARK  Name = 
REMARK  7 active torsions:
REMARK  status: ('A' for Active; 'I' for Inactive)
REMARK    1  A    between atoms: C_1  and  O_2
REMARK    2  A    between atoms: O_2  and  C_3
REMARK    3  A    between atoms: C_5  and  C_6
REMARK    4  A    between atoms: C_10  and  C_11
REMARK    5  A    between atoms: C_15  and  N_16
REMARK    6  A    between atoms: C_23  and  S_24
REMARK    7  A    between atoms: S_24  and  N_27
REMARK                            x       y       z     vdW  Elec       q    Type
REMARK                         _______ _______ _______ _____ _____    ______ ____
ROOT
ATOM      1  N   UNL     1       0.102  11.401  18.919  0.00  0.00    +0.000 N 
ATOM      2  C   UNL     1       0.791  12.585  19.355  0.00  0.00    +0.000 A 
ATOM      3  O   UNL     1       2.001  12.761  19.466  0.00  0.00    +0.000 OA
ATOM      4  C   UNL     1      -0.118  13.682  19.805  0.00  0.00    +0.000 A 
ATOM      5  C   UNL     1      -0.706  13.157  20.893  0.00  0.00    +0.000 A 
ATOM      6  C   UNL     1      -1.776  12.288  20.380  0.00  0.00    +0.000 A 
ATOM      7  C   UNL     1      -3.086  12.733  20.670  0.00  0.00    +0.000 A 
ATOM      8  C   UNL     1      -4.085  12.497  19.754  0.00  0.00    +0.000 A 
ATOM      9  C   UNL     1      -3.768  11.725  18.612  0.00  0.00    +0.000 A 
ATOM     10  C   UNL     1      -2.437  11.157  18.403  0.00  0.00    +0.000 A 
ATOM     11  C   UNL     1      -1.381  11.406  19.308  0.00  0.00    +0.000 A 
ENDROOT
BRANCH   1  17
ATOM     12  C   UNL     1       1.105   9.245  19.991  0.00  0.00    +0.000 A 
ATOM     13  C   UNL     1       1.789   7.953  19.886  0.00  0.00    +0.000 A 
ATOM     14  C   UNL     1       2.434   7.478  18.731  0.00  0.00    +0.000 A 
ATOM     15  C   UNL     1       2.280   8.394  17.654  0.00  0.00    +0.000 A 
ATOM     16  C   UNL     1       1.602   9.695  17.737  0.00  0.00    +0.000 A 
ATOM     17  C   UNL     1       1.011  10.189  18.914  0.00  0.00    +0.000 A 
BRANCH  14  18
ATOM     18  C   UNL     1       3.244   6.142  18.664  0.00  0.00    +0.000 A 
ATOM     19  C   UNL     1       3.280   5.221  19.734  0.00  0.00    +0.000 A 
ATOM     20  C   UNL     1       3.958   3.975  19.696  0.00  0.00    +0.000 A 
ATOM     21  C   UNL     1       4.641   3.584  18.565  0.00  0.00    +0.000 A 
ATOM     22  C   UNL     1       4.668   4.417  17.457  0.00  0.00    +0.000 A 
ATOM     23  C   UNL     1       5.423   3.927  16.225  0.00  0.00    +0.000 C 
ATOM     24  C   UNL     1       3.986   5.683  17.515  0.00  0.00    +0.000 A 
ENDBRANCH  14  18
BRANCH  12  26
ATOM     25  C   UNL     1      -0.319   8.882  21.877  0.00  0.00    +0.000 C 
ATOM     26  O   UNL     1       0.811   9.528  21.312  0.00  0.00    +0.000 OA
ENDBRANCH  12  26
ENDBRANCH   1  17
BRANCH   8  27
ATOM     27  S   UNL     1      -5.714  13.214  20.056  0.00  0.00    +0.000 S 
ATOM     28  O   UNL     1      -5.646  14.624  19.742  0.00  0.00    +0.000 OA
ATOM     29  O   UNL     1      -6.647  12.349  19.359  0.00  0.00    +0.000 OA
BRANCH  27  30
ATOM     30  N   UNL     1      -6.107  13.032  21.665  0.00  0.00    +0.000 N 
ATOM     31  C   UNL     1      -5.217  13.359  22.672  0.00  0.00    +0.000 A 
ATOM     32  N   UNL     1      -5.009  14.640  22.976  0.00  0.00    +0.000 NA
ATOM     33  C   UNL     1      -4.276  14.859  24.088  0.00  0.00    +0.000 A 
ATOM     34  C   UNL     1      -3.749  13.850  24.864  0.00  0.00    +0.000 A 
ATOM     35  C   UNL     1      -4.043  12.573  24.451  0.00  0.00    +0.000 A 
ATOM     36  N   UNL     1      -4.791  12.297  23.365  0.00  0.00    +0.000 NA
ATOM     37  H   UNL     1      -6.702  12.242  21.884  0.00  0.00    +0.000 HD
ENDBRANCH  27  30
ENDBRANCH   8  27
TORSDOF 5
ENDMDL
MODEL 8
REMARK VINA RESULT:      -8.6      1.006      1.632
REMARK  Name = 
REMARK  7 active torsions:
REMARK  status: ('A' for Active; 'I' for Inactive)
REMARK    1  A    between atoms: C_1  and  O_2
REMARK    2  A    between atoms: O_2  and  C_3
REMARK    3  A    between atoms: C_5  and  C_6
REMARK    4  A    between atoms: C_10  and  C_11
REMARK    5  A    between atoms: C_15  and  N_16
REMARK    6  A    between atoms: C_23  and  S_24
REMARK    7  A    between atoms: S_24  and  N_27
REMARK                            x       y       z     vdW  Elec       q    Type
REMARK                         _______ _______ _______ _____ _____    ______ ____
ROOT
ATOM      1  N   UNL     1      -0.260  12.044  20.435  0.00  0.00    +0.000 N 
ATOM      2  C   UNL     1       0.459  12.933  21.307  0.00  0.00    +0.000 A 
ATOM      3  O   UNL     1       1.672  13.008  21.481  0.00  0.00    +0.000 OA
ATOM      4  C   UNL     1      -0.422  13.793  22.154  0.00  0.00    +0.000 A 
ATOM      5  C   UNL     1      -1.044  12.900  22.942  0.00  0.00    +0.000 A 
ATOM      6  C   UNL     1      -2.132  12.344  22.123  0.00  0.00    +0.000 A 
ATOM      7  C   UNL     1      -3.432  12.684  22.565  0.00  0.00    +0.000 A 
ATOM      8  C   UNL     1      -4.424  12.867  21.627  0.00  0.00    +0.000 A 
ATOM      9  C   UNL     1      -4.113  12.601  20.274  0.00  0.00    +0.000 A 
ATOM     10  C   UNL     1      -2.797  12.116  19.859  0.00  0.00    +0.000 A 
ATOM     11  C   UNL     1      -1.749  11.948  20.790  0.00  0.00    +0.000 A 
ENDROOT
BRANCH   1  17
ATOM     12  C   UNL     1       0.953   9.756  20.742  0.00  0.00    +0.000 A 
ATOM     13  C   UNL     1       1.580   8.548  20.200  0.00  0.00    +0.000 A 
ATOM     14  C   UNL     1       1.922   8.359  18.850  0.00  0.00    +0.000 A 
ATOM     15  C   UNL     1       1.522   9.476  18.066  0.00  0.00    +0.000 A 
ATOM     16  C   UNL     1       0.895  10.697  18.588  0.00  0.00    +0.000 A 
ATOM     17  C   UNL     1       0.610  10.903  19.951  0.00  0.00    +0.000 A 
BRANCH  14  18
ATOM     18  C   UNL     1       2.681   7.105  18.303  0.00  0.00    +0.000 A 
ATOM     19  C   UNL     1       2.225   5.787  18.522  0.00  0.00    +0.000 A 
ATOM     20  C   UNL     1       2.851   4.625  18.001  0.00  0.00    +0.000 A 
ATOM     21  C   UNL     1       3.981   4.730  17.219  0.00  0.00    +0.000 A 
ATOM     22  C   UNL     1       4.512   5.981  16.944  0.00  0.00    +0.000 A 
ATOM     23  C   UNL     1       5.753   6.042  16.060  0.00  0.00    +0.000 C 
ATOM     24  C   UNL     1       3.872   7.149  17.491  0.00  0.00    +0.000 A 
ENDBRANCH  14  18
BRANCH  12  26
ATOM     25  C   UNL     1      -0.160   9.248  22.796  0.00  0.00    +0.000 C 
ATOM     26  O   UNL     1       0.989   9.738  22.124  0.00  0.00    +0.000 OA
ENDBRANCH  12  26
ENDBRANCH   1  17
BRANCH   8  27
ATOM     27  S   UNL     1      -6.033  13.462  22.186  0.00  0.00    +0.000 S 
ATOM     28  O   UNL     1      -6.870  13.645  21.021  0.00  0.00    +0.000 OA
ATOM     29  O   UNL     1      -6.431  12.551  23.243  0.00  0.00    +0.000 OA
BRANCH  27  30
ATOM     30  N   UNL     1      -5.843  14.928  22.956  0.00  0.00    +0.000 N 
ATOM     31  C   UNL     1      -4.606  15.540  23.056  0.00  0.00    +0.000 A 
ATOM     32  N   UNL     1      -4.087  16.151  21.992  0.00  0.00    +0.000 NA
ATOM     33  C   UNL     1      -2.975  16.880  22.229  0.00  0.00    +0.000 A 
ATOM     34  C   UNL     1      -2.385  16.987  23.468  0.00  0.00    +0.000 A 
ATOM     35  C   UNL     1      -3.022  16.320  24.486  0.00  0.00    +0.000 A 
ATOM     36  N   UNL     1      -4.147  15.600  24.312  0.00  0.00    +0.000 NA
ATOM     37  H   UNL     1      -6.444  15.084  23.757  0.00  0.00    +0.000 HD
ENDBRANCH  27  30
ENDBRANCH   8  27
TORSDOF 5
ENDMDL
MODEL 9
REMARK VINA RESULT:      -8.5      2.091      2.419
REMARK  Name = 
REMARK  7 active torsions:
REMARK  status: ('A' for Active; 'I' for Inactive)
REMARK    1  A    between atoms: C_1  and  O_2
REMARK    2  A    between atoms: O_2  and  C_3
REMARK    3  A    between atoms: C_5  and  C_6
REMARK    4  A    between atoms: C_10  and  C_11
REMARK    5  A    between atoms: C_15  and  N_16
REMARK    6  A    between atoms: C_23  and  S_24
REMARK    7  A    between atoms: S_24  and  N_27
REMARK                            x       y       z     vdW  Elec       q    Type
REMARK                         _______ _______ _______ _____ _____    ______ ____
ROOT
ATOM      1  N   UNL     1       0.208  11.155  18.691  0.00  0.00    +0.000 N 
ATOM      2  C   UNL     1       0.816  12.378  19.138  0.00  0.00    +0.000 A 
ATOM      3  O   UNL     1       2.006  12.606  19.336  0.00  0.00    +0.000 OA
ATOM      4  C   UNL     1      -0.166  13.452  19.479  0.00  0.00    +0.000 A 
ATOM      5  C   UNL     1      -0.817  12.937  20.536  0.00  0.00    +0.000 A 
ATOM      6  C   UNL     1      -1.810  12.010  19.972  0.00  0.00    +0.000 A 
ATOM      7  C   UNL     1      -3.155  12.412  20.146  0.00  0.00    +0.000 A 
ATOM      8  C   UNL     1      -4.070  12.108  19.163  0.00  0.00    +0.000 A 
ATOM      9  C   UNL     1      -3.636  11.315  18.076  0.00  0.00    +0.000 A 
ATOM     10  C   UNL     1      -2.272  10.795  17.989  0.00  0.00    +0.000 A 
ATOM     11  C   UNL     1      -1.301  11.113  18.964  0.00  0.00    +0.000 A 
ENDROOT
BRANCH   1  17
ATOM     12  C   UNL     1       1.054   8.943  19.782  0.00  0.00    +0.000 A 
ATOM     13  C   UNL     1       1.815   7.690  19.732  0.00  0.00    +0.000 A 
ATOM     14  C   UNL     1       2.733   7.349  18.724  0.00  0.00    +0.000 A 
ATOM     15  C   UNL     1       2.781   8.357  17.722  0.00  0.00    +0.000 A 
ATOM     16  C   UNL     1       2.031   9.620  17.753  0.00  0.00    +0.000 A 
ATOM     17  C   UNL     1       1.159   9.981  18.797  0.00  0.00    +0.000 A 
BRANCH  14  18
ATOM     18  C   UNL     1       3.610   6.054  18.735  0.00  0.00    +0.000 A 
ATOM     19  C   UNL     1       3.285   4.925  19.519  0.00  0.00    +0.000 A 
ATOM     20  C   UNL     1       4.021   3.712  19.520  0.00  0.00    +0.000 A 
ATOM     21  C   UNL     1       5.135   3.569  18.720  0.00  0.00    +0.000 A 
ATOM     22  C   UNL     1       5.540   4.619  17.913  0.00  0.00    +0.000 A 
ATOM     23  C   UNL     1       6.768   4.402  17.035  0.00  0.00    +0.000 C 
ATOM     24  C   UNL     1       4.789   5.848  17.933  0.00  0.00    +0.000 A 
ENDBRANCH  14  18
BRANCH  12  26
ATOM     25  C   UNL     1       1.112   9.904  21.970  0.00  0.00    +0.000 C 
ATOM     26  O   UNL     1       0.449   9.089  21.016  0.00  0.00    +0.000 OA
ENDBRANCH  12  26
ENDBRANCH   1  17
BRANCH   8  27
ATOM     27  S   UNL     1      -5.743  12.769  19.315  0.00  0.00    +0.000 S 
ATOM     28  O   UNL     1      -6.073  13.437  18.076  0.00  0.00    +0.000 OA
ATOM     29  O   UNL     1      -6.550  11.660  19.791  0.00  0.00    +0.000 OA
BRANCH  27  30
ATOM     30  N   UNL     1      -5.789  13.875  20.561  0.00  0.00    +0.000 N 
ATOM     31  C   UNL     1      -6.319  13.555  21.797  0.00  0.00    +0.000 A 
ATOM     32  N   UNL     1      -5.617  12.796  22.638  0.00  0.00    +0.000 NA
ATOM     33  C   UNL     1      -6.123  12.692  23.885  0.00  0.00    +0.000 A 
ATOM     34  C   UNL     1      -7.292  13.301  24.285  0.00  0.00    +0.000 A 
ATOM     35  C   UNL     1      -7.917  14.065  23.330  0.00  0.00    +0.000 A 
ATOM     36  N   UNL     1      -7.443  14.224  22.079  0.00  0.00    +0.000 NA
ATOM     37  H   UNL     1      -5.940  14.839  20.286  0.00  0.00    +0.000 HD
ENDBRANCH  27  30
ENDBRANCH   8  27
TORSDOF 5
ENDMDL
