MODEL 1
REMARK VINA RESULT:      -7.0      0.000      0.000
REMARK  Name = 
REMARK  12 active torsions:
REMARK  status: ('A' for Active; 'I' for Inactive)
REMARK    1  A    between atoms: N_1  and  C_2
REMARK    2  A    between atoms: C_2  and  C_3
REMARK    3  A    between atoms: C_5  and  O_6
REMARK    4  A    between atoms: O_6  and  C_7
REMARK    5  A    between atoms: C_7  and  C_8
REMARK    6  A    between atoms: C_7  and  C_10
REMARK    7  A    between atoms: C_8  and  O_9
REMARK    8  A    between atoms: C_12  and  N_13
REMARK    9  A    between atoms: C_21  and  O_22
REMARK   10  A    between atoms: C_23  and  O_24
REMARK   11  A    between atoms: C_25  and  O_26
REMARK   12  A    between atoms: C_27  and  O_28
REMARK                            x       y       z     vdW  Elec       q    Type
REMARK                         _______ _______ _______ _____ _____    ______ ____
ROOT
ATOM      1  C   UNL     1       4.180   3.261  18.553  0.00  0.00    +0.000 C 
ENDROOT
BRANCH   1   2
ATOM      2  C   UNL     1       3.589   3.579  19.951  0.00  0.00    +0.000 C 
ATOM      3  O   UNL     1       3.632   5.004  20.213  0.00  0.00    +0.000 OA
ATOM      4  C   UNL     1       2.283   5.503  20.347  0.00  0.00    +0.000 C 
ATOM      5  C   UNL     1       1.345   4.419  19.800  0.00  0.00    +0.000 C 
ATOM      6  C   UNL     1       2.129   3.158  20.122  0.00  0.00    +0.000 C 
BRANCH   4   7
ATOM      7  N   UNL     1       2.152   6.794  19.676  0.00  0.00    +0.000 N 
ATOM      8  C   UNL     1       2.547   6.960  18.363  0.00  0.00    +0.000 A 
ATOM      9  C   UNL     1       2.419   8.123  17.722  0.00  0.00    +0.000 A 
ATOM     10  C   UNL     1       1.832   9.263  18.436  0.00  0.00    +0.000 A 
ATOM     11  O   UNL     1       1.741  10.363  17.905  0.00  0.00    +0.000 OA
ATOM     12  N   UNL     1       1.412   9.011  19.709  0.00  0.00    +0.000 N 
ATOM     13  C   UNL     1       1.557   7.828  20.389  0.00  0.00    +0.000 A 
ATOM     14  O   UNL     1       1.189   7.746  21.559  0.00  0.00    +0.000 OA
ATOM     15  H   UNL     1       1.008   9.777  20.222  0.00  0.00    +0.000 HD
ENDBRANCH   4   7
BRANCH   5  16
ATOM     16  O   UNL     1       0.053   4.390  20.408  0.00  0.00    +0.000 OA
ATOM     17  H   UNL     1       0.006   5.177  20.988  0.00  0.00    +0.000 HD
ENDBRANCH   5  16
BRANCH   6  18
ATOM     18  O   UNL     1       1.857   2.798  21.496  0.00  0.00    +0.000 OA
ATOM     19  H   UNL     1       1.726   3.613  22.017  0.00  0.00    +0.000 HD
ENDBRANCH   6  18
ENDBRANCH   1   2
BRANCH   1  20
ATOM     20  O   UNL     1       5.613   3.264  18.632  0.00  0.00    +0.000 OA
BRANCH  20  23
ATOM     21  C   UNL     1       7.856   5.702  17.997  0.00  0.00    +0.000 C 
ATOM     22  O   UNL     1       7.636   4.274  18.044  0.00  0.00    +0.000 OA
ATOM     23  C   UNL     1       6.286   4.002  17.611  0.00  0.00    +0.000 C 
ATOM     24  C   UNL     1       5.617   5.345  17.275  0.00  0.00    +0.000 C 
ATOM     25  C   UNL     1       6.810   6.245  17.028  0.00  0.00    +0.000 C 
BRANCH  24  26
ATOM     26  O   UNL     1       4.767   5.245  16.126  0.00  0.00    +0.000 OA
ATOM     27  H   UNL     1       4.801   6.128  15.701  0.00  0.00    +0.000 HD
ENDBRANCH  24  26
BRANCH  25  28
ATOM     28  O   UNL     1       7.222   6.059  15.654  0.00  0.00    +0.000 OA
ATOM     29  H   UNL     1       6.898   5.189  15.353  0.00  0.00    +0.000 HD
ENDBRANCH  25  28
BRANCH  21  30
ATOM     30  C   UNL     1       7.793   6.278  19.426  0.00  0.00    +0.000 C 
BRANCH  30  31
ATOM     31  N   UNL     1       8.138   5.318  20.475  0.00  0.00    +0.000 NA
ATOM     32  H   UNL     1       8.446   4.446  20.041  0.00  0.00    +0.000 HD
ATOM     33  H   UNL     1       7.274   5.077  20.969  0.00  0.00    +0.000 HD
ENDBRANCH  30  31
ENDBRANCH  21  30
ENDBRANCH  20  23
ENDBRANCH   1  20
BRANCH   1  34
ATOM     34  C   UNL     1       3.605   1.929  18.030  0.00  0.00    +0.000 C 
BRANCH  34  35
ATOM     35  O   UNL     1       4.358   0.819  18.509  0.00  0.00    +0.000 OA
ATOM     36  H   UNL     1       5.283   0.958  18.238  0.00  0.00    +0.000 HD
ENDBRANCH  34  35
ENDBRANCH   1  34
TORSDOF 12
ENDMDL
MODEL 2
REMARK VINA RESULT:      -7.0      1.688      2.204
REMARK  Name = 
REMARK  12 active torsions:
REMARK  status: ('A' for Active; 'I' for Inactive)
REMARK    1  A    between atoms: N_1  and  C_2
REMARK    2  A    between atoms: C_2  and  C_3
REMARK    3  A    between atoms: C_5  and  O_6
REMARK    4  A    between atoms: O_6  and  C_7
REMARK    5  A    between atoms: C_7  and  C_8
REMARK    6  A    between atoms: C_7  and  C_10
REMARK    7  A    between atoms: C_8  and  O_9
REMARK    8  A    between atoms: C_12  and  N_13
REMARK    9  A    between atoms: C_21  and  O_22
REMARK   10  A    between atoms: C_23  and  O_24
REMARK   11  A    between atoms: C_25  and  O_26
REMARK   12  A    between atoms: C_27  and  O_28
REMARK                            x       y       z     vdW  Elec       q    Type
REMARK                         _______ _______ _______ _____ _____    ______ ____
ROOT
ATOM      1  C   UNL     1       3.962   3.071  18.338  0.00  0.00    +0.000 C 
ENDROOT
BRANCH   1   2
ATOM      2  C   UNL     1       3.587   3.500  19.781  0.00  0.00    +0.000 C 
ATOM      3  O   UNL     1       3.769   4.928  19.954  0.00  0.00    +0.000 OA
ATOM      4  C   UNL     1       2.491   5.539  20.234  0.00  0.00    +0.000 C 
ATOM      5  C   UNL     1       1.411   4.510  19.876  0.00  0.00    +0.000 C 
ATOM      6  C   UNL     1       2.137   3.206  20.164  0.00  0.00    +0.000 C 
BRANCH   4   7
ATOM      7  N   UNL     1       2.366   6.804  19.514  0.00  0.00    +0.000 N 
ATOM      8  C   UNL     1       2.900   6.962  18.249  0.00  0.00    +0.000 A 
ATOM      9  C   UNL     1       2.782   8.100  17.563  0.00  0.00    +0.000 A 
ATOM     10  C   UNL     1       2.053   9.220  18.172  0.00  0.00    +0.000 A 
ATOM     11  O   UNL     1       1.963  10.299  17.600  0.00  0.00    +0.000 OA
ATOM     12  N   UNL     1       1.505   8.973  19.396  0.00  0.00    +0.000 N 
ATOM     13  C   UNL     1       1.637   7.818  20.123  0.00  0.00    +0.000 A 
ATOM     14  O   UNL     1       1.142   7.742  21.246  0.00  0.00    +0.000 OA
ATOM     15  H   UNL     1       1.003   9.727  19.837  0.00  0.00    +0.000 HD
ENDBRANCH   4   7
BRANCH   5  16
ATOM     16  O   UNL     1       0.213   4.612  20.647  0.00  0.00    +0.000 OA
ATOM     17  H   UNL     1       0.260   5.472  21.112  0.00  0.00    +0.000 HD
ENDBRANCH   5  16
BRANCH   6  18
ATOM     18  O   UNL     1       2.025   2.933  21.579  0.00  0.00    +0.000 OA
ATOM     19  H   UNL     1       2.897   3.070  21.998  0.00  0.00    +0.000 HD
ENDBRANCH   6  18
ENDBRANCH   1   2
BRANCH   1  20
ATOM     20  O   UNL     1       5.381   3.185  18.162  0.00  0.00    +0.000 OA
BRANCH  20  23
ATOM     21  C   UNL     1       6.103   5.034  15.434  0.00  0.00    +0.000 C 
ATOM     22  O   UNL     1       5.136   4.789  16.481  0.00  0.00    +0.000 OA
ATOM     23  C   UNL     1       5.846   4.451  17.692  0.00  0.00    +0.000 C 
ATOM     24  C   UNL     1       7.352   4.482  17.383  0.00  0.00    +0.000 C 
ATOM     25  C   UNL     1       7.409   5.363  16.151  0.00  0.00    +0.000 C 
BRANCH  24  26
ATOM     26  O   UNL     1       8.109   5.024  18.472  0.00  0.00    +0.000 OA
ATOM     27  H   UNL     1       7.511   5.668  18.908  0.00  0.00    +0.000 HD
ENDBRANCH  24  26
BRANCH  25  28
ATOM     28  O   UNL     1       7.430   6.738  16.597  0.00  0.00    +0.000 OA
ATOM     29  H   UNL     1       7.382   7.315  15.812  0.00  0.00    +0.000 HD
ENDBRANCH  25  28
BRANCH  21  30
ATOM     30  C   UNL     1       6.157   3.814  14.492  0.00  0.00    +0.000 C 
BRANCH  30  31
ATOM     31  N   UNL     1       6.578   4.130  13.127  0.00  0.00    +0.000 NA
ATOM     32  H   UNL     1       6.640   3.266  12.587  0.00  0.00    +0.000 HD
ATOM     33  H   UNL     1       7.539   4.483  13.173  0.00  0.00    +0.000 HD
ENDBRANCH  30  31
ENDBRANCH  21  30
ENDBRANCH  20  23
ENDBRANCH   1  20
BRANCH   1  34
ATOM     34  C   UNL     1       3.428   1.652  18.057  0.00  0.00    +0.000 C 
BRANCH  34  35
ATOM     35  O   UNL     1       4.343   0.659  18.508  0.00  0.00    +0.000 OA
ATOM     36  H   UNL     1       4.693   0.957  19.367  0.00  0.00    +0.000 HD
ENDBRANCH  34  35
ENDBRANCH   1  34
TORSDOF 12
ENDMDL
MODEL 3
REMARK VINA RESULT:      -6.9      1.040      1.157
REMARK  Name = 
REMARK  12 active torsions:
REMARK  status: ('A' for Active; 'I' for Inactive)
REMARK    1  A    between atoms: N_1  and  C_2
REMARK    2  A    between atoms: C_2  and  C_3
REMARK    3  A    between atoms: C_5  and  O_6
REMARK    4  A    between atoms: O_6  and  C_7
REMARK    5  A    between atoms: C_7  and  C_8
REMARK    6  A    between atoms: C_7  and  C_10
REMARK    7  A    between atoms: C_8  and  O_9
REMARK    8  A    between atoms: C_12  and  N_13
REMARK    9  A    between atoms: C_21  and  O_22
REMARK   10  A    between atoms: C_23  and  O_24
REMARK   11  A    between atoms: C_25  and  O_26
REMARK   12  A    between atoms: C_27  and  O_28
REMARK                            x       y       z     vdW  Elec       q    Type
REMARK                         _______ _______ _______ _____ _____    ______ ____
ROOT
ATOM      1  C   UNL     1       4.176   3.922  17.619  0.00  0.00    +0.000 C 
ENDROOT
BRANCH   1   2
ATOM      2  C   UNL     1       4.019   4.112  19.150  0.00  0.00    +0.000 C 
ATOM      3  O   UNL     1       4.021   5.520  19.494  0.00  0.00    +0.000 OA
ATOM      4  C   UNL     1       2.742   5.870  20.067  0.00  0.00    +0.000 C 
ATOM      5  C   UNL     1       1.775   4.722  19.748  0.00  0.00    +0.000 C 
ATOM      6  C   UNL     1       2.724   3.534  19.721  0.00  0.00    +0.000 C 
BRANCH   4   7
ATOM      7  N   UNL     1       2.303   7.171  19.567  0.00  0.00    +0.000 N 
ATOM      8  C   UNL     1       2.587   7.573  18.277  0.00  0.00    +0.000 A 
ATOM      9  C   UNL     1       2.180   8.747  17.791  0.00  0.00    +0.000 A 
ATOM     10  C   UNL     1       1.397   9.637  18.656  0.00  0.00    +0.000 A 
ATOM     11  O   UNL     1       1.045  10.745  18.270  0.00  0.00    +0.000 OA
ATOM     12  N   UNL     1       1.105   9.150  19.897  0.00  0.00    +0.000 N 
ATOM     13  C   UNL     1       1.535   7.957  20.418  0.00  0.00    +0.000 A 
ATOM     14  O   UNL     1       1.253   7.658  21.576  0.00  0.00    +0.000 OA
ATOM     15  H   UNL     1       0.572   9.743  20.511  0.00  0.00    +0.000 HD
ENDBRANCH   4   7
BRANCH   5  16
ATOM     16  O   UNL     1       0.741   4.531  20.713  0.00  0.00    +0.000 OA
ATOM     17  H   UNL     1       1.176   4.558  21.590  0.00  0.00    +0.000 HD
ENDBRANCH   5  16
BRANCH   6  18
ATOM     18  O   UNL     1       2.919   3.084  21.081  0.00  0.00    +0.000 OA
ATOM     19  H   UNL     1       3.667   3.574  21.472  0.00  0.00    +0.000 HD
ENDBRANCH   6  18
ENDBRANCH   1   2
BRANCH   1  20
ATOM     20  O   UNL     1       5.507   3.468  17.330  0.00  0.00    +0.000 OA
BRANCH  20  23
ATOM     21  C   UNL     1       7.797   5.685  18.436  0.00  0.00    +0.000 C 
ATOM     22  O   UNL     1       7.597   4.399  17.805  0.00  0.00    +0.000 OA
ATOM     23  C   UNL     1       6.437   4.483  16.949  0.00  0.00    +0.000 C 
ATOM     24  C   UNL     1       5.873   5.909  17.053  0.00  0.00    +0.000 C 
ATOM     25  C   UNL     1       7.072   6.693  17.549  0.00  0.00    +0.000 C 
BRANCH  24  26
ATOM     26  O   UNL     1       5.398   6.389  15.789  0.00  0.00    +0.000 OA
ATOM     27  H   UNL     1       6.205   6.560  15.257  0.00  0.00    +0.000 HD
ENDBRANCH  24  26
BRANCH  25  28
ATOM     28  O   UNL     1       7.870   7.048  16.397  0.00  0.00    +0.000 OA
ATOM     29  H   UNL     1       8.650   7.546  16.707  0.00  0.00    +0.000 HD
ENDBRANCH  25  28
BRANCH  21  30
ATOM     30  C   UNL     1       7.308   5.621  19.897  0.00  0.00    +0.000 C 
BRANCH  30  31
ATOM     31  N   UNL     1       8.339   5.221  20.856  0.00  0.00    +0.000 NA
ATOM     32  H   UNL     1       9.166   4.906  20.346  0.00  0.00    +0.000 HD
ATOM     33  H   UNL     1       7.998   4.389  21.347  0.00  0.00    +0.000 HD
ENDBRANCH  30  31
ENDBRANCH  21  30
ENDBRANCH  20  23
ENDBRANCH   1  20
BRANCH   1  34
ATOM     34  C   UNL     1       3.084   2.970  17.092  0.00  0.00    +0.000 C 
BRANCH  34  35
ATOM     35  O   UNL     1       1.962   3.696  16.599  0.00  0.00    +0.000 OA
ATOM     36  H   UNL     1       2.159   3.942  15.678  0.00  0.00    +0.000 HD
ENDBRANCH  34  35
ENDBRANCH   1  34
TORSDOF 12
ENDMDL
MODEL 4
REMARK VINA RESULT:      -6.6      2.229      2.950
REMARK  Name = 
REMARK  12 active torsions:
REMARK  status: ('A' for Active; 'I' for Inactive)
REMARK    1  A    between atoms: N_1  and  C_2
REMARK    2  A    between atoms: C_2  and  C_3
REMARK    3  A    between atoms: C_5  and  O_6
REMARK    4  A    between atoms: O_6  and  C_7
REMARK    5  A    between atoms: C_7  and  C_8
REMARK    6  A    between atoms: C_7  and  C_10
REMARK    7  A    between atoms: C_8  and  O_9
REMARK    8  A    between atoms: C_12  and  N_13
REMARK    9  A    between atoms: C_21  and  O_22
REMARK   10  A    between atoms: C_23  and  O_24
REMARK   11  A    between atoms: C_25  and  O_26
REMARK   12  A    between atoms: C_27  and  O_28
REMARK                            x       y       z     vdW  Elec       q    Type
REMARK                         _______ _______ _______ _____ _____    ______ ____
ROOT
ATOM      1  C   UNL     1       5.191   3.904  18.970  0.00  0.00    +0.000 C 
ENDROOT
BRANCH   1   2
ATOM      2  C   UNL     1       3.802   3.689  19.626  0.00  0.00    +0.000 C 
ATOM      3  O   UNL     1       3.276   4.940  20.135  0.00  0.00    +0.000 OA
ATOM      4  C   UNL     1       2.065   5.272  19.423  0.00  0.00    +0.000 C 
ATOM      5  C   UNL     1       2.014   4.376  18.178  0.00  0.00    +0.000 C 
ATOM      6  C   UNL     1       2.740   3.137  18.674  0.00  0.00    +0.000 C 
BRANCH   4   7
ATOM      7  N   UNL     1       2.026   6.702  19.127  0.00  0.00    +0.000 N 
ATOM      8  C   UNL     1       2.417   7.186  17.893  0.00  0.00    +0.000 A 
ATOM      9  C   UNL     1       2.372   8.485  17.591  0.00  0.00    +0.000 A 
ATOM     10  C   UNL     1       1.884   9.429  18.603  0.00  0.00    +0.000 A 
ATOM     11  O   UNL     1       1.873  10.635  18.388  0.00  0.00    +0.000 OA
ATOM     12  N   UNL     1       1.461   8.875  19.775  0.00  0.00    +0.000 N 
ATOM     13  C   UNL     1       1.522   7.545  20.109  0.00  0.00    +0.000 A 
ATOM     14  O   UNL     1       1.163   7.178  21.225  0.00  0.00    +0.000 OA
ATOM     15  H   UNL     1       1.124   9.501  20.487  0.00  0.00    +0.000 HD
ENDBRANCH   4   7
BRANCH   5  16
ATOM     16  O   UNL     1       0.697   4.055  17.730  0.00  0.00    +0.000 OA
ATOM     17  H   UNL     1       0.082   4.499  18.349  0.00  0.00    +0.000 HD
ENDBRANCH   5  16
BRANCH   6  18
ATOM     18  O   UNL     1       1.789   2.315  19.389  0.00  0.00    +0.000 OA
ATOM     19  H   UNL     1       0.893   2.675  19.251  0.00  0.00    +0.000 HD
ENDBRANCH   6  18
ENDBRANCH   1   2
BRANCH   1  20
ATOM     20  O   UNL     1       5.066   3.793  17.545  0.00  0.00    +0.000 OA
BRANCH  20  23
ATOM     21  C   UNL     1       5.796   4.899  14.443  0.00  0.00    +0.000 C 
ATOM     22  O   UNL     1       5.044   5.159  15.650  0.00  0.00    +0.000 OA
ATOM     23  C   UNL     1       5.829   4.729  16.782  0.00  0.00    +0.000 C 
ATOM     24  C   UNL     1       7.155   4.159  16.251  0.00  0.00    +0.000 C 
ATOM     25  C   UNL     1       7.254   4.802  14.882  0.00  0.00    +0.000 C 
BRANCH  24  26
ATOM     26  O   UNL     1       8.260   4.506  17.093  0.00  0.00    +0.000 OA
ATOM     27  H   UNL     1       8.001   4.217  17.994  0.00  0.00    +0.000 HD
ENDBRANCH  24  26
BRANCH  25  28
ATOM     28  O   UNL     1       7.838   6.112  15.055  0.00  0.00    +0.000 OA
ATOM     29  H   UNL     1       7.130   6.777  14.968  0.00  0.00    +0.000 HD
ENDBRANCH  25  28
BRANCH  21  30
ATOM     30  C   UNL     1       5.231   3.644  13.747  0.00  0.00    +0.000 C 
BRANCH  30  31
ATOM     31  N   UNL     1       6.085   3.113  12.684  0.00  0.00    +0.000 NA
ATOM     32  H   UNL     1       6.148   2.098  12.781  0.00  0.00    +0.000 HD
ATOM     33  H   UNL     1       7.036   3.455  12.851  0.00  0.00    +0.000 HD
ENDBRANCH  30  31
ENDBRANCH  21  30
ENDBRANCH  20  23
ENDBRANCH   1  20
BRANCH   1  34
ATOM     34  C   UNL     1       5.782   5.255  19.422  0.00  0.00    +0.000 C 
BRANCH  34  35
ATOM     35  O   UNL     1       7.108   5.097  19.915  0.00  0.00    +0.000 OA
ATOM     36  H   UNL     1       7.520   4.372  19.411  0.00  0.00    +0.000 HD
ENDBRANCH  34  35
ENDBRANCH   1  34
TORSDOF 12
ENDMDL
MODEL 5
REMARK VINA RESULT:      -6.6      1.309      1.321
REMARK  Name = 
REMARK  12 active torsions:
REMARK  status: ('A' for Active; 'I' for Inactive)
REMARK    1  A    between atoms: N_1  and  C_2
REMARK    2  A    between atoms: C_2  and  C_3
REMARK    3  A    between atoms: C_5  and  O_6
REMARK    4  A    between atoms: O_6  and  C_7
REMARK    5  A    between atoms: C_7  and  C_8
REMARK    6  A    between atoms: C_7  and  C_10
REMARK    7  A    between atoms: C_8  and  O_9
REMARK    8  A    between atoms: C_12  and  N_13
REMARK    9  A    between atoms: C_21  and  O_22
REMARK   10  A    between atoms: C_23  and  O_24
REMARK   11  A    between atoms: C_25  and  O_26
REMARK   12  A    between atoms: C_27  and  O_28
REMARK                            x       y       z     vdW  Elec       q    Type
REMARK                         _______ _______ _______ _____ _____    ______ ____
ROOT
ATOM      1  C   UNL     1       4.377   2.919  19.589  0.00  0.00    +0.000 C 
ENDROOT
BRANCH   1   2
ATOM      2  C   UNL     1       3.449   3.369  20.747  0.00  0.00    +0.000 C 
ATOM      3  O   UNL     1       3.407   4.815  20.837  0.00  0.00    +0.000 OA
ATOM      4  C   UNL     1       2.062   5.268  20.571  0.00  0.00    +0.000 C 
ATOM      5  C   UNL     1       1.305   4.089  19.944  0.00  0.00    +0.000 C 
ATOM      6  C   UNL     1       1.999   2.908  20.601  0.00  0.00    +0.000 C 
BRANCH   4   7
ATOM      7  N   UNL     1       2.087   6.467  19.738  0.00  0.00    +0.000 N 
ATOM      8  C   UNL     1       2.528   6.419  18.429  0.00  0.00    +0.000 A 
ATOM      9  C   UNL     1       2.542   7.495  17.642  0.00  0.00    +0.000 A 
ATOM     10  C   UNL     1       2.064   8.773  18.183  0.00  0.00    +0.000 A 
ATOM     11  O   UNL     1       2.106   9.798  17.513  0.00  0.00    +0.000 OA
ATOM     12  N   UNL     1       1.590   8.734  19.461  0.00  0.00    +0.000 N 
ATOM     13  C   UNL     1       1.591   7.641  20.291  0.00  0.00    +0.000 A 
ATOM     14  O   UNL     1       1.189   7.751  21.447  0.00  0.00    +0.000 OA
ATOM     15  H   UNL     1       1.260   9.599  19.858  0.00  0.00    +0.000 HD
ENDBRANCH   4   7
BRANCH   5  16
ATOM     16  O   UNL     1      -0.098   4.075  20.212  0.00  0.00    +0.000 OA
ATOM     17  H   UNL     1      -0.516   4.617  19.512  0.00  0.00    +0.000 HD
ENDBRANCH   5  16
BRANCH   6  18
ATOM     18  O   UNL     1       1.395   2.695  21.897  0.00  0.00    +0.000 OA
ATOM     19  H   UNL     1       2.074   2.822  22.587  0.00  0.00    +0.000 HD
ENDBRANCH   6  18
ENDBRANCH   1   2
BRANCH   1  20
ATOM     20  O   UNL     1       5.375   3.925  19.361  0.00  0.00    +0.000 OA
BRANCH  20  23
ATOM     21  C   UNL     1       7.549   5.478  17.301  0.00  0.00    +0.000 C 
ATOM     22  O   UNL     1       7.354   4.361  18.199  0.00  0.00    +0.000 OA
ATOM     23  C   UNL     1       5.992   3.902  18.073  0.00  0.00    +0.000 C 
ATOM     24  C   UNL     1       5.287   4.789  17.033  0.00  0.00    +0.000 C 
ATOM     25  C   UNL     1       6.454   5.350  16.246  0.00  0.00    +0.000 C 
BRANCH  24  26
ATOM     26  O   UNL     1       4.390   4.036  16.208  0.00  0.00    +0.000 OA
ATOM     27  H   UNL     1       4.957   3.399  15.723  0.00  0.00    +0.000 HD
ENDBRANCH  24  26
BRANCH  25  28
ATOM     28  O   UNL     1       6.809   4.378  15.237  0.00  0.00    +0.000 OA
ATOM     29  H   UNL     1       6.263   3.581  15.374  0.00  0.00    +0.000 HD
ENDBRANCH  25  28
BRANCH  21  30
ATOM     30  C   UNL     1       7.538   6.792  18.108  0.00  0.00    +0.000 C 
BRANCH  30  31
ATOM     31  N   UNL     1       7.485   8.000  17.284  0.00  0.00    +0.000 NA
ATOM     32  H   UNL     1       8.376   8.113  16.798  0.00  0.00    +0.000 HD
ATOM     33  H   UNL     1       7.426   8.804  17.918  0.00  0.00    +0.000 HD
ENDBRANCH  30  31
ENDBRANCH  21  30
ENDBRANCH  20  23
ENDBRANCH   1  20
BRANCH   1  34
ATOM     34  C   UNL     1       4.975   1.533  19.903  0.00  0.00    +0.000 C 
BRANCH  34  35
ATOM     35  O   UNL     1       5.394   1.449  21.262  0.00  0.00    +0.000 OA
ATOM     36  H   UNL     1       4.691   1.845  21.806  0.00  0.00    +0.000 HD
ENDBRANCH  34  35
ENDBRANCH   1  34
TORSDOF 12
ENDMDL
MODEL 6
REMARK VINA RESULT:      -6.5      1.666      2.461
REMARK  Name = 
REMARK  12 active torsions:
REMARK  status: ('A' for Active; 'I' for Inactive)
REMARK    1  A    between atoms: N_1  and  C_2
REMARK    2  A    between atoms: C_2  and  C_3
REMARK    3  A    between atoms: C_5  and  O_6
REMARK    4  A    between atoms: O_6  and  C_7
REMARK    5  A    between atoms: C_7  and  C_8
REMARK    6  A    between atoms: C_7  and  C_10
REMARK    7  A    between atoms: C_8  and  O_9
REMARK    8  A    between atoms: C_12  and  N_13
REMARK    9  A    between atoms: C_21  and  O_22
REMARK   10  A    between atoms: C_23  and  O_24
REMARK   11  A    between atoms: C_25  and  O_26
REMARK   12  A    between atoms: C_27  and  O_28
REMARK                            x       y       z     vdW  Elec       q    Type
REMARK                         _______ _______ _______ _____ _____    ______ ____
ROOT
ATOM      1  C   UNL     1       5.076   4.079  16.291  0.00  0.00    +0.000 C 
ENDROOT
BRANCH   1   2
ATOM      2  C   UNL     1       4.467   3.268  17.464  0.00  0.00    +0.000 C 
ATOM      3  O   UNL     1       4.272   4.113  18.624  0.00  0.00    +0.000 OA
ATOM      4  C   UNL     1       2.861   4.193  18.923  0.00  0.00    +0.000 C 
ATOM      5  C   UNL     1       2.110   3.663  17.693  0.00  0.00    +0.000 C 
ATOM      6  C   UNL     1       3.104   2.648  17.153  0.00  0.00    +0.000 C 
BRANCH   4   7
ATOM      7  N   UNL     1       2.498   5.558  19.296  0.00  0.00    +0.000 N 
ATOM      8  C   UNL     1       2.604   6.597  18.392  0.00  0.00    +0.000 A 
ATOM      9  C   UNL     1       2.260   7.848  18.702  0.00  0.00    +0.000 A 
ATOM     10  C   UNL     1       1.744   8.127  20.047  0.00  0.00    +0.000 A 
ATOM     11  O   UNL     1       1.464   9.268  20.393  0.00  0.00    +0.000 OA
ATOM     12  N   UNL     1       1.612   7.044  20.866  0.00  0.00    +0.000 N 
ATOM     13  C   UNL     1       1.983   5.757  20.571  0.00  0.00    +0.000 A 
ATOM     14  O   UNL     1       1.868   4.877  21.420  0.00  0.00    +0.000 OA
ATOM     15  H   UNL     1       1.264   7.208  21.797  0.00  0.00    +0.000 HD
ENDBRANCH   4   7
BRANCH   5  16
ATOM     16  O   UNL     1       0.855   3.047  17.984  0.00  0.00    +0.000 OA
ATOM     17  H   UNL     1       0.250   3.770  18.247  0.00  0.00    +0.000 HD
ENDBRANCH   5  16
BRANCH   6  18
ATOM     18  O   UNL     1       2.926   1.412  17.881  0.00  0.00    +0.000 OA
ATOM     19  H   UNL     1       3.398   0.697  17.413  0.00  0.00    +0.000 HD
ENDBRANCH   6  18
ENDBRANCH   1   2
BRANCH   1  20
ATOM     20  O   UNL     1       6.507   4.070  16.399  0.00  0.00    +0.000 OA
BRANCH  20  23
ATOM     21  C   UNL     1       7.881   6.249  18.577  0.00  0.00    +0.000 C 
ATOM     22  O   UNL     1       8.151   5.260  17.557  0.00  0.00    +0.000 OA
ATOM     23  C   UNL     1       7.124   5.350  16.547  0.00  0.00    +0.000 C 
ATOM     24  C   UNL     1       6.147   6.463  16.962  0.00  0.00    +0.000 C 
ATOM     25  C   UNL     1       6.990   7.292  17.910  0.00  0.00    +0.000 C 
BRANCH  24  26
ATOM     26  O   UNL     1       5.694   7.223  15.835  0.00  0.00    +0.000 OA
ATOM     27  H   UNL     1       6.342   7.953  15.737  0.00  0.00    +0.000 HD
ENDBRANCH  24  26
BRANCH  25  28
ATOM     28  O   UNL     1       7.767   8.214  17.113  0.00  0.00    +0.000 OA
ATOM     29  H   UNL     1       7.355   9.097  17.177  0.00  0.00    +0.000 HD
ENDBRANCH  25  28
BRANCH  21  30
ATOM     30  C   UNL     1       7.275   5.557  19.815  0.00  0.00    +0.000 C 
BRANCH  30  31
ATOM     31  N   UNL     1       8.243   5.266  20.873  0.00  0.00    +0.000 NA
ATOM     32  H   UNL     1       7.783   5.352  21.780  0.00  0.00    +0.000 HD
ATOM     33  H   UNL     1       8.946   6.011  20.861  0.00  0.00    +0.000 HD
ENDBRANCH  30  31
ENDBRANCH  21  30
ENDBRANCH  20  23
ENDBRANCH   1  20
BRANCH   1  34
ATOM     34  C   UNL     1       4.567   3.522  14.946  0.00  0.00    +0.000 C 
BRANCH  34  35
ATOM     35  O   UNL     1       5.241   4.129  13.849  0.00  0.00    +0.000 OA
ATOM     36  H   UNL     1       5.962   3.529  13.585  0.00  0.00    +0.000 HD
ENDBRANCH  34  35
ENDBRANCH   1  34
TORSDOF 12
ENDMDL
MODEL 7
REMARK VINA RESULT:      -6.4      1.329      1.473
REMARK  Name = 
REMARK  12 active torsions:
REMARK  status: ('A' for Active; 'I' for Inactive)
REMARK    1  A    between atoms: N_1  and  C_2
REMARK    2  A    between atoms: C_2  and  C_3
REMARK    3  A    between atoms: C_5  and  O_6
REMARK    4  A    between atoms: O_6  and  C_7
REMARK    5  A    between atoms: C_7  and  C_8
REMARK    6  A    between atoms: C_7  and  C_10
REMARK    7  A    between atoms: C_8  and  O_9
REMARK    8  A    between atoms: C_12  and  N_13
REMARK    9  A    between atoms: C_21  and  O_22
REMARK   10  A    between atoms: C_23  and  O_24
REMARK   11  A    between atoms: C_25  and  O_26
REMARK   12  A    between atoms: C_27  and  O_28
REMARK                            x       y       z     vdW  Elec       q    Type
REMARK                         _______ _______ _______ _____ _____    ______ ____
ROOT
ATOM      1  C   UNL     1       3.576   3.010  17.668  0.00  0.00    +0.000 C 
ENDROOT
BRANCH   1   2
ATOM      2  C   UNL     1       3.461   3.301  19.187  0.00  0.00    +0.000 C 
ATOM      3  O   UNL     1       3.742   4.695  19.465  0.00  0.00    +0.000 OA
ATOM      4  C   UNL     1       2.559   5.319  20.009  0.00  0.00    +0.000 C 
ATOM      5  C   UNL     1       1.384   4.371  19.737  0.00  0.00    +0.000 C 
ATOM      6  C   UNL     1       2.078   3.020  19.775  0.00  0.00    +0.000 C 
BRANCH   4   7
ATOM      7  N   UNL     1       2.386   6.656  19.445  0.00  0.00    +0.000 N 
ATOM      8  C   UNL     1       2.853   6.963  18.181  0.00  0.00    +0.000 A 
ATOM      9  C   UNL     1       2.689   8.170  17.636  0.00  0.00    +0.000 A 
ATOM     10  C   UNL     1       1.982   9.202  18.402  0.00  0.00    +0.000 A 
ATOM     11  O   UNL     1       1.853  10.338  17.963  0.00  0.00    +0.000 OA
ATOM     12  N   UNL     1       1.499   8.811  19.617  0.00  0.00    +0.000 N 
ATOM     13  C   UNL     1       1.679   7.582  20.200  0.00  0.00    +0.000 A 
ATOM     14  O   UNL     1       1.242   7.372  21.330  0.00  0.00    +0.000 OA
ATOM     15  H   UNL     1       1.013   9.501  20.164  0.00  0.00    +0.000 HD
ENDBRANCH   4   7
BRANCH   5  16
ATOM     16  O   UNL     1       0.332   4.435  20.701  0.00  0.00    +0.000 OA
ATOM     17  H   UNL     1       0.141   3.511  20.959  0.00  0.00    +0.000 HD
ENDBRANCH   5  16
BRANCH   6  18
ATOM     18  O   UNL     1       2.181   2.606  21.156  0.00  0.00    +0.000 OA
ATOM     19  H   UNL     1       2.621   1.735  21.193  0.00  0.00    +0.000 HD
ENDBRANCH   6  18
ENDBRANCH   1   2
BRANCH   1  20
ATOM     20  O   UNL     1       4.029   4.192  16.991  0.00  0.00    +0.000 OA
BRANCH  20  23
ATOM     21  C   UNL     1       7.035   5.710  16.795  0.00  0.00    +0.000 C 
ATOM     22  O   UNL     1       6.284   4.636  17.408  0.00  0.00    +0.000 OA
ATOM     23  C   UNL     1       5.345   4.122  16.440  0.00  0.00    +0.000 C 
ATOM     24  C   UNL     1       5.515   4.926  15.141  0.00  0.00    +0.000 C 
ATOM     25  C   UNL     1       6.915   5.486  15.291  0.00  0.00    +0.000 C 
BRANCH  24  26
ATOM     26  O   UNL     1       5.385   4.097  13.979  0.00  0.00    +0.000 OA
ATOM     27  H   UNL     1       6.293   4.015  13.617  0.00  0.00    +0.000 HD
ENDBRANCH  24  26
BRANCH  25  28
ATOM     28  O   UNL     1       7.842   4.475  14.835  0.00  0.00    +0.000 OA
ATOM     29  H   UNL     1       7.745   3.690  15.407  0.00  0.00    +0.000 HD
ENDBRANCH  25  28
BRANCH  21  30
ATOM     30  C   UNL     1       6.502   7.064  17.305  0.00  0.00    +0.000 C 
BRANCH  30  31
ATOM     31  N   UNL     1       7.519   8.112  17.395  0.00  0.00    +0.000 NA
ATOM     32  H   UNL     1       8.155   7.897  18.165  0.00  0.00    +0.000 HD
ATOM     33  H   UNL     1       7.047   8.977  17.676  0.00  0.00    +0.000 HD
ENDBRANCH  30  31
ENDBRANCH  21  30
ENDBRANCH  20  23
ENDBRANCH   1  20
BRANCH   1  34
ATOM     34  C   UNL     1       4.490   1.790  17.435  0.00  0.00    +0.000 C 
BRANCH  34  35
ATOM     35  O   UNL     1       4.268   0.785  18.418  0.00  0.00    +0.000 OA
ATOM     36  H   UNL     1       3.306   0.722  18.556  0.00  0.00    +0.000 HD
ENDBRANCH  34  35
ENDBRANCH   1  34
TORSDOF 12
ENDMDL
MODEL 8
REMARK VINA RESULT:      -6.4      0.925      1.267
REMARK  Name = 
REMARK  12 active torsions:
REMARK  status: ('A' for Active; 'I' for Inactive)
REMARK    1  A    between atoms: N_1  and  C_2
REMARK    2  A    between atoms: C_2  and  C_3
REMARK    3  A    between atoms: C_5  and  O_6
REMARK    4  A    between atoms: O_6  and  C_7
REMARK    5  A    between atoms: C_7  and  C_8
REMARK    6  A    between atoms: C_7  and  C_10
REMARK    7  A    between atoms: C_8  and  O_9
REMARK    8  A    between atoms: C_12  and  N_13
REMARK    9  A    between atoms: C_21  and  O_22
REMARK   10  A    between atoms: C_23  and  O_24
REMARK   11  A    between atoms: C_25  and  O_26
REMARK   12  A    between atoms: C_27  and  O_28
REMARK                            x       y       z     vdW  Elec       q    Type
REMARK                         _______ _______ _______ _____ _____    ______ ____
ROOT
ATOM      1  C   UNL     1       4.257   3.245  18.580  0.00  0.00    +0.000 C 
ENDROOT
BRANCH   1   2
ATOM      2  C   UNL     1       3.596   3.431  19.970  0.00  0.00    +0.000 C 
ATOM      3  O   UNL     1       3.538   4.835  20.326  0.00  0.00    +0.000 OA
ATOM      4  C   UNL     1       2.157   5.240  20.438  0.00  0.00    +0.000 C 
ATOM      5  C   UNL     1       1.310   4.140  19.784  0.00  0.00    +0.000 C 
ATOM      6  C   UNL     1       2.161   2.910  20.055  0.00  0.00    +0.000 C 
BRANCH   4   7
ATOM      7  N   UNL     1       1.968   6.563  19.847  0.00  0.00    +0.000 N 
ATOM      8  C   UNL     1       1.648   7.656  20.630  0.00  0.00    +0.000 A 
ATOM      9  C   UNL     1       1.490   8.877  20.118  0.00  0.00    +0.000 A 
ATOM     10  C   UNL     1       1.670   9.067  18.674  0.00  0.00    +0.000 A 
ATOM     11  O   UNL     1       1.485  10.160  18.152  0.00  0.00    +0.000 OA
ATOM     12  N   UNL     1       2.041   7.957  17.973  0.00  0.00    +0.000 N 
ATOM     13  C   UNL     1       2.185   6.691  18.481  0.00  0.00    +0.000 A 
ATOM     14  O   UNL     1       2.467   5.759  17.731  0.00  0.00    +0.000 OA
ATOM     15  H   UNL     1       2.168   8.059  16.980  0.00  0.00    +0.000 HD
ENDBRANCH   4   7
BRANCH   5  16
ATOM     16  O   UNL     1       0.001   3.990  20.336  0.00  0.00    +0.000 OA
ATOM     17  H   UNL     1       0.071   3.294  21.020  0.00  0.00    +0.000 HD
ENDBRANCH   5  16
BRANCH   6  18
ATOM     18  O   UNL     1       1.863   2.442  21.390  0.00  0.00    +0.000 OA
ATOM     19  H   UNL     1       1.363   3.134  21.864  0.00  0.00    +0.000 HD
ENDBRANCH   6  18
ENDBRANCH   1   2
BRANCH   1  20
ATOM     20  O   UNL     1       5.681   3.366  18.711  0.00  0.00    +0.000 OA
BRANCH  20  23
ATOM     21  C   UNL     1       7.965   5.726  17.940  0.00  0.00    +0.000 C 
ATOM     22  O   UNL     1       7.711   4.306  18.036  0.00  0.00    +0.000 OA
ATOM     23  C   UNL     1       6.343   4.056  17.650  0.00  0.00    +0.000 C 
ATOM     24  C   UNL     1       5.698   5.405  17.293  0.00  0.00    +0.000 C 
ATOM     25  C   UNL     1       6.906   6.267  16.985  0.00  0.00    +0.000 C 
BRANCH  24  26
ATOM     26  O   UNL     1       4.812   5.294  16.172  0.00  0.00    +0.000 OA
ATOM     27  H   UNL     1       4.269   4.497  16.349  0.00  0.00    +0.000 HD
ENDBRANCH  24  26
BRANCH  25  28
ATOM     28  O   UNL     1       7.272   6.030  15.607  0.00  0.00    +0.000 OA
ATOM     29  H   UNL     1       7.413   6.894  15.175  0.00  0.00    +0.000 HD
ENDBRANCH  25  28
BRANCH  21  30
ATOM     30  C   UNL     1       7.958   6.345  19.353  0.00  0.00    +0.000 C 
BRANCH  30  31
ATOM     31  N   UNL     1       7.937   5.363  20.437  0.00  0.00    +0.000 NA
ATOM     32  H   UNL     1       7.301   4.603  20.189  0.00  0.00    +0.000 HD
ATOM     33  H   UNL     1       7.508   5.811  21.252  0.00  0.00    +0.000 HD
ENDBRANCH  30  31
ENDBRANCH  21  30
ENDBRANCH  20  23
ENDBRANCH   1  20
BRANCH   1  34
ATOM     34  C   UNL     1       3.817   1.901  17.965  0.00  0.00    +0.000 C 
BRANCH  34  35
ATOM     35  O   UNL     1       4.405   0.802  18.654  0.00  0.00    +0.000 OA
ATOM     36  H   UNL     1       4.803   1.152  19.472  0.00  0.00    +0.000 HD
ENDBRANCH  34  35
ENDBRANCH   1  34
TORSDOF 12
ENDMDL
MODEL 9
REMARK VINA RESULT:      -6.3      2.422      3.312
REMARK  Name = 
REMARK  12 active torsions:
REMARK  status: ('A' for Active; 'I' for Inactive)
REMARK    1  A    between atoms: N_1  and  C_2
REMARK    2  A    between atoms: C_2  and  C_3
REMARK    3  A    between atoms: C_5  and  O_6
REMARK    4  A    between atoms: O_6  and  C_7
REMARK    5  A    between atoms: C_7  and  C_8
REMARK    6  A    between atoms: C_7  and  C_10
REMARK    7  A    between atoms: C_8  and  O_9
REMARK    8  A    between atoms: C_12  and  N_13
REMARK    9  A    between atoms: C_21  and  O_22
REMARK   10  A    between atoms: C_23  and  O_24
REMARK   11  A    between atoms: C_25  and  O_26
REMARK   12  A    between atoms: C_27  and  O_28
REMARK                            x       y       z     vdW  Elec       q    Type
REMARK                         _______ _______ _______ _____ _____    ______ ____
ROOT
ATOM      1  C   UNL     1       5.212   3.811  18.653  0.00  0.00    +0.000 C 
ENDROOT
BRANCH   1   2
ATOM      2  C   UNL     1       3.969   3.254  19.394  0.00  0.00    +0.000 C 
ATOM      3  O   UNL     1       3.392   4.265  20.258  0.00  0.00    +0.000 OA
ATOM      4  C   UNL     1       2.059   4.577  19.800  0.00  0.00    +0.000 C 
ATOM      5  C   UNL     1       1.921   3.997  18.385  0.00  0.00    +0.000 C 
ATOM      6  C   UNL     1       2.844   2.792  18.468  0.00  0.00    +0.000 C 
BRANCH   4   7
ATOM      7  N   UNL     1       1.820   6.016  19.876  0.00  0.00    +0.000 N 
ATOM      8  C   UNL     1       1.216   6.583  20.982  0.00  0.00    +0.000 A 
ATOM      9  C   UNL     1       1.006   7.896  21.084  0.00  0.00    +0.000 A 
ATOM     10  C   UNL     1       1.439   8.769  19.986  0.00  0.00    +0.000 A 
ATOM     11  O   UNL     1       1.221   9.974  20.013  0.00  0.00    +0.000 OA
ATOM     12  N   UNL     1       2.079   8.148  18.954  0.00  0.00    +0.000 N 
ATOM     13  C   UNL     1       2.283   6.797  18.824  0.00  0.00    +0.000 A 
ATOM     14  O   UNL     1       2.823   6.355  17.813  0.00  0.00    +0.000 OA
ATOM     15  H   UNL     1       2.384   8.724  18.186  0.00  0.00    +0.000 HD
ENDBRANCH   4   7
BRANCH   5  16
ATOM     16  O   UNL     1       0.594   3.604  18.031  0.00  0.00    +0.000 OA
ATOM     17  H   UNL     1       0.034   3.802  18.809  0.00  0.00    +0.000 HD
ENDBRANCH   5  16
BRANCH   6  18
ATOM     18  O   UNL     1       2.106   1.700  19.062  0.00  0.00    +0.000 OA
ATOM     19  H   UNL     1       1.576   2.044  19.806  0.00  0.00    +0.000 HD
ENDBRANCH   6  18
ENDBRANCH   1   2
BRANCH   1  20
ATOM     20  O   UNL     1       4.922   3.918  17.251  0.00  0.00    +0.000 OA
BRANCH  20  23
ATOM     21  C   UNL     1       5.875   4.899  14.168  0.00  0.00    +0.000 C 
ATOM     22  O   UNL     1       5.074   5.231  15.325  0.00  0.00    +0.000 OA
ATOM     23  C   UNL     1       5.773   4.792  16.509  0.00  0.00    +0.000 C 
ATOM     24  C   UNL     1       7.093   4.141  16.066  0.00  0.00    +0.000 C 
ATOM     25  C   UNL     1       7.300   4.739  14.689  0.00  0.00    +0.000 C 
BRANCH  24  26
ATOM     26  O   UNL     1       8.169   4.454  16.959  0.00  0.00    +0.000 OA
ATOM     27  H   UNL     1       8.648   5.199  16.537  0.00  0.00    +0.000 HD
ENDBRANCH  24  26
BRANCH  25  28
ATOM     28  O   UNL     1       7.942   6.022  14.861  0.00  0.00    +0.000 OA
ATOM     29  H   UNL     1       7.612   6.626  14.169  0.00  0.00    +0.000 HD
ENDBRANCH  25  28
BRANCH  21  30
ATOM     30  C   UNL     1       5.282   3.656  13.474  0.00  0.00    +0.000 C 
BRANCH  30  31
ATOM     31  N   UNL     1       6.221   2.954  12.598  0.00  0.00    +0.000 NA
ATOM     32  H   UNL     1       6.067   3.254  11.634  0.00  0.00    +0.000 HD
ATOM     33  H   UNL     1       5.971   1.961  12.609  0.00  0.00    +0.000 HD
ENDBRANCH  30  31
ENDBRANCH  21  30
ENDBRANCH  20  23
ENDBRANCH   1  20
BRANCH   1  34
ATOM     34  C   UNL     1       5.646   5.149  19.285  0.00  0.00    +0.000 C 
BRANCH  34  35
ATOM     35  O   UNL     1       6.972   5.070  19.797  0.00  0.00    +0.000 OA
ATOM     36  H   UNL     1       7.003   5.613  20.606  0.00  0.00    +0.000 HD
ENDBRANCH  34  35
ENDBRANCH   1  34
TORSDOF 12
ENDMDL
