MODEL 1
REMARK VINA RESULT:      -7.6      0.000      0.000
REMARK  Name = 
REMARK  2 active torsions:
REMARK  status: ('A' for Active; 'I' for Inactive)
REMARK    1  A    between atoms: C_2  and  O_3
REMARK    2  A    between atoms: C_2  and  C_4
REMARK                            x       y       z     vdW  Elec       q    Type
REMARK                         _______ _______ _______ _____ _____    ______ ____
ROOT
ATOM      1  C   UNL     1       5.532   5.216  15.338  0.00  0.00    +0.000 C 
ATOM      2  C   UNL     1       5.783   6.221  16.490  0.00  0.00    +0.000 C 
ATOM      3  C   UNL     1       4.491   6.591  17.241  0.00  0.00    +0.000 C 
ATOM      4  C   UNL     1       3.778   5.356  17.653  0.00  0.00    +0.000 A 
ATOM      5  C   UNL     1       3.931   4.170  16.969  0.00  0.00    +0.000 A 
ATOM      6  N   UNL     1       3.158   3.221  17.577  0.00  0.00    +0.000 N 
ATOM      7  C   UNL     1       2.523   3.769  18.672  0.00  0.00    +0.000 A 
ATOM      8  C   UNL     1       1.658   3.175  19.599  0.00  0.00    +0.000 A 
ATOM      9  C   UNL     1       1.167   3.978  20.633  0.00  0.00    +0.000 A 
ATOM     10  C   UNL     1       1.528   5.319  20.734  0.00  0.00    +0.000 A 
ATOM     11  C   UNL     1       2.391   5.900  19.796  0.00  0.00    +0.000 A 
ATOM     12  C   UNL     1       2.898   5.113  18.743  0.00  0.00    +0.000 A 
ATOM     13  C   UNL     1       4.828   3.916  15.809  0.00  0.00    +0.000 C 
ATOM     14  H   UNL     1       3.079   2.253  17.295  0.00  0.00    +0.000 HD
ENDROOT
BRANCH   1  16
ATOM     15  O   UNL     1       7.794   5.461  14.548  0.00  0.00    +0.000 OA
ATOM     16  C   UNL     1       6.764   4.799  14.547  0.00  0.00    +0.000 C 
BRANCH  16  17
ATOM     17  O   UNL     1       6.680   3.662  13.831  0.00  0.00    +0.000 OA
ATOM     18  H   UNL     1       6.875   3.715  12.879  0.00  0.00    +0.000 HD
ENDBRANCH  16  17
ENDBRANCH   1  16
TORSDOF 2
ENDMDL
MODEL 2
REMARK VINA RESULT:      -7.4      2.878      3.381
REMARK  Name = 
REMARK  2 active torsions:
REMARK  status: ('A' for Active; 'I' for Inactive)
REMARK    1  A    between atoms: C_2  and  O_3
REMARK    2  A    between atoms: C_2  and  C_4
REMARK                            x       y       z     vdW  Elec       q    Type
REMARK                         _______ _______ _______ _____ _____    ______ ____
ROOT
ATOM      1  C   UNL     1       7.106   6.700  17.461  0.00  0.00    +0.000 C 
ATOM      2  C   UNL     1       5.700   7.107  16.954  0.00  0.00    +0.000 C 
ATOM      3  C   UNL     1       4.865   5.896  16.500  0.00  0.00    +0.000 C 
ATOM      4  C   UNL     1       4.854   4.865  17.568  0.00  0.00    +0.000 A 
ATOM      5  C   UNL     1       5.873   4.765  18.488  0.00  0.00    +0.000 A 
ATOM      6  N   UNL     1       5.587   3.733  19.337  0.00  0.00    +0.000 N 
ATOM      7  C   UNL     1       4.373   3.175  18.997  0.00  0.00    +0.000 A 
ATOM      8  C   UNL     1       3.672   2.118  19.592  0.00  0.00    +0.000 A 
ATOM      9  C   UNL     1       2.437   1.767  19.038  0.00  0.00    +0.000 A 
ATOM     10  C   UNL     1       1.926   2.446  17.935  0.00  0.00    +0.000 A 
ATOM     11  C   UNL     1       2.640   3.498  17.349  0.00  0.00    +0.000 A 
ATOM     12  C   UNL     1       3.889   3.870  17.886  0.00  0.00    +0.000 A 
ATOM     13  C   UNL     1       7.059   5.656  18.608  0.00  0.00    +0.000 C 
ATOM     14  H   UNL     1       6.156   3.435  20.117  0.00  0.00    +0.000 HD
ENDROOT
BRANCH   1  16
ATOM     15  O   UNL     1       8.073   8.902  17.317  0.00  0.00    +0.000 OA
ATOM     16  C   UNL     1       7.994   7.844  17.930  0.00  0.00    +0.000 C 
BRANCH  16  17
ATOM     17  O   UNL     1       8.704   7.650  19.057  0.00  0.00    +0.000 OA
ATOM     18  H   UNL     1       8.228   7.707  19.904  0.00  0.00    +0.000 HD
ENDBRANCH  16  17
ENDBRANCH   1  16
TORSDOF 2
ENDMDL
MODEL 3
REMARK VINA RESULT:      -7.3      1.571      1.875
REMARK  Name = 
REMARK  2 active torsions:
REMARK  status: ('A' for Active; 'I' for Inactive)
REMARK    1  A    between atoms: C_2  and  O_3
REMARK    2  A    between atoms: C_2  and  C_4
REMARK                            x       y       z     vdW  Elec       q    Type
REMARK                         _______ _______ _______ _____ _____    ______ ____
ROOT
ATOM      1  C   UNL     1       5.765   5.396  16.507  0.00  0.00    +0.000 C 
ATOM      2  C   UNL     1       4.715   6.416  17.014  0.00  0.00    +0.000 C 
ATOM      3  C   UNL     1       3.402   5.741  17.452  0.00  0.00    +0.000 C 
ATOM      4  C   UNL     1       3.696   4.642  18.406  0.00  0.00    +0.000 A 
ATOM      5  C   UNL     1       4.908   3.988  18.405  0.00  0.00    +0.000 A 
ATOM      6  N   UNL     1       4.883   3.036  19.386  0.00  0.00    +0.000 N 
ATOM      7  C   UNL     1       3.675   3.083  20.049  0.00  0.00    +0.000 A 
ATOM      8  C   UNL     1       3.212   2.320  21.128  0.00  0.00    +0.000 A 
ATOM      9  C   UNL     1       1.931   2.597  21.615  0.00  0.00    +0.000 A 
ATOM     10  C   UNL     1       1.147   3.596  21.045  0.00  0.00    +0.000 A 
ATOM     11  C   UNL     1       1.622   4.348  19.964  0.00  0.00    +0.000 A 
ATOM     12  C   UNL     1       2.909   4.088  19.452  0.00  0.00    +0.000 A 
ATOM     13  C   UNL     1       6.085   4.288  17.545  0.00  0.00    +0.000 C 
ATOM     14  H   UNL     1       5.640   2.409  19.619  0.00  0.00    +0.000 HD
ENDROOT
BRANCH   1  16
ATOM     15  O   UNL     1       7.659   6.874  16.684  0.00  0.00    +0.000 OA
ATOM     16  C   UNL     1       7.093   5.986  16.057  0.00  0.00    +0.000 C 
BRANCH  16  17
ATOM     17  O   UNL     1       7.634   5.496  14.925  0.00  0.00    +0.000 OA
ATOM     18  H   UNL     1       7.612   6.062  14.135  0.00  0.00    +0.000 HD
ENDBRANCH  16  17
ENDBRANCH   1  16
TORSDOF 2
ENDMDL
MODEL 4
REMARK VINA RESULT:      -7.3      3.567      5.845
REMARK  Name = 
REMARK  2 active torsions:
REMARK  status: ('A' for Active; 'I' for Inactive)
REMARK    1  A    between atoms: C_2  and  O_3
REMARK    2  A    between atoms: C_2  and  C_4
REMARK                            x       y       z     vdW  Elec       q    Type
REMARK                         _______ _______ _______ _____ _____    ______ ____
ROOT
ATOM      1  C   UNL     1       2.612   3.804  20.521  0.00  0.00    +0.000 C 
ATOM      2  C   UNL     1       2.162   5.129  19.858  0.00  0.00    +0.000 C 
ATOM      3  C   UNL     1       3.317   5.851  19.141  0.00  0.00    +0.000 C 
ATOM      4  C   UNL     1       4.001   4.909  18.219  0.00  0.00    +0.000 A 
ATOM      5  C   UNL     1       3.990   3.549  18.434  0.00  0.00    +0.000 A 
ATOM      6  N   UNL     1       4.696   2.949  17.429  0.00  0.00    +0.000 N 
ATOM      7  C   UNL     1       5.144   3.904  16.541  0.00  0.00    +0.000 A 
ATOM      8  C   UNL     1       5.883   3.757  15.360  0.00  0.00    +0.000 A 
ATOM      9  C   UNL     1       6.190   4.914  14.640  0.00  0.00    +0.000 A 
ATOM     10  C   UNL     1       5.775   6.168  15.084  0.00  0.00    +0.000 A 
ATOM     11  C   UNL     1       5.040   6.299  16.268  0.00  0.00    +0.000 A 
ATOM     12  C   UNL     1       4.719   5.148  17.015  0.00  0.00    +0.000 A 
ATOM     13  C   UNL     1       3.281   2.822  19.523  0.00  0.00    +0.000 C 
ATOM     14  H   UNL     1       4.846   1.955  17.326  0.00  0.00    +0.000 HD
ENDROOT
BRANCH   1  16
ATOM     15  O   UNL     1       1.687   2.585  22.381  0.00  0.00    +0.000 OA
ATOM     16  C   UNL     1       1.524   3.029  21.252  0.00  0.00    +0.000 C 
BRANCH  16  17
ATOM     17  O   UNL     1       0.360   2.842  20.603  0.00  0.00    +0.000 OA
ATOM     18  H   UNL     1      -0.346   3.495  20.748  0.00  0.00    +0.000 HD
ENDBRANCH  16  17
ENDBRANCH   1  16
TORSDOF 2
ENDMDL
MODEL 5
REMARK VINA RESULT:      -7.3      3.650      6.070
REMARK  Name = 
REMARK  2 active torsions:
REMARK  status: ('A' for Active; 'I' for Inactive)
REMARK    1  A    between atoms: C_2  and  O_3
REMARK    2  A    between atoms: C_2  and  C_4
REMARK                            x       y       z     vdW  Elec       q    Type
REMARK                         _______ _______ _______ _____ _____    ______ ____
ROOT
ATOM      1  C   UNL     1       2.459   3.715  20.002  0.00  0.00    +0.000 C 
ATOM      2  C   UNL     1       1.927   3.241  18.626  0.00  0.00    +0.000 C 
ATOM      3  C   UNL     1       2.458   4.098  17.463  0.00  0.00    +0.000 C 
ATOM      4  C   UNL     1       3.938   4.195  17.545  0.00  0.00    +0.000 A 
ATOM      5  C   UNL     1       4.606   4.065  18.743  0.00  0.00    +0.000 A 
ATOM      6  N   UNL     1       5.945   4.200  18.505  0.00  0.00    +0.000 N 
ATOM      7  C   UNL     1       6.161   4.387  17.156  0.00  0.00    +0.000 A 
ATOM      8  C   UNL     1       7.361   4.549  16.451  0.00  0.00    +0.000 A 
ATOM      9  C   UNL     1       7.282   4.708  15.065  0.00  0.00    +0.000 A 
ATOM     10  C   UNL     1       6.052   4.706  14.411  0.00  0.00    +0.000 A 
ATOM     11  C   UNL     1       4.860   4.548  15.129  0.00  0.00    +0.000 A 
ATOM     12  C   UNL     1       4.912   4.387  16.528  0.00  0.00    +0.000 A 
ATOM     13  C   UNL     1       4.008   3.761  20.071  0.00  0.00    +0.000 C 
ATOM     14  H   UNL     1       6.677   4.142  19.199  0.00  0.00    +0.000 HD
ENDROOT
BRANCH   1  16
ATOM     15  O   UNL     1       2.754   2.457  22.035  0.00  0.00    +0.000 OA
ATOM     16  C   UNL     1       1.979   2.915  21.205  0.00  0.00    +0.000 C 
BRANCH  16  17
ATOM     17  O   UNL     1       0.652   2.721  21.327  0.00  0.00    +0.000 OA
ATOM     18  H   UNL     1       0.347   2.139  22.044  0.00  0.00    +0.000 HD
ENDBRANCH  16  17
ENDBRANCH   1  16
TORSDOF 2
ENDMDL
MODEL 6
REMARK VINA RESULT:      -7.3      1.184      1.254
REMARK  Name = 
REMARK  2 active torsions:
REMARK  status: ('A' for Active; 'I' for Inactive)
REMARK    1  A    between atoms: C_2  and  O_3
REMARK    2  A    between atoms: C_2  and  C_4
REMARK                            x       y       z     vdW  Elec       q    Type
REMARK                         _______ _______ _______ _____ _____    ______ ____
ROOT
ATOM      1  C   UNL     1       5.919   5.006  16.202  0.00  0.00    +0.000 C 
ATOM      2  C   UNL     1       6.491   4.757  17.620  0.00  0.00    +0.000 C 
ATOM      3  C   UNL     1       5.491   5.122  18.732  0.00  0.00    +0.000 C 
ATOM      4  C   UNL     1       4.189   4.457  18.474  0.00  0.00    +0.000 A 
ATOM      5  C   UNL     1       3.796   4.105  17.202  0.00  0.00    +0.000 A 
ATOM      6  N   UNL     1       2.564   3.517  17.280  0.00  0.00    +0.000 N 
ATOM      7  C   UNL     1       2.161   3.454  18.597  0.00  0.00    +0.000 A 
ATOM      8  C   UNL     1       0.993   2.921  19.156  0.00  0.00    +0.000 A 
ATOM      9  C   UNL     1       0.852   2.982  20.545  0.00  0.00    +0.000 A 
ATOM     10  C   UNL     1       1.841   3.553  21.342  0.00  0.00    +0.000 A 
ATOM     11  C   UNL     1       3.002   4.086  20.769  0.00  0.00    +0.000 A 
ATOM     12  C   UNL     1       3.168   4.039  19.371  0.00  0.00    +0.000 A 
ATOM     13  C   UNL     1       4.582   4.260  15.948  0.00  0.00    +0.000 C 
ATOM     14  H   UNL     1       2.034   3.151  16.501  0.00  0.00    +0.000 HD
ENDROOT
BRANCH   1  16
ATOM     15  O   UNL     1       7.832   5.347  14.779  0.00  0.00    +0.000 OA
ATOM     16  C   UNL     1       6.850   4.666  15.047  0.00  0.00    +0.000 C 
BRANCH  16  17
ATOM     17  O   UNL     1       6.551   3.577  14.314  0.00  0.00    +0.000 OA
ATOM     18  H   UNL     1       7.124   2.798  14.413  0.00  0.00    +0.000 HD
ENDBRANCH  16  17
ENDBRANCH   1  16
TORSDOF 2
ENDMDL
MODEL 7
REMARK VINA RESULT:      -7.2      3.623      5.731
REMARK  Name = 
REMARK  2 active torsions:
REMARK  status: ('A' for Active; 'I' for Inactive)
REMARK    1  A    between atoms: C_2  and  O_3
REMARK    2  A    between atoms: C_2  and  C_4
REMARK                            x       y       z     vdW  Elec       q    Type
REMARK                         _______ _______ _______ _____ _____    ______ ____
ROOT
ATOM      1  C   UNL     1       2.358   2.892  18.856  0.00  0.00    +0.000 C 
ATOM      2  C   UNL     1       3.259   3.024  20.109  0.00  0.00    +0.000 C 
ATOM      3  C   UNL     1       4.737   3.257  19.748  0.00  0.00    +0.000 C 
ATOM      4  C   UNL     1       4.849   4.389  18.794  0.00  0.00    +0.000 A 
ATOM      5  C   UNL     1       3.813   4.733  17.955  0.00  0.00    +0.000 A 
ATOM      6  N   UNL     1       4.206   5.803  17.201  0.00  0.00    +0.000 N 
ATOM      7  C   UNL     1       5.482   6.181  17.562  0.00  0.00    +0.000 A 
ATOM      8  C   UNL     1       6.279   7.228  17.082  0.00  0.00    +0.000 A 
ATOM      9  C   UNL     1       7.547   7.390  17.648  0.00  0.00    +0.000 A 
ATOM     10  C   UNL     1       7.998   6.539  18.653  0.00  0.00    +0.000 A 
ATOM     11  C   UNL     1       7.192   5.494  19.121  0.00  0.00    +0.000 A 
ATOM     12  C   UNL     1       5.910   5.307  18.565  0.00  0.00    +0.000 A 
ATOM     13  C   UNL     1       2.461   4.112  17.903  0.00  0.00    +0.000 C 
ATOM     14  H   UNL     1       3.645   6.273  16.505  0.00  0.00    +0.000 HD
ENDROOT
BRANCH   1  16
ATOM     15  O   UNL     1       0.161   2.038  18.357  0.00  0.00    +0.000 OA
ATOM     16  C   UNL     1       0.878   2.661  19.131  0.00  0.00    +0.000 C 
BRANCH  16  17
ATOM     17  O   UNL     1       0.374   3.176  20.269  0.00  0.00    +0.000 OA
ATOM     18  H   UNL     1      -0.355   2.693  20.695  0.00  0.00    +0.000 HD
ENDBRANCH  16  17
ENDBRANCH   1  16
TORSDOF 2
ENDMDL
MODEL 8
REMARK VINA RESULT:      -7.2      2.089      3.038
REMARK  Name = 
REMARK  2 active torsions:
REMARK  status: ('A' for Active; 'I' for Inactive)
REMARK    1  A    between atoms: C_2  and  O_3
REMARK    2  A    between atoms: C_2  and  C_4
REMARK                            x       y       z     vdW  Elec       q    Type
REMARK                         _______ _______ _______ _____ _____    ______ ____
ROOT
ATOM      1  C   UNL     1       6.712   5.591  17.931  0.00  0.00    +0.000 C 
ATOM      2  C   UNL     1       5.841   5.242  16.699  0.00  0.00    +0.000 C 
ATOM      3  C   UNL     1       4.952   4.007  16.937  0.00  0.00    +0.000 C 
ATOM      4  C   UNL     1       4.187   4.175  18.198  0.00  0.00    +0.000 A 
ATOM      5  C   UNL     1       4.646   4.973  19.222  0.00  0.00    +0.000 A 
ATOM      6  N   UNL     1       3.736   4.931  20.241  0.00  0.00    +0.000 N 
ATOM      7  C   UNL     1       2.670   4.134  19.880  0.00  0.00    +0.000 A 
ATOM      8  C   UNL     1       1.503   3.818  20.587  0.00  0.00    +0.000 A 
ATOM      9  C   UNL     1       0.572   2.985  19.962  0.00  0.00    +0.000 A 
ATOM     10  C   UNL     1       0.798   2.489  18.680  0.00  0.00    +0.000 A 
ATOM     11  C   UNL     1       1.972   2.810  17.986  0.00  0.00    +0.000 A 
ATOM     12  C   UNL     1       2.928   3.646  18.596  0.00  0.00    +0.000 A 
ATOM     13  C   UNL     1       5.879   5.806  19.222  0.00  0.00    +0.000 C 
ATOM     14  H   UNL     1       3.808   5.428  21.118  0.00  0.00    +0.000 HD
ENDROOT
BRANCH   1  16
ATOM     15  O   UNL     1       7.660   7.458  16.740  0.00  0.00    +0.000 OA
ATOM     16  C   UNL     1       7.619   6.803  17.774  0.00  0.00    +0.000 C 
BRANCH  16  17
ATOM     17  O   UNL     1       8.392   7.135  18.826  0.00  0.00    +0.000 OA
ATOM     18  H   UNL     1       8.530   8.082  19.001  0.00  0.00    +0.000 HD
ENDBRANCH  16  17
ENDBRANCH   1  16
TORSDOF 2
ENDMDL
MODEL 9
REMARK VINA RESULT:      -7.1      3.494      5.485
REMARK  Name = 
REMARK  2 active torsions:
REMARK  status: ('A' for Active; 'I' for Inactive)
REMARK    1  A    between atoms: C_2  and  O_3
REMARK    2  A    between atoms: C_2  and  C_4
REMARK                            x       y       z     vdW  Elec       q    Type
REMARK                         _______ _______ _______ _____ _____    ______ ____
ROOT
ATOM      1  C   UNL     1       2.077   3.592  18.906  0.00  0.00    +0.000 C 
ATOM      2  C   UNL     1       2.138   4.357  17.560  0.00  0.00    +0.000 C 
ATOM      3  C   UNL     1       2.924   5.676  17.667  0.00  0.00    +0.000 C 
ATOM      4  C   UNL     1       4.250   5.421  18.284  0.00  0.00    +0.000 A 
ATOM      5  C   UNL     1       4.462   4.355  19.130  0.00  0.00    +0.000 A 
ATOM      6  N   UNL     1       5.767   4.381  19.536  0.00  0.00    +0.000 N 
ATOM      7  C   UNL     1       6.419   5.439  18.938  0.00  0.00    +0.000 A 
ATOM      8  C   UNL     1       7.756   5.842  19.038  0.00  0.00    +0.000 A 
ATOM      9  C   UNL     1       8.152   6.961  18.299  0.00  0.00    +0.000 A 
ATOM     10  C   UNL     1       7.247   7.646  17.493  0.00  0.00    +0.000 A 
ATOM     11  C   UNL     1       5.912   7.233  17.406  0.00  0.00    +0.000 A 
ATOM     12  C   UNL     1       5.486   6.110  18.143  0.00  0.00    +0.000 A 
ATOM     13  C   UNL     1       3.480   3.300  19.502  0.00  0.00    +0.000 C 
ATOM     14  H   UNL     1       6.206   3.713  20.155  0.00  0.00    +0.000 HD
ENDROOT
BRANCH   1  16
ATOM     15  O   UNL     1       0.095   2.227  18.801  0.00  0.00    +0.000 OA
ATOM     16  C   UNL     1       1.316   2.274  18.882  0.00  0.00    +0.000 C 
BRANCH  16  17
ATOM     17  O   UNL     1       2.042   1.142  18.957  0.00  0.00    +0.000 OA
ATOM     18  H   UNL     1       1.557   0.299  18.990  0.00  0.00    +0.000 HD
ENDBRANCH  16  17
ENDBRANCH   1  16
TORSDOF 2
ENDMDL
