MODEL 1
REMARK VINA RESULT:      -8.1      0.000      0.000
REMARK  Name = 
REMARK  8 active torsions:
REMARK  status: ('A' for Active; 'I' for Inactive)
REMARK    1  A    between atoms: C_1  and  C_2
REMARK    2  A    between atoms: C_2  and  C_3
REMARK    3  A    between atoms: C_10  and  C_11
REMARK    4  A    between atoms: C_11  and  O_13
REMARK    5  A    between atoms: O_13  and  C_14
REMARK    6  A    between atoms: C_17  and  C_18
REMARK    7  A    between atoms: N_19  and  N_20
REMARK    8  A    between atoms: C_21  and  S_23
REMARK                            x       y       z     vdW  Elec       q    Type
REMARK                         _______ _______ _______ _____ _____    ______ ____
ROOT
ATOM      1  O   UNL     1       2.529   6.670  20.489  0.00  0.00    +0.000 OA
ENDROOT
BRANCH   1   2
ATOM      2  C   UNL     1       1.839   7.842  20.104  0.00  0.00    +0.000 A 
ATOM      3  C   UNL     1       1.939   8.348  18.806  0.00  0.00    +0.000 A 
ATOM      4  C   UNL     1       1.249   9.507  18.448  0.00  0.00    +0.000 A 
ATOM      5  C   UNL     1       0.419  10.139  19.377  0.00  0.00    +0.000 A 
ATOM      6  C   UNL     1       0.255   9.590  20.655  0.00  0.00    +0.000 A 
ATOM      7  C   UNL     1       0.968   8.436  21.021  0.00  0.00    +0.000 A 
BRANCH   5   8
ATOM      8  C   UNL     1      -0.267  11.403  19.018  0.00  0.00    +0.000 C 
ATOM      9  N   UNL     1       0.398  12.431  18.583  0.00  0.00    +0.000 NA
BRANCH   9  10
ATOM     10  N   UNL     1      -0.441  13.521  18.319  0.00  0.00    +0.000 NA
ATOM     11  C   UNL     1      -0.061  14.641  18.864  0.00  0.00    +0.000 C 
ATOM     12  N   UNL     1      -0.760  15.799  18.734  0.00  0.00    +0.000 N 
ATOM     13  H   UNL     1      -1.434  15.831  17.981  0.00  0.00    +0.000 HD
ATOM     14  H   UNL     1      -0.263  16.655  18.943  0.00  0.00    +0.000 HD
BRANCH  11  15
ATOM     15  S   UNL     1       1.393  14.820  19.825  0.00  0.00    +0.000 S 
ATOM     16  H   UNL     1       1.724  15.978  19.234  0.00  0.00    +0.000 HD
ENDBRANCH  11  15
ENDBRANCH   9  10
ENDBRANCH   5   8
ENDBRANCH   1   2
BRANCH   1  17
ATOM     17  C   UNL     1       2.057   5.473  19.962  0.00  0.00    +0.000 C 
ATOM     18  O   UNL     1       1.082   4.843  20.357  0.00  0.00    +0.000 OA
BRANCH  17  28
ATOM     19  C   UNL     1       6.623   6.999  17.328  0.00  0.00    +0.000 C 
ATOM     20  C   UNL     1       6.616   5.567  17.900  0.00  0.00    +0.000 C 
ATOM     21  C   UNL     1       7.208   5.605  19.326  0.00  0.00    +0.000 C 
ATOM     22  C   UNL     1       7.507   4.642  17.050  0.00  0.00    +0.000 C 
ATOM     23  C   UNL     1       6.814   4.295  15.744  0.00  0.00    +0.000 C 
ATOM     24  O   UNL     1       5.598   3.579  15.956  0.00  0.00    +0.000 OA
ATOM     25  C   UNL     1       4.777   4.091  16.934  0.00  0.00    +0.000 A 
ATOM     26  C   UNL     1       3.475   3.581  16.956  0.00  0.00    +0.000 A 
ATOM     27  C   UNL     1       2.548   4.009  17.920  0.00  0.00    +0.000 A 
ATOM     28  C   UNL     1       2.937   4.952  18.874  0.00  0.00    +0.000 A 
ATOM     29  C   UNL     1       4.243   5.466  18.825  0.00  0.00    +0.000 A 
ATOM     30  C   UNL     1       5.192   5.028  17.879  0.00  0.00    +0.000 A 
ENDBRANCH  17  28
ENDBRANCH   1  17
TORSDOF 6
ENDMDL
MODEL 2
REMARK VINA RESULT:      -7.8      2.167      2.489
REMARK  Name = 
REMARK  8 active torsions:
REMARK  status: ('A' for Active; 'I' for Inactive)
REMARK    1  A    between atoms: C_1  and  C_2
REMARK    2  A    between atoms: C_2  and  C_3
REMARK    3  A    between atoms: C_10  and  C_11
REMARK    4  A    between atoms: C_11  and  O_13
REMARK    5  A    between atoms: O_13  and  C_14
REMARK    6  A    between atoms: C_17  and  C_18
REMARK    7  A    between atoms: N_19  and  N_20
REMARK    8  A    between atoms: C_21  and  S_23
REMARK                            x       y       z     vdW  Elec       q    Type
REMARK                         _______ _______ _______ _____ _____    ______ ____
ROOT
ATOM      1  O   UNL     1       2.689   6.876  20.466  0.00  0.00    +0.000 OA
ENDROOT
BRANCH   1   2
ATOM      2  C   UNL     1       1.721   7.861  20.163  0.00  0.00    +0.000 A 
ATOM      3  C   UNL     1       0.802   8.293  21.122  0.00  0.00    +0.000 A 
ATOM      4  C   UNL     1      -0.146   9.265  20.800  0.00  0.00    +0.000 A 
ATOM      5  C   UNL     1      -0.148   9.842  19.529  0.00  0.00    +0.000 A 
ATOM      6  C   UNL     1       0.822   9.468  18.590  0.00  0.00    +0.000 A 
ATOM      7  C   UNL     1       1.761   8.473  18.908  0.00  0.00    +0.000 A 
BRANCH   5   8
ATOM      8  C   UNL     1      -1.190  10.831  19.166  0.00  0.00    +0.000 C 
ATOM      9  N   UNL     1      -2.269  10.473  18.536  0.00  0.00    +0.000 NA
BRANCH   9  10
ATOM     10  N   UNL     1      -3.110  11.563  18.279  0.00  0.00    +0.000 NA
ATOM     11  C   UNL     1      -3.773  11.484  17.161  0.00  0.00    +0.000 C 
ATOM     12  N   UNL     1      -4.622  12.457  16.736  0.00  0.00    +0.000 N 
ATOM     13  H   UNL     1      -4.932  13.116  17.437  0.00  0.00    +0.000 HD
ATOM     14  H   UNL     1      -5.289  12.196  16.023  0.00  0.00    +0.000 HD
BRANCH  11  15
ATOM     15  S   UNL     1      -3.678  10.125  16.059  0.00  0.00    +0.000 S 
ATOM     16  H   UNL     1      -2.835   9.450  16.855  0.00  0.00    +0.000 HD
ENDBRANCH  11  15
ENDBRANCH   9  10
ENDBRANCH   5   8
ENDBRANCH   1   2
BRANCH   1  17
ATOM     17  C   UNL     1       2.359   5.565  20.142  0.00  0.00    +0.000 C 
ATOM     18  O   UNL     1       1.552   4.855  20.732  0.00  0.00    +0.000 OA
BRANCH  17  28
ATOM     19  C   UNL     1       6.846   7.030  17.341  0.00  0.00    +0.000 C 
ATOM     20  C   UNL     1       6.828   5.589  17.889  0.00  0.00    +0.000 C 
ATOM     21  C   UNL     1       7.481   5.588  19.289  0.00  0.00    +0.000 C 
ATOM     22  C   UNL     1       7.660   4.658  16.986  0.00  0.00    +0.000 C 
ATOM     23  C   UNL     1       6.905   4.351  15.706  0.00  0.00    +0.000 C 
ATOM     24  O   UNL     1       5.681   3.659  15.958  0.00  0.00    +0.000 OA
ATOM     25  C   UNL     1       4.915   4.174  16.979  0.00  0.00    +0.000 A 
ATOM     26  C   UNL     1       3.603   3.694  17.047  0.00  0.00    +0.000 A 
ATOM     27  C   UNL     1       2.728   4.126  18.057  0.00  0.00    +0.000 A 
ATOM     28  C   UNL     1       3.180   5.043  19.009  0.00  0.00    +0.000 A 
ATOM     29  C   UNL     1       4.495   5.527  18.913  0.00  0.00    +0.000 A 
ATOM     30  C   UNL     1       5.392   5.084  17.920  0.00  0.00    +0.000 A 
ENDBRANCH  17  28
ENDBRANCH   1  17
TORSDOF 6
ENDMDL
MODEL 3
REMARK VINA RESULT:      -7.8      1.414      1.692
REMARK  Name = 
REMARK  8 active torsions:
REMARK  status: ('A' for Active; 'I' for Inactive)
REMARK    1  A    between atoms: C_1  and  C_2
REMARK    2  A    between atoms: C_2  and  C_3
REMARK    3  A    between atoms: C_10  and  C_11
REMARK    4  A    between atoms: C_11  and  O_13
REMARK    5  A    between atoms: O_13  and  C_14
REMARK    6  A    between atoms: C_17  and  C_18
REMARK    7  A    between atoms: N_19  and  N_20
REMARK    8  A    between atoms: C_21  and  S_23
REMARK                            x       y       z     vdW  Elec       q    Type
REMARK                         _______ _______ _______ _____ _____    ______ ____
ROOT
ATOM      1  O   UNL     1       2.561   6.643  20.497  0.00  0.00    +0.000 OA
ENDROOT
BRANCH   1   2
ATOM      2  C   UNL     1       1.785   7.801  20.259  0.00  0.00    +0.000 A 
ATOM      3  C   UNL     1       1.043   8.398  21.281  0.00  0.00    +0.000 A 
ATOM      4  C   UNL     1       0.283   9.540  21.023  0.00  0.00    +0.000 A 
ATOM      5  C   UNL     1       0.298  10.114  19.751  0.00  0.00    +0.000 A 
ATOM      6  C   UNL     1       1.102   9.563  18.744  0.00  0.00    +0.000 A 
ATOM      7  C   UNL     1       1.848   8.401  18.999  0.00  0.00    +0.000 A 
BRANCH   5   8
ATOM      8  C   UNL     1      -0.554  11.291  19.459  0.00  0.00    +0.000 C 
ATOM      9  N   UNL     1      -1.575  11.586  20.206  0.00  0.00    +0.000 NA
BRANCH   9  10
ATOM     10  N   UNL     1      -2.249  12.724  19.744  0.00  0.00    +0.000 NA
ATOM     11  C   UNL     1      -2.507  13.610  20.663  0.00  0.00    +0.000 C 
ATOM     12  N   UNL     1      -3.172  14.767  20.405  0.00  0.00    +0.000 N 
ATOM     13  H   UNL     1      -3.221  15.047  19.435  0.00  0.00    +0.000 HD
ATOM     14  H   UNL     1      -3.083  15.504  21.091  0.00  0.00    +0.000 HD
BRANCH  11  15
ATOM     15  S   UNL     1      -2.034  13.449  22.342  0.00  0.00    +0.000 S 
ATOM     16  H   UNL     1      -2.110  12.110  22.306  0.00  0.00    +0.000 HD
ENDBRANCH  11  15
ENDBRANCH   9  10
ENDBRANCH   5   8
ENDBRANCH   1   2
BRANCH   1  17
ATOM     17  C   UNL     1       2.079   5.455  19.958  0.00  0.00    +0.000 C 
ATOM     18  O   UNL     1       1.100   4.829  20.348  0.00  0.00    +0.000 OA
BRANCH  17  28
ATOM     19  C   UNL     1       6.624   6.999  17.297  0.00  0.00    +0.000 C 
ATOM     20  C   UNL     1       6.625   5.567  17.870  0.00  0.00    +0.000 C 
ATOM     21  C   UNL     1       7.226   5.608  19.292  0.00  0.00    +0.000 C 
ATOM     22  C   UNL     1       7.516   4.646  17.014  0.00  0.00    +0.000 C 
ATOM     23  C   UNL     1       6.817   4.297  15.712  0.00  0.00    +0.000 C 
ATOM     24  O   UNL     1       5.604   3.575  15.931  0.00  0.00    +0.000 OA
ATOM     25  C   UNL     1       4.787   4.085  16.914  0.00  0.00    +0.000 A 
ATOM     26  C   UNL     1       3.487   3.569  16.943  0.00  0.00    +0.000 A 
ATOM     27  C   UNL     1       2.564   3.993  17.913  0.00  0.00    +0.000 A 
ATOM     28  C   UNL     1       2.955   4.937  18.865  0.00  0.00    +0.000 A 
ATOM     29  C   UNL     1       4.259   5.457  18.808  0.00  0.00    +0.000 A 
ATOM     30  C   UNL     1       5.204   5.023  17.857  0.00  0.00    +0.000 A 
ENDBRANCH  17  28
ENDBRANCH   1  17
TORSDOF 6
ENDMDL
MODEL 4
REMARK VINA RESULT:      -7.6      1.610      1.616
REMARK  Name = 
REMARK  8 active torsions:
REMARK  status: ('A' for Active; 'I' for Inactive)
REMARK    1  A    between atoms: C_1  and  C_2
REMARK    2  A    between atoms: C_2  and  C_3
REMARK    3  A    between atoms: C_10  and  C_11
REMARK    4  A    between atoms: C_11  and  O_13
REMARK    5  A    between atoms: O_13  and  C_14
REMARK    6  A    between atoms: C_17  and  C_18
REMARK    7  A    between atoms: N_19  and  N_20
REMARK    8  A    between atoms: C_21  and  S_23
REMARK                            x       y       z     vdW  Elec       q    Type
REMARK                         _______ _______ _______ _____ _____    ______ ____
ROOT
ATOM      1  O   UNL     1       2.663   6.752  20.254  0.00  0.00    +0.000 OA
ENDROOT
BRANCH   1   2
ATOM      2  C   UNL     1       1.838   7.876  20.021  0.00  0.00    +0.000 A 
ATOM      3  C   UNL     1       1.776   8.482  18.764  0.00  0.00    +0.000 A 
ATOM      4  C   UNL     1       0.955   9.591  18.557  0.00  0.00    +0.000 A 
ATOM      5  C   UNL     1       0.158  10.072  19.598  0.00  0.00    +0.000 A 
ATOM      6  C   UNL     1       0.159   9.420  20.838  0.00  0.00    +0.000 A 
ATOM      7  C   UNL     1       1.003   8.317  21.051  0.00  0.00    +0.000 A 
BRANCH   5   8
ATOM      8  C   UNL     1      -0.668  11.286  19.399  0.00  0.00    +0.000 C 
ATOM      9  N   UNL     1      -1.904  11.332  19.795  0.00  0.00    +0.000 NA
BRANCH   9  10
ATOM     10  N   UNL     1      -2.503  12.563  19.497  0.00  0.00    +0.000 NA
ATOM     11  C   UNL     1      -2.962  13.207  20.531  0.00  0.00    +0.000 C 
ATOM     12  N   UNL     1      -3.593  14.407  20.432  0.00  0.00    +0.000 N 
ATOM     13  H   UNL     1      -3.455  14.914  19.569  0.00  0.00    +0.000 HD
ATOM     14  H   UNL     1      -3.662  14.954  21.280  0.00  0.00    +0.000 HD
BRANCH  11  15
ATOM     15  S   UNL     1      -2.829  12.634  22.182  0.00  0.00    +0.000 S 
ATOM     16  H   UNL     1      -3.086  13.845  22.695  0.00  0.00    +0.000 HD
ENDBRANCH  11  15
ENDBRANCH   9  10
ENDBRANCH   5   8
ENDBRANCH   1   2
BRANCH   1  17
ATOM     17  C   UNL     1       2.210   5.538  19.748  0.00  0.00    +0.000 C 
ATOM     18  O   UNL     1       1.246   4.899  20.156  0.00  0.00    +0.000 OA
BRANCH  17  28
ATOM     19  C   UNL     1       6.850   7.001  17.209  0.00  0.00    +0.000 C 
ATOM     20  C   UNL     1       6.803   5.563  17.762  0.00  0.00    +0.000 C 
ATOM     21  C   UNL     1       7.372   5.570  19.198  0.00  0.00    +0.000 C 
ATOM     22  C   UNL     1       7.689   4.630  16.914  0.00  0.00    +0.000 C 
ATOM     23  C   UNL     1       7.011   4.315  15.593  0.00  0.00    +0.000 C 
ATOM     24  O   UNL     1       5.776   3.622  15.775  0.00  0.00    +0.000 OA
ATOM     25  C   UNL     1       4.950   4.139  16.747  0.00  0.00    +0.000 A 
ATOM     26  C   UNL     1       3.638   3.656  16.740  0.00  0.00    +0.000 A 
ATOM     27  C   UNL     1       2.703   4.091  17.695  0.00  0.00    +0.000 A 
ATOM     28  C   UNL     1       3.097   5.013  18.668  0.00  0.00    +0.000 A 
ATOM     29  C   UNL     1       4.414   5.500  18.647  0.00  0.00    +0.000 A 
ATOM     30  C   UNL     1       5.369   5.055  17.711  0.00  0.00    +0.000 A 
ENDBRANCH  17  28
ENDBRANCH   1  17
TORSDOF 6
ENDMDL
MODEL 5
REMARK VINA RESULT:      -7.6      4.895      7.139
REMARK  Name = 
REMARK  8 active torsions:
REMARK  status: ('A' for Active; 'I' for Inactive)
REMARK    1  A    between atoms: C_1  and  C_2
REMARK    2  A    between atoms: C_2  and  C_3
REMARK    3  A    between atoms: C_10  and  C_11
REMARK    4  A    between atoms: C_11  and  O_13
REMARK    5  A    between atoms: O_13  and  C_14
REMARK    6  A    between atoms: C_17  and  C_18
REMARK    7  A    between atoms: N_19  and  N_20
REMARK    8  A    between atoms: C_21  and  S_23
REMARK                            x       y       z     vdW  Elec       q    Type
REMARK                         _______ _______ _______ _____ _____    ______ ____
ROOT
ATOM      1  O   UNL     1       6.845   5.180  16.653  0.00  0.00    +0.000 OA
ENDROOT
BRANCH   1   2
ATOM      2  C   UNL     1       7.381   6.305  17.322  0.00  0.00    +0.000 A 
ATOM      3  C   UNL     1       7.260   7.590  16.788  0.00  0.00    +0.000 A 
ATOM      4  C   UNL     1       7.797   8.686  17.465  0.00  0.00    +0.000 A 
ATOM      5  C   UNL     1       8.420   8.505  18.701  0.00  0.00    +0.000 A 
ATOM      6  C   UNL     1       8.474   7.229  19.276  0.00  0.00    +0.000 A 
ATOM      7  C   UNL     1       7.953   6.123  18.583  0.00  0.00    +0.000 A 
BRANCH   5   8
ATOM      8  C   UNL     1       9.044   9.657  19.393  0.00  0.00    +0.000 C 
ATOM      9  N   UNL     1       9.699  10.565  18.734  0.00  0.00    +0.000 NA
BRANCH   9  10
ATOM     10  N   UNL     1      10.217  11.553  19.580  0.00  0.00    +0.000 NA
ATOM     11  C   UNL     1      10.750  12.569  18.963  0.00  0.00    +0.000 C 
ATOM     12  N   UNL     1      11.321  13.614  19.620  0.00  0.00    +0.000 N 
ATOM     13  H   UNL     1      11.080  13.712  20.596  0.00  0.00    +0.000 HD
ATOM     14  H   UNL     1      11.450  14.465  19.090  0.00  0.00    +0.000 HD
BRANCH  11  15
ATOM     15  S   UNL     1      10.800  12.742  17.220  0.00  0.00    +0.000 S 
ATOM     16  H   UNL     1       9.474  12.582  17.098  0.00  0.00    +0.000 HD
ENDBRANCH  11  15
ENDBRANCH   9  10
ENDBRANCH   5   8
ENDBRANCH   1   2
BRANCH   1  17
ATOM     17  C   UNL     1       5.570   5.328  16.120  0.00  0.00    +0.000 C 
ATOM     18  O   UNL     1       5.292   5.448  14.932  0.00  0.00    +0.000 OA
BRANCH  17  28
ATOM     19  C   UNL     1       2.224   1.942  18.852  0.00  0.00    +0.000 C 
ATOM     20  C   UNL     1       3.071   2.901  19.712  0.00  0.00    +0.000 C 
ATOM     21  C   UNL     1       4.391   2.190  20.085  0.00  0.00    +0.000 C 
ATOM     22  C   UNL     1       2.337   3.238  21.024  0.00  0.00    +0.000 C 
ATOM     23  C   UNL     1       1.206   4.217  20.761  0.00  0.00    +0.000 C 
ATOM     24  O   UNL     1       1.683   5.461  20.249  0.00  0.00    +0.000 OA
ATOM     25  C   UNL     1       2.617   5.364  19.243  0.00  0.00    +0.000 A 
ATOM     26  C   UNL     1       2.875   6.548  18.545  0.00  0.00    +0.000 A 
ATOM     27  C   UNL     1       3.825   6.583  17.510  0.00  0.00    +0.000 A 
ATOM     28  C   UNL     1       4.523   5.419  17.182  0.00  0.00    +0.000 A 
ATOM     29  C   UNL     1       4.237   4.236  17.882  0.00  0.00    +0.000 A 
ATOM     30  C   UNL     1       3.306   4.191  18.939  0.00  0.00    +0.000 A 
ENDBRANCH  17  28
ENDBRANCH   1  17
TORSDOF 6
ENDMDL
MODEL 6
REMARK VINA RESULT:      -7.5      5.344      9.466
REMARK  Name = 
REMARK  8 active torsions:
REMARK  status: ('A' for Active; 'I' for Inactive)
REMARK    1  A    between atoms: C_1  and  C_2
REMARK    2  A    between atoms: C_2  and  C_3
REMARK    3  A    between atoms: C_10  and  C_11
REMARK    4  A    between atoms: C_11  and  O_13
REMARK    5  A    between atoms: O_13  and  C_14
REMARK    6  A    between atoms: C_17  and  C_18
REMARK    7  A    between atoms: N_19  and  N_20
REMARK    8  A    between atoms: C_21  and  S_23
REMARK                            x       y       z     vdW  Elec       q    Type
REMARK                         _______ _______ _______ _____ _____    ______ ____
ROOT
ATOM      1  O   UNL     1       2.528   6.885  19.269  0.00  0.00    +0.000 OA
ENDROOT
BRANCH   1   2
ATOM      2  C   UNL     1       3.333   6.240  18.302  0.00  0.00    +0.000 A 
ATOM      3  C   UNL     1       3.066   4.931  17.894  0.00  0.00    +0.000 A 
ATOM      4  C   UNL     1       3.875   4.314  16.938  0.00  0.00    +0.000 A 
ATOM      5  C   UNL     1       4.928   5.021  16.355  0.00  0.00    +0.000 A 
ATOM      6  C   UNL     1       5.151   6.359  16.705  0.00  0.00    +0.000 A 
ATOM      7  C   UNL     1       4.350   6.972  17.684  0.00  0.00    +0.000 A 
BRANCH   5   8
ATOM      8  C   UNL     1       5.824   4.349  15.385  0.00  0.00    +0.000 C 
ATOM      9  N   UNL     1       5.540   4.310  14.119  0.00  0.00    +0.000 NA
BRANCH   9  10
ATOM     10  N   UNL     1       6.510   3.616  13.386  0.00  0.00    +0.000 NA
ATOM     11  C   UNL     1       6.078   3.092  12.275  0.00  0.00    +0.000 C 
ATOM     12  N   UNL     1       6.871   2.365  11.444  0.00  0.00    +0.000 N 
ATOM     13  H   UNL     1       7.868   2.472  11.573  0.00  0.00    +0.000 HD
ATOM     14  H   UNL     1       6.541   2.241  10.496  0.00  0.00    +0.000 HD
BRANCH  11  15
ATOM     15  S   UNL     1       4.433   3.250  11.691  0.00  0.00    +0.000 S 
ATOM     16  H   UNL     1       4.643   2.411  10.667  0.00  0.00    +0.000 HD
ENDBRANCH  11  15
ENDBRANCH   9  10
ENDBRANCH   5   8
ENDBRANCH   1   2
BRANCH   1  17
ATOM     17  C   UNL     1       1.882   8.046  18.860  0.00  0.00    +0.000 C 
ATOM     18  O   UNL     1       1.835   8.483  17.716  0.00  0.00    +0.000 OA
BRANCH  17  28
ATOM     19  C   UNL     1      -0.015  13.091  19.894  0.00  0.00    +0.000 C 
ATOM     20  C   UNL     1      -0.944  11.924  20.282  0.00  0.00    +0.000 C 
ATOM     21  C   UNL     1      -1.877  11.621  19.089  0.00  0.00    +0.000 C 
ATOM     22  C   UNL     1      -1.832  12.316  21.479  0.00  0.00    +0.000 C 
ATOM     23  C   UNL     1      -1.021  12.308  22.763  0.00  0.00    +0.000 C 
ATOM     24  O   UNL     1      -0.508  11.010  23.065  0.00  0.00    +0.000 OA
ATOM     25  C   UNL     1       0.067  10.344  22.006  0.00  0.00    +0.000 A 
ATOM     26  C   UNL     1       0.818   9.214  22.343  0.00  0.00    +0.000 A 
ATOM     27  C   UNL     1       1.438   8.437  21.351  0.00  0.00    +0.000 A 
ATOM     28  C   UNL     1       1.293   8.797  20.009  0.00  0.00    +0.000 A 
ATOM     29  C   UNL     1       0.551   9.946  19.692  0.00  0.00    +0.000 A 
ATOM     30  C   UNL     1      -0.098  10.721  20.674  0.00  0.00    +0.000 A 
ENDBRANCH  17  28
ENDBRANCH   1  17
TORSDOF 6
ENDMDL
MODEL 7
REMARK VINA RESULT:      -7.4      4.651      6.935
REMARK  Name = 
REMARK  8 active torsions:
REMARK  status: ('A' for Active; 'I' for Inactive)
REMARK    1  A    between atoms: C_1  and  C_2
REMARK    2  A    between atoms: C_2  and  C_3
REMARK    3  A    between atoms: C_10  and  C_11
REMARK    4  A    between atoms: C_11  and  O_13
REMARK    5  A    between atoms: O_13  and  C_14
REMARK    6  A    between atoms: C_17  and  C_18
REMARK    7  A    between atoms: N_19  and  N_20
REMARK    8  A    between atoms: C_21  and  S_23
REMARK                            x       y       z     vdW  Elec       q    Type
REMARK                         _______ _______ _______ _____ _____    ______ ____
ROOT
ATOM      1  O   UNL     1       6.670   5.623  16.861  0.00  0.00    +0.000 OA
ENDROOT
BRANCH   1   2
ATOM      2  C   UNL     1       7.311   6.704  17.510  0.00  0.00    +0.000 A 
ATOM      3  C   UNL     1       8.057   6.509  18.675  0.00  0.00    +0.000 A 
ATOM      4  C   UNL     1       8.680   7.591  19.300  0.00  0.00    +0.000 A 
ATOM      5  C   UNL     1       8.596   8.865  18.735  0.00  0.00    +0.000 A 
ATOM      6  C   UNL     1       7.914   9.050  17.525  0.00  0.00    +0.000 A 
ATOM      7  C   UNL     1       7.268   7.965  16.910  0.00  0.00    +0.000 A 
BRANCH   5   8
ATOM      8  C   UNL     1       9.205  10.024  19.428  0.00  0.00    +0.000 C 
ATOM      9  N   UNL     1       9.787  10.977  18.764  0.00  0.00    +0.000 NA
BRANCH   9  10
ATOM     10  N   UNL     1      10.306  11.963  19.611  0.00  0.00    +0.000 NA
ATOM     11  C   UNL     1       9.871  13.167  19.372  0.00  0.00    +0.000 C 
ATOM     12  N   UNL     1      10.279  14.254  20.078  0.00  0.00    +0.000 N 
ATOM     13  H   UNL     1      10.720  14.067  20.968  0.00  0.00    +0.000 HD
ATOM     14  H   UNL     1       9.697  15.079  20.018  0.00  0.00    +0.000 HD
BRANCH  11  15
ATOM     15  S   UNL     1       8.702  13.557  18.125  0.00  0.00    +0.000 S 
ATOM     16  H   UNL     1       8.942  12.424  17.450  0.00  0.00    +0.000 HD
ENDBRANCH  11  15
ENDBRANCH   9  10
ENDBRANCH   5   8
ENDBRANCH   1   2
BRANCH   1  17
ATOM     17  C   UNL     1       5.408   5.879  16.336  0.00  0.00    +0.000 C 
ATOM     18  O   UNL     1       5.160   6.223  15.186  0.00  0.00    +0.000 OA
BRANCH  17  28
ATOM     19  C   UNL     1       2.308   1.968  18.620  0.00  0.00    +0.000 C 
ATOM     20  C   UNL     1       3.053   2.901  19.596  0.00  0.00    +0.000 C 
ATOM     21  C   UNL     1       4.421   2.268  19.934  0.00  0.00    +0.000 C 
ATOM     22  C   UNL     1       2.267   3.041  20.914  0.00  0.00    +0.000 C 
ATOM     23  C   UNL     1       1.062   3.945  20.717  0.00  0.00    +0.000 C 
ATOM     24  O   UNL     1       1.442   5.270  20.345  0.00  0.00    +0.000 OA
ATOM     25  C   UNL     1       2.401   5.353  19.362  0.00  0.00    +0.000 A 
ATOM     26  C   UNL     1       2.572   6.619  18.793  0.00  0.00    +0.000 A 
ATOM     27  C   UNL     1       3.535   6.837  17.794  0.00  0.00    +0.000 A 
ATOM     28  C   UNL     1       4.337   5.775  17.371  0.00  0.00    +0.000 A 
ATOM     29  C   UNL     1       4.138   4.507  17.941  0.00  0.00    +0.000 A 
ATOM     30  C   UNL     1       3.193   4.278  18.962  0.00  0.00    +0.000 A 
ENDBRANCH  17  28
ENDBRANCH   1  17
TORSDOF 6
ENDMDL
MODEL 8
REMARK VINA RESULT:      -7.2      3.389      4.656
REMARK  Name = 
REMARK  8 active torsions:
REMARK  status: ('A' for Active; 'I' for Inactive)
REMARK    1  A    between atoms: C_1  and  C_2
REMARK    2  A    between atoms: C_2  and  C_3
REMARK    3  A    between atoms: C_10  and  C_11
REMARK    4  A    between atoms: C_11  and  O_13
REMARK    5  A    between atoms: O_13  and  C_14
REMARK    6  A    between atoms: C_17  and  C_18
REMARK    7  A    between atoms: N_19  and  N_20
REMARK    8  A    between atoms: C_21  and  S_23
REMARK                            x       y       z     vdW  Elec       q    Type
REMARK                         _______ _______ _______ _____ _____    ______ ____
ROOT
ATOM      1  O   UNL     1       1.376   9.852  19.021  0.00  0.00    +0.000 OA
ENDROOT
BRANCH   1   2
ATOM      2  C   UNL     1       0.063  10.221  18.647  0.00  0.00    +0.000 A 
ATOM      3  C   UNL     1      -0.575   9.620  17.559  0.00  0.00    +0.000 A 
ATOM      4  C   UNL     1      -1.871  10.001  17.207  0.00  0.00    +0.000 A 
ATOM      5  C   UNL     1      -2.550  10.953  17.970  0.00  0.00    +0.000 A 
ATOM      6  C   UNL     1      -1.942  11.500  19.108  0.00  0.00    +0.000 A 
ATOM      7  C   UNL     1      -0.629  11.132  19.448  0.00  0.00    +0.000 A 
BRANCH   5   8
ATOM      8  C   UNL     1      -3.901  11.403  17.563  0.00  0.00    +0.000 C 
ATOM      9  N   UNL     1      -4.893  11.403  18.402  0.00  0.00    +0.000 NA
BRANCH   9  10
ATOM     10  N   UNL     1      -6.080  11.850  17.808  0.00  0.00    +0.000 NA
ATOM     11  C   UNL     1      -6.734  12.735  18.504  0.00  0.00    +0.000 C 
ATOM     12  N   UNL     1      -7.916  13.268  18.097  0.00  0.00    +0.000 N 
ATOM     13  H   UNL     1      -8.139  13.163  17.117  0.00  0.00    +0.000 HD
ATOM     14  H   UNL     1      -8.204  14.128  18.544  0.00  0.00    +0.000 HD
BRANCH  11  15
ATOM     15  S   UNL     1      -6.189  13.369  20.044  0.00  0.00    +0.000 S 
ATOM     16  H   UNL     1      -7.339  13.056  20.658  0.00  0.00    +0.000 HD
ENDBRANCH  11  15
ENDBRANCH   9  10
ENDBRANCH   5   8
ENDBRANCH   1   2
BRANCH   1  17
ATOM     17  C   UNL     1       1.979   8.858  18.259  0.00  0.00    +0.000 C 
ATOM     18  O   UNL     1       2.323   8.954  17.086  0.00  0.00    +0.000 OA
BRANCH  17  28
ATOM     19  C   UNL     1       2.627   3.527  17.126  0.00  0.00    +0.000 C 
ATOM     20  C   UNL     1       3.606   4.126  18.156  0.00  0.00    +0.000 C 
ATOM     21  C   UNL     1       4.862   4.624  17.408  0.00  0.00    +0.000 C 
ATOM     22  C   UNL     1       4.058   3.049  19.160  0.00  0.00    +0.000 C 
ATOM     23  C   UNL     1       2.947   2.750  20.151  0.00  0.00    +0.000 C 
ATOM     24  O   UNL     1       2.605   3.894  20.933  0.00  0.00    +0.000 OA
ATOM     25  C   UNL     1       2.458   5.067  20.227  0.00  0.00    +0.000 A 
ATOM     26  C   UNL     1       1.852   6.117  20.924  0.00  0.00    +0.000 A 
ATOM     27  C   UNL     1       1.665   7.371  20.319  0.00  0.00    +0.000 A 
ATOM     28  C   UNL     1       2.099   7.570  19.007  0.00  0.00    +0.000 A 
ATOM     29  C   UNL     1       2.689   6.499  18.318  0.00  0.00    +0.000 A 
ATOM     30  C   UNL     1       2.907   5.242  18.919  0.00  0.00    +0.000 A 
ENDBRANCH  17  28
ENDBRANCH   1  17
TORSDOF 6
ENDMDL
MODEL 9
REMARK VINA RESULT:      -7.2      5.475     10.382
REMARK  Name = 
REMARK  8 active torsions:
REMARK  status: ('A' for Active; 'I' for Inactive)
REMARK    1  A    between atoms: C_1  and  C_2
REMARK    2  A    between atoms: C_2  and  C_3
REMARK    3  A    between atoms: C_10  and  C_11
REMARK    4  A    between atoms: C_11  and  O_13
REMARK    5  A    between atoms: O_13  and  C_14
REMARK    6  A    between atoms: C_17  and  C_18
REMARK    7  A    between atoms: N_19  and  N_20
REMARK    8  A    between atoms: C_21  and  S_23
REMARK                            x       y       z     vdW  Elec       q    Type
REMARK                         _______ _______ _______ _____ _____    ______ ____
ROOT
ATOM      1  O   UNL     1       0.866  10.951  19.596  0.00  0.00    +0.000 OA
ENDROOT
BRANCH   1   2
ATOM      2  C   UNL     1       1.402   9.687  19.262  0.00  0.00    +0.000 A 
ATOM      3  C   UNL     1       1.972   9.450  18.008  0.00  0.00    +0.000 A 
ATOM      4  C   UNL     1       2.495   8.193  17.700  0.00  0.00    +0.000 A 
ATOM      5  C   UNL     1       2.489   7.180  18.661  0.00  0.00    +0.000 A 
ATOM      6  C   UNL     1       1.989   7.438  19.944  0.00  0.00    +0.000 A 
ATOM      7  C   UNL     1       1.443   8.696  20.246  0.00  0.00    +0.000 A 
BRANCH   5   8
ATOM      8  C   UNL     1       2.987   5.829  18.316  0.00  0.00    +0.000 C 
ATOM      9  N   UNL     1       2.964   4.860  19.182  0.00  0.00    +0.000 NA
BRANCH   9  10
ATOM     10  N   UNL     1       3.494   3.676  18.656  0.00  0.00    +0.000 NA
ATOM     11  C   UNL     1       2.674   2.664  18.666  0.00  0.00    +0.000 C 
ATOM     12  N   UNL     1       3.021   1.429  18.214  0.00  0.00    +0.000 N 
ATOM     13  H   UNL     1       3.838   1.384  17.621  0.00  0.00    +0.000 HD
ATOM     14  H   UNL     1       2.262   0.796  18.001  0.00  0.00    +0.000 HD
BRANCH  11  15
ATOM     15  S   UNL     1       1.023   2.745  19.247  0.00  0.00    +0.000 S 
ATOM     16  H   UNL     1       1.214   3.938  19.827  0.00  0.00    +0.000 HD
ENDBRANCH  11  15
ENDBRANCH   9  10
ENDBRANCH   5   8
ENDBRANCH   1   2
BRANCH   1  17
ATOM     17  C   UNL     1      -0.501  11.116  19.396  0.00  0.00    +0.000 C 
ATOM     18  O   UNL     1      -1.086  11.057  18.321  0.00  0.00    +0.000 OA
BRANCH  17  28
ATOM     19  C   UNL     1      -4.182  14.816  21.092  0.00  0.00    +0.000 C 
ATOM     20  C   UNL     1      -4.497  13.344  21.424  0.00  0.00    +0.000 C 
ATOM     21  C   UNL     1      -5.348  12.754  20.278  0.00  0.00    +0.000 C 
ATOM     22  C   UNL     1      -5.327  13.248  22.718  0.00  0.00    +0.000 C 
ATOM     23  C   UNL     1      -4.448  13.500  23.930  0.00  0.00    +0.000 C 
ATOM     24  O   UNL     1      -3.415  12.522  24.055  0.00  0.00    +0.000 OA
ATOM     25  C   UNL     1      -2.738  12.229  22.893  0.00  0.00    +0.000 A 
ATOM     26  C   UNL     1      -1.556  11.501  23.053  0.00  0.00    +0.000 A 
ATOM     27  C   UNL     1      -0.785  11.122  21.940  0.00  0.00    +0.000 A 
ATOM     28  C   UNL     1      -1.214  11.473  20.659  0.00  0.00    +0.000 A 
ATOM     29  C   UNL     1      -2.395  12.221  20.520  0.00  0.00    +0.000 A 
ATOM     30  C   UNL     1      -3.191  12.586  21.624  0.00  0.00    +0.000 A 
ENDBRANCH  17  28
ENDBRANCH   1  17
TORSDOF 6
ENDMDL
