MODEL 1
REMARK VINA RESULT:      -7.3      0.000      0.000
REMARK  Name = 
REMARK  5 active torsions:
REMARK  status: ('A' for Active; 'I' for Inactive)
REMARK    1  A    between atoms: C_2  and  O_3
REMARK    2  A    between atoms: C_2  and  C_4
REMARK    3  A    between atoms: C_6  and  C_7
REMARK    4  A    between atoms: C_7  and  C_8
REMARK    5  A    between atoms: C_8  and  C_9
REMARK                            x       y       z     vdW  Elec       q    Type
REMARK                         _______ _______ _______ _____ _____    ______ ____
ROOT
ATOM      1  C   UNL     1       6.367   4.028  13.744  0.00  0.00    +0.000 A 
ATOM      2  C   UNL     1       6.111   3.736  15.066  0.00  0.00    +0.000 A 
ATOM      3  C   UNL     1       6.853   4.661  15.821  0.00  0.00    +0.000 A 
ATOM      4  N   UNL     1       7.559   5.472  15.025  0.00  0.00    +0.000 NA
ATOM      5  N   UNL     1       7.226   5.096  13.774  0.00  0.00    +0.000 N 
ATOM      6  H   UNL     1       7.587   5.643  12.998  0.00  0.00    +0.000 HD
ENDROOT
BRANCH   1   8
ATOM      7  O   UNL     1       4.731   3.562  12.098  0.00  0.00    +0.000 OA
ATOM      8  C   UNL     1       5.845   3.417  12.543  0.00  0.00    +0.000 C 
BRANCH   8   9
ATOM      9  O   UNL     1       6.767   2.602  11.965  0.00  0.00    +0.000 OA
ATOM     10  H   UNL     1       7.044   2.878  11.079  0.00  0.00    +0.000 HD
ENDBRANCH   8   9
ENDBRANCH   1   8
BRANCH   3  11
ATOM     11  C   UNL     1       6.898   4.810  17.308  0.00  0.00    +0.000 C 
BRANCH  11  12
ATOM     12  C   UNL     1       5.715   5.625  17.841  0.00  0.00    +0.000 C 
BRANCH  12  13
ATOM     13  C   UNL     1       4.441   4.852  18.099  0.00  0.00    +0.000 A 
ATOM     14  C   UNL     1       3.185   5.348  17.725  0.00  0.00    +0.000 A 
ATOM     15  C   UNL     1       2.031   4.587  17.931  0.00  0.00    +0.000 A 
ATOM     16  C   UNL     1       2.127   3.319  18.499  0.00  0.00    +0.000 A 
ATOM     17 CL   UNL     1       0.705   2.383  18.752  0.00  0.00    +0.000 Cl
ATOM     18  C   UNL     1       3.368   2.801  18.856  0.00  0.00    +0.000 A 
ATOM     19  C   UNL     1       4.520   3.563  18.653  0.00  0.00    +0.000 A 
ENDBRANCH  12  13
ENDBRANCH  11  12
ENDBRANCH   3  11
TORSDOF 5
ENDMDL
MODEL 2
REMARK VINA RESULT:      -7.1      0.442      1.212
REMARK  Name = 
REMARK  5 active torsions:
REMARK  status: ('A' for Active; 'I' for Inactive)
REMARK    1  A    between atoms: C_2  and  O_3
REMARK    2  A    between atoms: C_2  and  C_4
REMARK    3  A    between atoms: C_6  and  C_7
REMARK    4  A    between atoms: C_7  and  C_8
REMARK    5  A    between atoms: C_8  and  C_9
REMARK                            x       y       z     vdW  Elec       q    Type
REMARK                         _______ _______ _______ _____ _____    ______ ____
ROOT
ATOM      1  C   UNL     1       6.433   3.969  13.452  0.00  0.00    +0.000 A 
ATOM      2  C   UNL     1       6.039   3.798  14.762  0.00  0.00    +0.000 A 
ATOM      3  C   UNL     1       6.734   4.764  15.508  0.00  0.00    +0.000 A 
ATOM      4  N   UNL     1       7.543   5.485  14.724  0.00  0.00    +0.000 NA
ATOM      5  N   UNL     1       7.321   5.012  13.481  0.00  0.00    +0.000 N 
ATOM      6  H   UNL     1       7.776   5.482  12.702  0.00  0.00    +0.000 HD
ENDROOT
BRANCH   1   8
ATOM      7  O   UNL     1       4.903   3.296  11.776  0.00  0.00    +0.000 OA
ATOM      8  C   UNL     1       6.010   3.272  12.259  0.00  0.00    +0.000 C 
BRANCH   8   9
ATOM      9  O   UNL     1       7.023   2.529  11.739  0.00  0.00    +0.000 OA
ATOM     10  H   UNL     1       6.761   1.958  11.002  0.00  0.00    +0.000 HD
ENDBRANCH   8   9
ENDBRANCH   1   8
BRANCH   3  11
ATOM     11  C   UNL     1       6.639   5.038  16.975  0.00  0.00    +0.000 C 
BRANCH  11  12
ATOM     12  C   UNL     1       5.333   5.750  17.344  0.00  0.00    +0.000 C 
BRANCH  12  13
ATOM     13  C   UNL     1       4.156   4.854  17.658  0.00  0.00    +0.000 A 
ATOM     14  C   UNL     1       4.309   3.476  17.864  0.00  0.00    +0.000 A 
ATOM     15  C   UNL     1       3.209   2.683  18.205  0.00  0.00    +0.000 A 
ATOM     16  C   UNL     1       1.953   3.264  18.356  0.00  0.00    +0.000 A 
ATOM     17 CL   UNL     1       0.600   2.286  18.774  0.00  0.00    +0.000 Cl
ATOM     18  C   UNL     1       1.787   4.634  18.178  0.00  0.00    +0.000 A 
ATOM     19  C   UNL     1       2.884   5.426  17.834  0.00  0.00    +0.000 A 
ENDBRANCH  12  13
ENDBRANCH  11  12
ENDBRANCH   3  11
TORSDOF 5
ENDMDL
MODEL 3
REMARK VINA RESULT:      -7.1      0.919      1.161
REMARK  Name = 
REMARK  5 active torsions:
REMARK  status: ('A' for Active; 'I' for Inactive)
REMARK    1  A    between atoms: C_2  and  O_3
REMARK    2  A    between atoms: C_2  and  C_4
REMARK    3  A    between atoms: C_6  and  C_7
REMARK    4  A    between atoms: C_7  and  C_8
REMARK    5  A    between atoms: C_8  and  C_9
REMARK                            x       y       z     vdW  Elec       q    Type
REMARK                         _______ _______ _______ _____ _____    ______ ____
ROOT
ATOM      1  C   UNL     1       6.378   4.008  13.603  0.00  0.00    +0.000 A 
ATOM      2  C   UNL     1       6.036   3.816  14.924  0.00  0.00    +0.000 A 
ATOM      3  C   UNL     1       6.775   4.759  15.659  0.00  0.00    +0.000 A 
ATOM      4  N   UNL     1       7.560   5.484  14.856  0.00  0.00    +0.000 NA
ATOM      5  N   UNL     1       7.281   5.039  13.614  0.00  0.00    +0.000 N 
ATOM      6  H   UNL     1       7.710   5.518  12.827  0.00  0.00    +0.000 HD
ENDROOT
BRANCH   1   8
ATOM      7  O   UNL     1       4.788   3.433  11.946  0.00  0.00    +0.000 OA
ATOM      8  C   UNL     1       5.898   3.340  12.415  0.00  0.00    +0.000 C 
BRANCH   8   9
ATOM      9  O   UNL     1       6.855   2.535  11.882  0.00  0.00    +0.000 OA
ATOM     10  H   UNL     1       7.537   3.005  11.380  0.00  0.00    +0.000 HD
ENDBRANCH   8   9
ENDBRANCH   1   8
BRANCH   3  11
ATOM     11  C   UNL     1       6.743   5.005  17.134  0.00  0.00    +0.000 C 
BRANCH  11  12
ATOM     12  C   UNL     1       5.610   5.957  17.534  0.00  0.00    +0.000 C 
BRANCH  12  13
ATOM     13  C   UNL     1       4.405   5.315  18.184  0.00  0.00    +0.000 A 
ATOM     14  C   UNL     1       4.164   5.420  19.561  0.00  0.00    +0.000 A 
ATOM     15  C   UNL     1       3.013   4.859  20.124  0.00  0.00    +0.000 A 
ATOM     16  C   UNL     1       2.090   4.203  19.313  0.00  0.00    +0.000 A 
ATOM     17 CL   UNL     1       0.675   3.513  20.007  0.00  0.00    +0.000 Cl
ATOM     18  C   UNL     1       2.303   4.111  17.941  0.00  0.00    +0.000 A 
ATOM     19  C   UNL     1       3.453   4.667  17.379  0.00  0.00    +0.000 A 
ENDBRANCH  12  13
ENDBRANCH  11  12
ENDBRANCH   3  11
TORSDOF 5
ENDMDL
MODEL 4
REMARK VINA RESULT:      -7.0      1.180      1.550
REMARK  Name = 
REMARK  5 active torsions:
REMARK  status: ('A' for Active; 'I' for Inactive)
REMARK    1  A    between atoms: C_2  and  O_3
REMARK    2  A    between atoms: C_2  and  C_4
REMARK    3  A    between atoms: C_6  and  C_7
REMARK    4  A    between atoms: C_7  and  C_8
REMARK    5  A    between atoms: C_8  and  C_9
REMARK                            x       y       z     vdW  Elec       q    Type
REMARK                         _______ _______ _______ _____ _____    ______ ____
ROOT
ATOM      1  C   UNL     1       6.323   4.115  13.928  0.00  0.00    +0.000 A 
ATOM      2  C   UNL     1       5.993   3.803  15.229  0.00  0.00    +0.000 A 
ATOM      3  C   UNL     1       6.689   4.715  16.039  0.00  0.00    +0.000 A 
ATOM      4  N   UNL     1       7.440   5.537  15.298  0.00  0.00    +0.000 NA
ATOM      5  N   UNL     1       7.179   5.181  14.024  0.00  0.00    +0.000 N 
ATOM      6  H   UNL     1       7.585   5.741  13.278  0.00  0.00    +0.000 HD
ENDROOT
BRANCH   1   8
ATOM      7  O   UNL     1       4.762   3.617  12.220  0.00  0.00    +0.000 OA
ATOM      8  C   UNL     1       5.871   3.524  12.689  0.00  0.00    +0.000 C 
BRANCH   8   9
ATOM      9  O   UNL     1       6.857   2.792  12.105  0.00  0.00    +0.000 OA
ATOM     10  H   UNL     1       7.457   3.308  11.546  0.00  0.00    +0.000 HD
ENDBRANCH   8   9
ENDBRANCH   1   8
BRANCH   3  11
ATOM     11  C   UNL     1       6.650   4.840  17.528  0.00  0.00    +0.000 C 
BRANCH  11  12
ATOM     12  C   UNL     1       5.443   5.655  18.005  0.00  0.00    +0.000 C 
BRANCH  12  13
ATOM     13  C   UNL     1       4.413   4.900  18.816  0.00  0.00    +0.000 A 
ATOM     14  C   UNL     1       4.377   3.499  18.847  0.00  0.00    +0.000 A 
ATOM     15  C   UNL     1       3.445   2.831  19.646  0.00  0.00    +0.000 A 
ATOM     16  C   UNL     1       2.553   3.558  20.431  0.00  0.00    +0.000 A 
ATOM     17 CL   UNL     1       1.407   2.734  21.414  0.00  0.00    +0.000 Cl
ATOM     18  C   UNL     1       2.590   4.949  20.430  0.00  0.00    +0.000 A 
ATOM     19  C   UNL     1       3.518   5.617  19.628  0.00  0.00    +0.000 A 
ENDBRANCH  12  13
ENDBRANCH  11  12
ENDBRANCH   3  11
TORSDOF 5
ENDMDL
MODEL 5
REMARK VINA RESULT:      -6.9      1.434      1.876
REMARK  Name = 
REMARK  5 active torsions:
REMARK  status: ('A' for Active; 'I' for Inactive)
REMARK    1  A    between atoms: C_2  and  O_3
REMARK    2  A    between atoms: C_2  and  C_4
REMARK    3  A    between atoms: C_6  and  C_7
REMARK    4  A    between atoms: C_7  and  C_8
REMARK    5  A    between atoms: C_8  and  C_9
REMARK                            x       y       z     vdW  Elec       q    Type
REMARK                         _______ _______ _______ _____ _____    ______ ____
ROOT
ATOM      1  C   UNL     1       6.358   3.945  13.322  0.00  0.00    +0.000 A 
ATOM      2  C   UNL     1       6.080   3.943  14.672  0.00  0.00    +0.000 A 
ATOM      3  C   UNL     1       6.938   4.895  15.249  0.00  0.00    +0.000 A 
ATOM      4  N   UNL     1       7.732   5.446  14.326  0.00  0.00    +0.000 NA
ATOM      5  N   UNL     1       7.344   4.884  13.163  0.00  0.00    +0.000 N 
ATOM      6  H   UNL     1       7.764   5.225  12.303  0.00  0.00    +0.000 HD
ENDROOT
BRANCH   1   8
ATOM      7  O   UNL     1       4.663   3.383  11.769  0.00  0.00    +0.000 OA
ATOM      8  C   UNL     1       5.754   3.187  12.251  0.00  0.00    +0.000 C 
BRANCH   8   9
ATOM      9  O   UNL     1       6.561   2.169  11.853  0.00  0.00    +0.000 OA
ATOM     10  H   UNL     1       6.280   1.734  11.034  0.00  0.00    +0.000 HD
ENDBRANCH   8   9
ENDBRANCH   1   8
BRANCH   3  11
ATOM     11  C   UNL     1       7.015   5.316  16.682  0.00  0.00    +0.000 C 
BRANCH  11  12
ATOM     12  C   UNL     1       6.022   6.438  17.006  0.00  0.00    +0.000 C 
BRANCH  12  13
ATOM     13  C   UNL     1       4.848   6.051  17.877  0.00  0.00    +0.000 A 
ATOM     14  C   UNL     1       4.955   5.069  18.871  0.00  0.00    +0.000 A 
ATOM     15  C   UNL     1       3.865   4.770  19.694  0.00  0.00    +0.000 A 
ATOM     16  C   UNL     1       2.666   5.461  19.538  0.00  0.00    +0.000 A 
ATOM     17 CL   UNL     1       1.325   5.092  20.552  0.00  0.00    +0.000 Cl
ATOM     18  C   UNL     1       2.549   6.456  18.572  0.00  0.00    +0.000 A 
ATOM     19  C   UNL     1       3.636   6.751  17.748  0.00  0.00    +0.000 A 
ENDBRANCH  12  13
ENDBRANCH  11  12
ENDBRANCH   3  11
TORSDOF 5
ENDMDL
MODEL 6
REMARK VINA RESULT:      -6.8      1.453      1.757
REMARK  Name = 
REMARK  5 active torsions:
REMARK  status: ('A' for Active; 'I' for Inactive)
REMARK    1  A    between atoms: C_2  and  O_3
REMARK    2  A    between atoms: C_2  and  C_4
REMARK    3  A    between atoms: C_6  and  C_7
REMARK    4  A    between atoms: C_7  and  C_8
REMARK    5  A    between atoms: C_8  and  C_9
REMARK                            x       y       z     vdW  Elec       q    Type
REMARK                         _______ _______ _______ _____ _____    ______ ____
ROOT
ATOM      1  C   UNL     1       6.689   4.572  14.019  0.00  0.00    +0.000 A 
ATOM      2  C   UNL     1       5.637   4.463  14.902  0.00  0.00    +0.000 A 
ATOM      3  C   UNL     1       5.992   5.222  16.029  0.00  0.00    +0.000 A 
ATOM      4  N   UNL     1       7.209   5.756  15.883  0.00  0.00    +0.000 NA
ATOM      5  N   UNL     1       7.600   5.381  14.648  0.00  0.00    +0.000 N 
ATOM      6  H   UNL     1       8.475   5.752  14.289  0.00  0.00    +0.000 HD
ENDROOT
BRANCH   1   8
ATOM      7  O   UNL     1       7.450   4.533  11.778  0.00  0.00    +0.000 OA
ATOM      8  C   UNL     1       6.846   4.023  12.692  0.00  0.00    +0.000 C 
BRANCH   8   9
ATOM      9  O   UNL     1       6.185   2.841  12.567  0.00  0.00    +0.000 OA
ATOM     10  H   UNL     1       5.698   2.571  13.360  0.00  0.00    +0.000 HD
ENDBRANCH   8   9
ENDBRANCH   1   8
BRANCH   3  11
ATOM     11  C   UNL     1       5.184   5.472  17.262  0.00  0.00    +0.000 C 
BRANCH  11  12
ATOM     12  C   UNL     1       3.762   4.915  17.141  0.00  0.00    +0.000 C 
BRANCH  12  13
ATOM     13  C   UNL     1       3.175   4.317  18.400  0.00  0.00    +0.000 A 
ATOM     14  C   UNL     1       1.875   4.619  18.828  0.00  0.00    +0.000 A 
ATOM     15  C   UNL     1       1.344   4.009  19.968  0.00  0.00    +0.000 A 
ATOM     16  C   UNL     1       2.103   3.083  20.679  0.00  0.00    +0.000 A 
ATOM     17 CL   UNL     1       1.447   2.333  22.082  0.00  0.00    +0.000 Cl
ATOM     18  C   UNL     1       3.386   2.753  20.255  0.00  0.00    +0.000 A 
ATOM     19  C   UNL     1       3.919   3.365  19.119  0.00  0.00    +0.000 A 
ENDBRANCH  12  13
ENDBRANCH  11  12
ENDBRANCH   3  11
TORSDOF 5
ENDMDL
MODEL 7
REMARK VINA RESULT:      -6.8      1.315      1.879
REMARK  Name = 
REMARK  5 active torsions:
REMARK  status: ('A' for Active; 'I' for Inactive)
REMARK    1  A    between atoms: C_2  and  O_3
REMARK    2  A    between atoms: C_2  and  C_4
REMARK    3  A    between atoms: C_6  and  C_7
REMARK    4  A    between atoms: C_7  and  C_8
REMARK    5  A    between atoms: C_8  and  C_9
REMARK                            x       y       z     vdW  Elec       q    Type
REMARK                         _______ _______ _______ _____ _____    ______ ____
ROOT
ATOM      1  C   UNL     1       6.384   4.373  13.996  0.00  0.00    +0.000 A 
ATOM      2  C   UNL     1       5.547   4.448  15.088  0.00  0.00    +0.000 A 
ATOM      3  C   UNL     1       6.196   5.273  16.023  0.00  0.00    +0.000 A 
ATOM      4  N   UNL     1       7.387   5.672  15.563  0.00  0.00    +0.000 NA
ATOM      5  N   UNL     1       7.467   5.146  14.324  0.00  0.00    +0.000 N 
ATOM      6  H   UNL     1       8.267   5.397  13.749  0.00  0.00    +0.000 HD
ENDROOT
BRANCH   1   8
ATOM      7  O   UNL     1       7.083   3.337  11.987  0.00  0.00    +0.000 OA
ATOM      8  C   UNL     1       6.204   3.689  12.736  0.00  0.00    +0.000 C 
BRANCH   8   9
ATOM      9  O   UNL     1       4.885   3.511  12.458  0.00  0.00    +0.000 OA
ATOM     10  H   UNL     1       4.643   2.597  12.246  0.00  0.00    +0.000 HD
ENDBRANCH   8   9
ENDBRANCH   1   8
BRANCH   3  11
ATOM     11  C   UNL     1       5.700   5.714  17.363  0.00  0.00    +0.000 C 
BRANCH  11  12
ATOM     12  C   UNL     1       4.173   5.843  17.397  0.00  0.00    +0.000 C 
BRANCH  12  13
ATOM     13  C   UNL     1       3.461   5.010  18.438  0.00  0.00    +0.000 A 
ATOM     14  C   UNL     1       3.712   3.639  18.588  0.00  0.00    +0.000 A 
ATOM     15  C   UNL     1       3.075   2.906  19.594  0.00  0.00    +0.000 A 
ATOM     16  C   UNL     1       2.196   3.543  20.467  0.00  0.00    +0.000 A 
ATOM     17 CL   UNL     1       1.413   2.640  21.705  0.00  0.00    +0.000 Cl
ATOM     18  C   UNL     1       1.953   4.908  20.348  0.00  0.00    +0.000 A 
ATOM     19  C   UNL     1       2.585   5.638  19.340  0.00  0.00    +0.000 A 
ENDBRANCH  12  13
ENDBRANCH  11  12
ENDBRANCH   3  11
TORSDOF 5
ENDMDL
MODEL 8
REMARK VINA RESULT:      -6.7      1.518      1.618
REMARK  Name = 
REMARK  5 active torsions:
REMARK  status: ('A' for Active; 'I' for Inactive)
REMARK    1  A    between atoms: C_2  and  O_3
REMARK    2  A    between atoms: C_2  and  C_4
REMARK    3  A    between atoms: C_6  and  C_7
REMARK    4  A    between atoms: C_7  and  C_8
REMARK    5  A    between atoms: C_8  and  C_9
REMARK                            x       y       z     vdW  Elec       q    Type
REMARK                         _______ _______ _______ _____ _____    ______ ____
ROOT
ATOM      1  C   UNL     1       6.525   4.565  14.043  0.00  0.00    +0.000 A 
ATOM      2  C   UNL     1       5.446   4.845  14.851  0.00  0.00    +0.000 A 
ATOM      3  C   UNL     1       5.950   5.585  15.935  0.00  0.00    +0.000 A 
ATOM      4  N   UNL     1       7.274   5.739  15.834  0.00  0.00    +0.000 NA
ATOM      5  N   UNL     1       7.599   5.145  14.667  0.00  0.00    +0.000 N 
ATOM      6  H   UNL     1       8.560   5.218  14.344  0.00  0.00    +0.000 HD
ENDROOT
BRANCH   1   8
ATOM      7  O   UNL     1       6.010   2.830  12.517  0.00  0.00    +0.000 OA
ATOM      8  C   UNL     1       6.581   3.862  12.782  0.00  0.00    +0.000 C 
BRANCH   8   9
ATOM      9  O   UNL     1       7.404   4.493  11.903  0.00  0.00    +0.000 OA
ATOM     10  H   UNL     1       7.009   4.656  11.033  0.00  0.00    +0.000 HD
ENDBRANCH   8   9
ENDBRANCH   1   8
BRANCH   3  11
ATOM     11  C   UNL     1       5.190   6.176  17.079  0.00  0.00    +0.000 C 
BRANCH  11  12
ATOM     12  C   UNL     1       5.630   5.589  18.425  0.00  0.00    +0.000 C 
BRANCH  12  13
ATOM     13  C   UNL     1       4.554   4.890  19.225  0.00  0.00    +0.000 A 
ATOM     14  C   UNL     1       3.474   5.589  19.783  0.00  0.00    +0.000 A 
ATOM     15  C   UNL     1       2.468   4.906  20.475  0.00  0.00    +0.000 A 
ATOM     16  C   UNL     1       2.528   3.521  20.600  0.00  0.00    +0.000 A 
ATOM     17 CL   UNL     1       1.289   2.683  21.451  0.00  0.00    +0.000 Cl
ATOM     18  C   UNL     1       3.580   2.809  20.032  0.00  0.00    +0.000 A 
ATOM     19  C   UNL     1       4.586   3.490  19.346  0.00  0.00    +0.000 A 
ENDBRANCH  12  13
ENDBRANCH  11  12
ENDBRANCH   3  11
TORSDOF 5
ENDMDL
MODEL 9
REMARK VINA RESULT:      -6.7      4.327      5.330
REMARK  Name = 
REMARK  5 active torsions:
REMARK  status: ('A' for Active; 'I' for Inactive)
REMARK    1  A    between atoms: C_2  and  O_3
REMARK    2  A    between atoms: C_2  and  C_4
REMARK    3  A    between atoms: C_6  and  C_7
REMARK    4  A    between atoms: C_7  and  C_8
REMARK    5  A    between atoms: C_8  and  C_9
REMARK                            x       y       z     vdW  Elec       q    Type
REMARK                         _______ _______ _______ _____ _____    ______ ____
ROOT
ATOM      1  C   UNL     1       6.011   4.520  17.408  0.00  0.00    +0.000 A 
ATOM      2  C   UNL     1       4.845   5.210  17.159  0.00  0.00    +0.000 A 
ATOM      3  C   UNL     1       3.954   4.855  18.186  0.00  0.00    +0.000 A 
ATOM      4  N   UNL     1       4.512   3.970  19.019  0.00  0.00    +0.000 NA
ATOM      5  N   UNL     1       5.766   3.806  18.552  0.00  0.00    +0.000 N 
ATOM      6  H   UNL     1       6.406   3.230  19.091  0.00  0.00    +0.000 HD
ENDROOT
BRANCH   1   8
ATOM      7  O   UNL     1       7.427   4.881  15.546  0.00  0.00    +0.000 OA
ATOM      8  C   UNL     1       7.266   4.534  16.692  0.00  0.00    +0.000 C 
BRANCH   8   9
ATOM      9  O   UNL     1       8.279   4.061  17.466  0.00  0.00    +0.000 OA
ATOM     10  H   UNL     1       8.106   4.105  18.419  0.00  0.00    +0.000 HD
ENDBRANCH   8   9
ENDBRANCH   1   8
BRANCH   3  11
ATOM     11  C   UNL     1       2.563   5.355  18.412  0.00  0.00    +0.000 C 
BRANCH  11  12
ATOM     12  C   UNL     1       2.466   6.243  19.658  0.00  0.00    +0.000 C 
BRANCH  12  13
ATOM     13  C   UNL     1       2.028   7.671  19.420  0.00  0.00    +0.000 A 
ATOM     14  C   UNL     1       2.230   8.312  18.190  0.00  0.00    +0.000 A 
ATOM     15  C   UNL     1       1.768   9.616  17.985  0.00  0.00    +0.000 A 
ATOM     16  C   UNL     1       1.088  10.280  19.003  0.00  0.00    +0.000 A 
ATOM     17 CL   UNL     1       0.520  11.885  18.749  0.00  0.00    +0.000 Cl
ATOM     18  C   UNL     1       0.858   9.651  20.222  0.00  0.00    +0.000 A 
ATOM     19  C   UNL     1       1.323   8.350  20.428  0.00  0.00    +0.000 A 
ENDBRANCH  12  13
ENDBRANCH  11  12
ENDBRANCH   3  11
TORSDOF 5
ENDMDL
