MODEL 1
REMARK VINA RESULT:      -8.3      0.000      0.000
REMARK  Name = 
REMARK  8 active torsions:
REMARK  status: ('A' for Active; 'I' for Inactive)
REMARK    1  A    between atoms: C_1  and  C_2
REMARK    2  A    between atoms: C_2  and  O_3
REMARK    3  A    between atoms: O_3  and  C_4
REMARK    4  A    between atoms: C_4  and  C_6
REMARK    5  A    between atoms: C_15  and  N_16
REMARK    6  A    between atoms: N_16  and  C_17
REMARK    7  A    between atoms: C_21  and  C_22
REMARK    8  A    between atoms: C_22  and  O_24
REMARK                            x       y       z     vdW  Elec       q    Type
REMARK                         _______ _______ _______ _____ _____    ______ ____
ROOT
ATOM      1  C   UNL     1       4.667   5.210  17.966  0.00  0.00    +0.000 A 
ATOM      2  C   UNL     1       5.417   4.171  18.493  0.00  0.00    +0.000 A 
ATOM      3  N   UNL     1       4.974   3.321  19.443  0.00  0.00    +0.000 NA
ATOM      4  C   UNL     1       3.710   3.444  19.863  0.00  0.00    +0.000 A 
ATOM      5  C   UNL     1       3.275   2.552  20.834  0.00  0.00    +0.000 A 
ATOM      6  C   UNL     1       1.973   2.569  21.330  0.00  0.00    +0.000 A 
ATOM      7  C   UNL     1       1.056   3.454  20.793  0.00  0.00    +0.000 A 
ATOM      8  C   UNL     1       1.468   4.334  19.792  0.00  0.00    +0.000 A 
ATOM      9  C   UNL     1       2.819   4.421  19.360  0.00  0.00    +0.000 A 
ATOM     10  C   UNL     1       3.341   5.381  18.425  0.00  0.00    +0.000 A 
ENDROOT
BRANCH   1  11
ATOM     11  C   UNL     1       5.222   6.056  16.879  0.00  0.00    +0.000 C 
ATOM     12  O   UNL     1       5.219   5.727  15.701  0.00  0.00    +0.000 OA
BRANCH  11  13
ATOM     13  O   UNL     1       5.859   7.134  17.396  0.00  0.00    +0.000 OA
BRANCH  13  15
ATOM     14  C   UNL     1       7.821   8.451  17.695  0.00  0.00    +0.000 C 
ATOM     15  C   UNL     1       7.292   7.062  17.380  0.00  0.00    +0.000 C 
ENDBRANCH  13  15
ENDBRANCH  11  13
ENDBRANCH   1  11
BRANCH  10  16
ATOM     16  N   UNL     1       2.587   6.496  17.954  0.00  0.00    +0.000 N 
ATOM     17  H   UNL     1       2.497   6.531  16.931  0.00  0.00    +0.000 HD
BRANCH  16  18
ATOM     18  C   UNL     1       2.203   7.707  18.559  0.00  0.00    +0.000 A 
ATOM     19  C   UNL     1       1.981   8.816  17.736  0.00  0.00    +0.000 A 
ATOM     20  C   UNL     1       1.399   9.978  18.245  0.00  0.00    +0.000 A 
ATOM     21  C   UNL     1       1.015  10.030  19.588  0.00  0.00    +0.000 A 
ATOM     22  C   UNL     1       1.264   8.939  20.426  0.00  0.00    +0.000 A 
ATOM     23  C   UNL     1       1.910   7.807  19.920  0.00  0.00    +0.000 A 
BRANCH  22  24
ATOM     24  C   UNL     1       0.786   8.999  21.827  0.00  0.00    +0.000 C 
ATOM     25  O   UNL     1       1.468   9.434  22.741  0.00  0.00    +0.000 OA
BRANCH  24  26
ATOM     26  O   UNL     1      -0.492   8.600  21.994  0.00  0.00    +0.000 OA
ATOM     27  H   UNL     1      -0.816   7.936  21.360  0.00  0.00    +0.000 HD
ENDBRANCH  24  26
ENDBRANCH  22  24
ENDBRANCH  16  18
ENDBRANCH  10  16
TORSDOF 7
ENDMDL
MODEL 2
REMARK VINA RESULT:      -8.3      3.869      6.717
REMARK  Name = 
REMARK  8 active torsions:
REMARK  status: ('A' for Active; 'I' for Inactive)
REMARK    1  A    between atoms: C_1  and  C_2
REMARK    2  A    between atoms: C_2  and  O_3
REMARK    3  A    between atoms: O_3  and  C_4
REMARK    4  A    between atoms: C_4  and  C_6
REMARK    5  A    between atoms: C_15  and  N_16
REMARK    6  A    between atoms: N_16  and  C_17
REMARK    7  A    between atoms: C_21  and  C_22
REMARK    8  A    between atoms: C_22  and  O_24
REMARK                            x       y       z     vdW  Elec       q    Type
REMARK                         _______ _______ _______ _____ _____    ______ ____
ROOT
ATOM      1  C   UNL     1       6.063   5.121  18.437  0.00  0.00    +0.000 A 
ATOM      2  C   UNL     1       5.342   5.747  19.441  0.00  0.00    +0.000 A 
ATOM      3  N   UNL     1       4.025   5.554  19.663  0.00  0.00    +0.000 NA
ATOM      4  C   UNL     1       3.381   4.657  18.909  0.00  0.00    +0.000 A 
ATOM      5  C   UNL     1       2.028   4.470  19.162  0.00  0.00    +0.000 A 
ATOM      6  C   UNL     1       1.260   3.546  18.456  0.00  0.00    +0.000 A 
ATOM      7  C   UNL     1       1.872   2.734  17.519  0.00  0.00    +0.000 A 
ATOM      8  C   UNL     1       3.237   2.885  17.277  0.00  0.00    +0.000 A 
ATOM      9  C   UNL     1       4.014   3.904  17.892  0.00  0.00    +0.000 A 
ATOM     10  C   UNL     1       5.391   4.198  17.604  0.00  0.00    +0.000 A 
ENDROOT
BRANCH   1  11
ATOM     11  C   UNL     1       7.524   5.354  18.310  0.00  0.00    +0.000 C 
ATOM     12  O   UNL     1       8.336   4.456  18.130  0.00  0.00    +0.000 OA
BRANCH  11  13
ATOM     13  O   UNL     1       7.824   6.647  18.582  0.00  0.00    +0.000 OA
BRANCH  13  15
ATOM     14  C   UNL     1       8.174   8.911  17.931  0.00  0.00    +0.000 C 
ATOM     15  C   UNL     1       7.649   7.557  17.486  0.00  0.00    +0.000 C 
ENDBRANCH  13  15
ENDBRANCH  11  13
ENDBRANCH   1  11
BRANCH  10  16
ATOM     16  N   UNL     1       6.099   3.612  16.513  0.00  0.00    +0.000 N 
ATOM     17  H   UNL     1       6.825   2.945  16.804  0.00  0.00    +0.000 HD
BRANCH  16  18
ATOM     18  C   UNL     1       6.224   3.971  15.159  0.00  0.00    +0.000 A 
ATOM     19  C   UNL     1       7.234   4.870  14.802  0.00  0.00    +0.000 A 
ATOM     20  C   UNL     1       7.545   5.101  13.461  0.00  0.00    +0.000 A 
ATOM     21  C   UNL     1       6.852   4.413  12.461  0.00  0.00    +0.000 A 
ATOM     22  C   UNL     1       5.817   3.538  12.806  0.00  0.00    +0.000 A 
ATOM     23  C   UNL     1       5.470   3.368  14.149  0.00  0.00    +0.000 A 
BRANCH  22  24
ATOM     24  C   UNL     1       5.146   2.776  11.728  0.00  0.00    +0.000 C 
ATOM     25  O   UNL     1       4.169   3.196  11.128  0.00  0.00    +0.000 OA
BRANCH  24  26
ATOM     26  O   UNL     1       5.750   1.609  11.416  0.00  0.00    +0.000 OA
ATOM     27  H   UNL     1       6.710   1.576  11.565  0.00  0.00    +0.000 HD
ENDBRANCH  24  26
ENDBRANCH  22  24
ENDBRANCH  16  18
ENDBRANCH  10  16
TORSDOF 7
ENDMDL
MODEL 3
REMARK VINA RESULT:      -8.3      0.804      1.608
REMARK  Name = 
REMARK  8 active torsions:
REMARK  status: ('A' for Active; 'I' for Inactive)
REMARK    1  A    between atoms: C_1  and  C_2
REMARK    2  A    between atoms: C_2  and  O_3
REMARK    3  A    between atoms: O_3  and  C_4
REMARK    4  A    between atoms: C_4  and  C_6
REMARK    5  A    between atoms: C_15  and  N_16
REMARK    6  A    between atoms: N_16  and  C_17
REMARK    7  A    between atoms: C_21  and  C_22
REMARK    8  A    between atoms: C_22  and  O_24
REMARK                            x       y       z     vdW  Elec       q    Type
REMARK                         _______ _______ _______ _____ _____    ______ ____
ROOT
ATOM      1  C   UNL     1       4.815   5.379  18.095  0.00  0.00    +0.000 A 
ATOM      2  C   UNL     1       5.537   4.335  18.651  0.00  0.00    +0.000 A 
ATOM      3  N   UNL     1       5.027   3.440  19.523  0.00  0.00    +0.000 NA
ATOM      4  C   UNL     1       3.728   3.523  19.828  0.00  0.00    +0.000 A 
ATOM      5  C   UNL     1       3.226   2.585  20.721  0.00  0.00    +0.000 A 
ATOM      6  C   UNL     1       1.883   2.558  21.094  0.00  0.00    +0.000 A 
ATOM      7  C   UNL     1       1.000   3.446  20.507  0.00  0.00    +0.000 A 
ATOM      8  C   UNL     1       1.482   4.372  19.582  0.00  0.00    +0.000 A 
ATOM      9  C   UNL     1       2.866   4.501  19.281  0.00  0.00    +0.000 A 
ATOM     10  C   UNL     1       3.450   5.506  18.434  0.00  0.00    +0.000 A 
ENDROOT
BRANCH   1  11
ATOM     11  C   UNL     1       5.450   6.277  17.096  0.00  0.00    +0.000 C 
ATOM     12  O   UNL     1       5.963   7.349  17.385  0.00  0.00    +0.000 OA
BRANCH  11  13
ATOM     13  O   UNL     1       5.231   5.819  15.840  0.00  0.00    +0.000 OA
BRANCH  13  15
ATOM     14  C   UNL     1       5.871   3.983  14.465  0.00  0.00    +0.000 C 
ATOM     15  C   UNL     1       6.367   5.213  15.206  0.00  0.00    +0.000 C 
ENDBRANCH  13  15
ENDBRANCH  11  13
ENDBRANCH   1  11
BRANCH  10  16
ATOM     16  N   UNL     1       2.717   6.624  17.937  0.00  0.00    +0.000 N 
ATOM     17  H   UNL     1       2.712   6.691  16.911  0.00  0.00    +0.000 HD
BRANCH  16  18
ATOM     18  C   UNL     1       2.262   7.809  18.544  0.00  0.00    +0.000 A 
ATOM     19  C   UNL     1       2.051   8.930  17.734  0.00  0.00    +0.000 A 
ATOM     20  C   UNL     1       1.405  10.061  18.234  0.00  0.00    +0.000 A 
ATOM     21  C   UNL     1       0.946  10.070  19.555  0.00  0.00    +0.000 A 
ATOM     22  C   UNL     1       1.183   8.969  20.382  0.00  0.00    +0.000 A 
ATOM     23  C   UNL     1       1.892   7.869  19.890  0.00  0.00    +0.000 A 
BRANCH  22  24
ATOM     24  C   UNL     1       0.628   8.983  21.755  0.00  0.00    +0.000 C 
ATOM     25  O   UNL     1      -0.493   8.579  22.021  0.00  0.00    +0.000 OA
BRANCH  24  26
ATOM     26  O   UNL     1       1.494   9.412  22.698  0.00  0.00    +0.000 OA
ATOM     27  H   UNL     1       2.431   9.205  22.540  0.00  0.00    +0.000 HD
ENDBRANCH  24  26
ENDBRANCH  22  24
ENDBRANCH  16  18
ENDBRANCH  10  16
TORSDOF 7
ENDMDL
MODEL 4
REMARK VINA RESULT:      -8.0      2.529      6.748
REMARK  Name = 
REMARK  8 active torsions:
REMARK  status: ('A' for Active; 'I' for Inactive)
REMARK    1  A    between atoms: C_1  and  C_2
REMARK    2  A    between atoms: C_2  and  O_3
REMARK    3  A    between atoms: O_3  and  C_4
REMARK    4  A    between atoms: C_4  and  C_6
REMARK    5  A    between atoms: C_15  and  N_16
REMARK    6  A    between atoms: N_16  and  C_17
REMARK    7  A    between atoms: C_21  and  C_22
REMARK    8  A    between atoms: C_22  and  O_24
REMARK                            x       y       z     vdW  Elec       q    Type
REMARK                         _______ _______ _______ _____ _____    ______ ____
ROOT
ATOM      1  C   UNL     1       2.110   5.509  20.022  0.00  0.00    +0.000 A 
ATOM      2  C   UNL     1       1.470   6.163  21.062  0.00  0.00    +0.000 A 
ATOM      3  N   UNL     1       1.197   7.485  21.074  0.00  0.00    +0.000 NA
ATOM      4  C   UNL     1       1.505   8.204  19.990  0.00  0.00    +0.000 A 
ATOM      5  C   UNL     1       1.206   9.560  20.023  0.00  0.00    +0.000 A 
ATOM      6  C   UNL     1       1.460  10.404  18.943  0.00  0.00    +0.000 A 
ATOM      7  C   UNL     1       1.960   9.869  17.770  0.00  0.00    +0.000 A 
ATOM      8  C   UNL     1       2.234   8.504  17.708  0.00  0.00    +0.000 A 
ATOM      9  C   UNL     1       2.103   7.647  18.835  0.00  0.00    +0.000 A 
ATOM     10  C   UNL     1       2.478   6.260  18.883  0.00  0.00    +0.000 A 
ENDROOT
BRANCH   1  11
ATOM     11  C   UNL     1       2.312   4.039  20.076  0.00  0.00    +0.000 C 
ATOM     12  O   UNL     1       2.963   3.480  20.949  0.00  0.00    +0.000 OA
BRANCH  11  13
ATOM     13  O   UNL     1       1.823   3.451  18.958  0.00  0.00    +0.000 OA
BRANCH  13  15
ATOM     14  C   UNL     1       3.353   1.982  17.876  0.00  0.00    +0.000 C 
ATOM     15  C   UNL     1       2.153   2.063  18.804  0.00  0.00    +0.000 C 
ENDBRANCH  13  15
ENDBRANCH  11  13
ENDBRANCH   1  11
BRANCH  10  16
ATOM     16  N   UNL     1       3.213   5.618  17.842  0.00  0.00    +0.000 N 
ATOM     17  H   UNL     1       2.667   4.918  17.324  0.00  0.00    +0.000 HD
BRANCH  16  18
ATOM     18  C   UNL     1       4.590   5.518  17.573  0.00  0.00    +0.000 A 
ATOM     19  C   UNL     1       5.469   5.394  18.655  0.00  0.00    +0.000 A 
ATOM     20  C   UNL     1       6.813   5.080  18.451  0.00  0.00    +0.000 A 
ATOM     21  C   UNL     1       7.286   4.869  17.152  0.00  0.00    +0.000 A 
ATOM     22  C   UNL     1       6.424   5.025  16.063  0.00  0.00    +0.000 A 
ATOM     23  C   UNL     1       5.096   5.406  16.276  0.00  0.00    +0.000 A 
BRANCH  22  24
ATOM     24  C   UNL     1       6.938   4.731  14.705  0.00  0.00    +0.000 C 
ATOM     25  O   UNL     1       7.781   5.419  14.152  0.00  0.00    +0.000 OA
BRANCH  24  26
ATOM     26  O   UNL     1       6.448   3.597  14.161  0.00  0.00    +0.000 OA
ATOM     27  H   UNL     1       6.542   3.515  13.196  0.00  0.00    +0.000 HD
ENDBRANCH  24  26
ENDBRANCH  22  24
ENDBRANCH  16  18
ENDBRANCH  10  16
TORSDOF 7
ENDMDL
MODEL 5
REMARK VINA RESULT:      -8.0      2.373      5.799
REMARK  Name = 
REMARK  8 active torsions:
REMARK  status: ('A' for Active; 'I' for Inactive)
REMARK    1  A    between atoms: C_1  and  C_2
REMARK    2  A    between atoms: C_2  and  O_3
REMARK    3  A    between atoms: O_3  and  C_4
REMARK    4  A    between atoms: C_4  and  C_6
REMARK    5  A    between atoms: C_15  and  N_16
REMARK    6  A    between atoms: N_16  and  C_17
REMARK    7  A    between atoms: C_21  and  C_22
REMARK    8  A    between atoms: C_22  and  O_24
REMARK                            x       y       z     vdW  Elec       q    Type
REMARK                         _______ _______ _______ _____ _____    ______ ____
ROOT
ATOM      1  C   UNL     1       2.676   7.641  18.299  0.00  0.00    +0.000 A 
ATOM      2  C   UNL     1       2.109   8.703  17.613  0.00  0.00    +0.000 A 
ATOM      3  N   UNL     1       1.211   9.558  18.146  0.00  0.00    +0.000 NA
ATOM      4  C   UNL     1       0.888   9.413  19.436  0.00  0.00    +0.000 A 
ATOM      5  C   UNL     1      -0.032  10.311  19.963  0.00  0.00    +0.000 A 
ATOM      6  C   UNL     1      -0.425  10.273  21.300  0.00  0.00    +0.000 A 
ATOM      7  C   UNL     1       0.167   9.360  22.153  0.00  0.00    +0.000 A 
ATOM      8  C   UNL     1       1.118   8.475  21.647  0.00  0.00    +0.000 A 
ATOM      9  C   UNL     1       1.443   8.411  20.265  0.00  0.00    +0.000 A 
ATOM     10  C   UNL     1       2.319   7.449  19.652  0.00  0.00    +0.000 A 
ENDROOT
BRANCH   1  11
ATOM     11  C   UNL     1       3.703   6.791  17.643  0.00  0.00    +0.000 C 
ATOM     12  O   UNL     1       3.484   5.653  17.252  0.00  0.00    +0.000 OA
BRANCH  11  13
ATOM     13  O   UNL     1       4.917   7.389  17.694  0.00  0.00    +0.000 OA
BRANCH  13  15
ATOM     14  C   UNL     1       7.285   7.294  17.465  0.00  0.00    +0.000 C 
ATOM     15  C   UNL     1       5.966   6.701  17.000  0.00  0.00    +0.000 C 
ENDBRANCH  13  15
ENDBRANCH  11  13
ENDBRANCH   1  11
BRANCH  10  16
ATOM     16  N   UNL     1       2.828   6.311  20.345  0.00  0.00    +0.000 N 
ATOM     17  H   UNL     1       3.744   6.471  20.784  0.00  0.00    +0.000 HD
BRANCH  16  18
ATOM     18  C   UNL     1       2.497   4.944  20.301  0.00  0.00    +0.000 A 
ATOM     19  C   UNL     1       1.148   4.587  20.395  0.00  0.00    +0.000 A 
ATOM     20  C   UNL     1       0.736   3.277  20.147  0.00  0.00    +0.000 A 
ATOM     21  C   UNL     1       1.680   2.311  19.783  0.00  0.00    +0.000 A 
ATOM     22  C   UNL     1       3.035   2.651  19.720  0.00  0.00    +0.000 A 
ATOM     23  C   UNL     1       3.442   3.950  20.037  0.00  0.00    +0.000 A 
BRANCH  22  24
ATOM     24  C   UNL     1       4.001   1.624  19.268  0.00  0.00    +0.000 C 
ATOM     25  O   UNL     1       3.810   0.919  18.289  0.00  0.00    +0.000 OA
BRANCH  24  26
ATOM     26  O   UNL     1       5.144   1.584  19.986  0.00  0.00    +0.000 OA
ATOM     27  H   UNL     1       5.588   2.438  20.124  0.00  0.00    +0.000 HD
ENDBRANCH  24  26
ENDBRANCH  22  24
ENDBRANCH  16  18
ENDBRANCH  10  16
TORSDOF 7
ENDMDL
MODEL 6
REMARK VINA RESULT:      -7.9      1.301      1.435
REMARK  Name = 
REMARK  8 active torsions:
REMARK  status: ('A' for Active; 'I' for Inactive)
REMARK    1  A    between atoms: C_1  and  C_2
REMARK    2  A    between atoms: C_2  and  O_3
REMARK    3  A    between atoms: O_3  and  C_4
REMARK    4  A    between atoms: C_4  and  C_6
REMARK    5  A    between atoms: C_15  and  N_16
REMARK    6  A    between atoms: N_16  and  C_17
REMARK    7  A    between atoms: C_21  and  C_22
REMARK    8  A    between atoms: C_22  and  O_24
REMARK                            x       y       z     vdW  Elec       q    Type
REMARK                         _______ _______ _______ _____ _____    ______ ____
ROOT
ATOM      1  C   UNL     1       4.305   5.344  17.216  0.00  0.00    +0.000 A 
ATOM      2  C   UNL     1       4.340   4.116  16.575  0.00  0.00    +0.000 A 
ATOM      3  N   UNL     1       3.594   3.050  16.936  0.00  0.00    +0.000 NA
ATOM      4  C   UNL     1       2.719   3.199  17.936  0.00  0.00    +0.000 A 
ATOM      5  C   UNL     1       1.958   2.090  18.282  0.00  0.00    +0.000 A 
ATOM      6  C   UNL     1       0.997   2.134  19.291  0.00  0.00    +0.000 A 
ATOM      7  C   UNL     1       0.738   3.335  19.926  0.00  0.00    +0.000 A 
ATOM      8  C   UNL     1       1.469   4.466  19.566  0.00  0.00    +0.000 A 
ATOM      9  C   UNL     1       2.539   4.418  18.630  0.00  0.00    +0.000 A 
ATOM     10  C   UNL     1       3.413   5.510  18.299  0.00  0.00    +0.000 A 
ENDROOT
BRANCH   1  11
ATOM     11  C   UNL     1       5.120   6.476  16.706  0.00  0.00    +0.000 C 
ATOM     12  O   UNL     1       5.130   6.824  15.533  0.00  0.00    +0.000 OA
BRANCH  11  13
ATOM     13  O   UNL     1       5.947   6.939  17.674  0.00  0.00    +0.000 OA
BRANCH  13  15
ATOM     14  C   UNL     1       7.885   8.322  17.663  0.00  0.00    +0.000 C 
ATOM     15  C   UNL     1       7.341   6.942  17.336  0.00  0.00    +0.000 C 
ENDBRANCH  13  15
ENDBRANCH  11  13
ENDBRANCH   1  11
BRANCH  10  16
ATOM     16  N   UNL     1       3.428   6.740  19.021  0.00  0.00    +0.000 N 
ATOM     17  H   UNL     1       4.109   6.759  19.790  0.00  0.00    +0.000 HD
BRANCH  16  18
ATOM     18  C   UNL     1       2.513   7.806  19.101  0.00  0.00    +0.000 A 
ATOM     19  C   UNL     1       2.215   8.512  17.931  0.00  0.00    +0.000 A 
ATOM     20  C   UNL     1       1.168   9.434  17.899  0.00  0.00    +0.000 A 
ATOM     21  C   UNL     1       0.394   9.642  19.045  0.00  0.00    +0.000 A 
ATOM     22  C   UNL     1       0.706   8.967  20.228  0.00  0.00    +0.000 A 
ATOM     23  C   UNL     1       1.800   8.099  20.266  0.00  0.00    +0.000 A 
BRANCH  22  24
ATOM     24  C   UNL     1      -0.172   9.160  21.406  0.00  0.00    +0.000 C 
ATOM     25  O   UNL     1      -0.770   8.242  21.945  0.00  0.00    +0.000 OA
BRANCH  24  26
ATOM     26  O   UNL     1      -0.198  10.426  21.876  0.00  0.00    +0.000 OA
ATOM     27  H   UNL     1      -0.834  10.599  22.592  0.00  0.00    +0.000 HD
ENDBRANCH  24  26
ENDBRANCH  22  24
ENDBRANCH  16  18
ENDBRANCH  10  16
TORSDOF 7
ENDMDL
MODEL 7
REMARK VINA RESULT:      -7.9      2.576      6.297
REMARK  Name = 
REMARK  8 active torsions:
REMARK  status: ('A' for Active; 'I' for Inactive)
REMARK    1  A    between atoms: C_1  and  C_2
REMARK    2  A    between atoms: C_2  and  O_3
REMARK    3  A    between atoms: O_3  and  C_4
REMARK    4  A    between atoms: C_4  and  C_6
REMARK    5  A    between atoms: C_15  and  N_16
REMARK    6  A    between atoms: N_16  and  C_17
REMARK    7  A    between atoms: C_21  and  C_22
REMARK    8  A    between atoms: C_22  and  O_24
REMARK                            x       y       z     vdW  Elec       q    Type
REMARK                         _______ _______ _______ _____ _____    ______ ____
ROOT
ATOM      1  C   UNL     1       2.069   5.572  20.014  0.00  0.00    +0.000 A 
ATOM      2  C   UNL     1       1.419   6.224  21.049  0.00  0.00    +0.000 A 
ATOM      3  N   UNL     1       1.152   7.547  21.065  0.00  0.00    +0.000 NA
ATOM      4  C   UNL     1       1.478   8.271  19.988  0.00  0.00    +0.000 A 
ATOM      5  C   UNL     1       1.185   9.628  20.025  0.00  0.00    +0.000 A 
ATOM      6  C   UNL     1       1.456  10.476  18.953  0.00  0.00    +0.000 A 
ATOM      7  C   UNL     1       1.968   9.945  17.783  0.00  0.00    +0.000 A 
ATOM      8  C   UNL     1       2.236   8.578  17.718  0.00  0.00    +0.000 A 
ATOM      9  C   UNL     1       2.086   7.716  18.838  0.00  0.00    +0.000 A 
ATOM     10  C   UNL     1       2.455   6.327  18.883  0.00  0.00    +0.000 A 
ENDROOT
BRANCH   1  11
ATOM     11  C   UNL     1       2.263   4.101  20.063  0.00  0.00    +0.000 C 
ATOM     12  O   UNL     1       2.930   3.538  20.920  0.00  0.00    +0.000 OA
BRANCH  11  13
ATOM     13  O   UNL     1       1.745   3.517  18.956  0.00  0.00    +0.000 OA
BRANCH  13  15
ATOM     14  C   UNL     1       3.083   1.847  17.911  0.00  0.00    +0.000 C 
ATOM     15  C   UNL     1       1.932   2.097  18.870  0.00  0.00    +0.000 C 
ENDBRANCH  13  15
ENDBRANCH  11  13
ENDBRANCH   1  11
BRANCH  10  16
ATOM     16  N   UNL     1       3.199   5.687  17.849  0.00  0.00    +0.000 N 
ATOM     17  H   UNL     1       2.611   5.252  17.127  0.00  0.00    +0.000 HD
BRANCH  16  18
ATOM     18  C   UNL     1       4.538   5.265  17.763  0.00  0.00    +0.000 A 
ATOM     19  C   UNL     1       4.965   4.652  16.579  0.00  0.00    +0.000 A 
ATOM     20  C   UNL     1       6.319   4.404  16.351  0.00  0.00    +0.000 A 
ATOM     21  C   UNL     1       7.265   4.789  17.306  0.00  0.00    +0.000 A 
ATOM     22  C   UNL     1       6.845   5.371  18.506  0.00  0.00    +0.000 A 
ATOM     23  C   UNL     1       5.481   5.551  18.752  0.00  0.00    +0.000 A 
BRANCH  22  24
ATOM     24  C   UNL     1       7.874   5.828  19.469  0.00  0.00    +0.000 C 
ATOM     25  O   UNL     1       8.152   5.210  20.485  0.00  0.00    +0.000 OA
BRANCH  24  26
ATOM     26  O   UNL     1       8.530   6.945  19.091  0.00  0.00    +0.000 OA
ATOM     27  H   UNL     1       9.371   6.805  18.621  0.00  0.00    +0.000 HD
ENDBRANCH  24  26
ENDBRANCH  22  24
ENDBRANCH  16  18
ENDBRANCH  10  16
TORSDOF 7
ENDMDL
MODEL 8
REMARK VINA RESULT:      -7.8      2.093      4.164
REMARK  Name = 
REMARK  8 active torsions:
REMARK  status: ('A' for Active; 'I' for Inactive)
REMARK    1  A    between atoms: C_1  and  C_2
REMARK    2  A    between atoms: C_2  and  O_3
REMARK    3  A    between atoms: O_3  and  C_4
REMARK    4  A    between atoms: C_4  and  C_6
REMARK    5  A    between atoms: C_15  and  N_16
REMARK    6  A    between atoms: N_16  and  C_17
REMARK    7  A    between atoms: C_21  and  C_22
REMARK    8  A    between atoms: C_22  and  O_24
REMARK                            x       y       z     vdW  Elec       q    Type
REMARK                         _______ _______ _______ _____ _____    ______ ____
ROOT
ATOM      1  C   UNL     1       2.973   4.275  17.852  0.00  0.00    +0.000 A 
ATOM      2  C   UNL     1       3.631   3.564  16.862  0.00  0.00    +0.000 A 
ATOM      3  N   UNL     1       4.962   3.619  16.644  0.00  0.00    +0.000 NA
ATOM      4  C   UNL     1       5.708   4.358  17.472  0.00  0.00    +0.000 A 
ATOM      5  C   UNL     1       7.076   4.391  17.233  0.00  0.00    +0.000 A 
ATOM      6  C   UNL     1       7.955   5.107  18.044  0.00  0.00    +0.000 A 
ATOM      7  C   UNL     1       7.468   5.750  19.167  0.00  0.00    +0.000 A 
ATOM      8  C   UNL     1       6.102   5.698  19.441  0.00  0.00    +0.000 A 
ATOM      9  C   UNL     1       5.169   5.081  18.562  0.00  0.00    +0.000 A 
ATOM     10  C   UNL     1       3.740   5.091  18.714  0.00  0.00    +0.000 A 
ENDROOT
BRANCH   1  11
ATOM     11  C   UNL     1       1.511   4.102  18.051  0.00  0.00    +0.000 C 
ATOM     12  O   UNL     1       0.686   4.275  17.165  0.00  0.00    +0.000 OA
BRANCH  11  13
ATOM     13  O   UNL     1       1.233   3.891  19.360  0.00  0.00    +0.000 OA
BRANCH  13  15
ATOM     14  C   UNL     1       1.781   2.695  21.345  0.00  0.00    +0.000 C 
ATOM     15  C   UNL     1       1.551   2.580  19.848  0.00  0.00    +0.000 C 
ENDBRANCH  13  15
ENDBRANCH  11  13
ENDBRANCH   1  11
BRANCH  10  16
ATOM     16  N   UNL     1       3.067   5.894  19.682  0.00  0.00    +0.000 N 
ATOM     17  H   UNL     1       2.747   5.367  20.504  0.00  0.00    +0.000 HD
BRANCH  16  18
ATOM     18  C   UNL     1       2.487   7.174  19.618  0.00  0.00    +0.000 A 
ATOM     19  C   UNL     1       2.430   7.814  18.375  0.00  0.00    +0.000 A 
ATOM     20  C   UNL     1       1.685   8.982  18.205  0.00  0.00    +0.000 A 
ATOM     21  C   UNL     1       0.970   9.510  19.285  0.00  0.00    +0.000 A 
ATOM     22  C   UNL     1       1.048   8.897  20.539  0.00  0.00    +0.000 A 
ATOM     23  C   UNL     1       1.853   7.768  20.712  0.00  0.00    +0.000 A 
BRANCH  22  24
ATOM     24  C   UNL     1       0.229   9.443  21.645  0.00  0.00    +0.000 C 
ATOM     25  O   UNL     1      -0.691   8.824  22.157  0.00  0.00    +0.000 OA
BRANCH  24  26
ATOM     26  O   UNL     1       0.631  10.653  22.088  0.00  0.00    +0.000 OA
ATOM     27  H   UNL     1       1.494  10.675  22.536  0.00  0.00    +0.000 HD
ENDBRANCH  24  26
ENDBRANCH  22  24
ENDBRANCH  16  18
ENDBRANCH  10  16
TORSDOF 7
ENDMDL
MODEL 9
REMARK VINA RESULT:      -7.8      1.734      4.222
REMARK  Name = 
REMARK  8 active torsions:
REMARK  status: ('A' for Active; 'I' for Inactive)
REMARK    1  A    between atoms: C_1  and  C_2
REMARK    2  A    between atoms: C_2  and  O_3
REMARK    3  A    between atoms: O_3  and  C_4
REMARK    4  A    between atoms: C_4  and  C_6
REMARK    5  A    between atoms: C_15  and  N_16
REMARK    6  A    between atoms: N_16  and  C_17
REMARK    7  A    between atoms: C_21  and  C_22
REMARK    8  A    between atoms: C_22  and  O_24
REMARK                            x       y       z     vdW  Elec       q    Type
REMARK                         _______ _______ _______ _____ _____    ______ ____
ROOT
ATOM      1  C   UNL     1       3.255   4.254  18.495  0.00  0.00    +0.000 A 
ATOM      2  C   UNL     1       4.280   3.338  18.670  0.00  0.00    +0.000 A 
ATOM      3  N   UNL     1       5.585   3.608  18.454  0.00  0.00    +0.000 NA
ATOM      4  C   UNL     1       5.924   4.854  18.108  0.00  0.00    +0.000 A 
ATOM      5  C   UNL     1       7.273   5.109  17.901  0.00  0.00    +0.000 A 
ATOM      6  C   UNL     1       7.747   6.375  17.561  0.00  0.00    +0.000 A 
ATOM      7  C   UNL     1       6.860   7.434  17.495  0.00  0.00    +0.000 A 
ATOM      8  C   UNL     1       5.506   7.202  17.734  0.00  0.00    +0.000 A 
ATOM      9  C   UNL     1       4.982   5.899  17.959  0.00  0.00    +0.000 A 
ATOM     10  C   UNL     1       3.590   5.566  18.092  0.00  0.00    +0.000 A 
ENDROOT
BRANCH   1  11
ATOM     11  C   UNL     1       1.855   3.878  18.816  0.00  0.00    +0.000 C 
ATOM     12  O   UNL     1       1.069   3.436  17.989  0.00  0.00    +0.000 OA
BRANCH  11  13
ATOM     13  O   UNL     1       1.544   4.245  20.083  0.00  0.00    +0.000 OA
BRANCH  13  15
ATOM     14  C   UNL     1       2.316   2.706  21.729  0.00  0.00    +0.000 C 
ATOM     15  C   UNL     1       1.108   3.178  20.938  0.00  0.00    +0.000 C 
ENDBRANCH  13  15
ENDBRANCH  11  13
ENDBRANCH   1  11
BRANCH  10  16
ATOM     16  N   UNL     1       2.540   6.494  17.826  0.00  0.00    +0.000 N 
ATOM     17  H   UNL     1       2.140   6.405  16.884  0.00  0.00    +0.000 HD
BRANCH  16  18
ATOM     18  C   UNL     1       2.146   7.689  18.455  0.00  0.00    +0.000 A 
ATOM     19  C   UNL     1       1.842   8.792  17.650  0.00  0.00    +0.000 A 
ATOM     20  C   UNL     1       1.247   9.932  18.194  0.00  0.00    +0.000 A 
ATOM     21  C   UNL     1       0.932   9.966  19.556  0.00  0.00    +0.000 A 
ATOM     22  C   UNL     1       1.263   8.882  20.375  0.00  0.00    +0.000 A 
ATOM     23  C   UNL     1       1.921   7.776  19.831  0.00  0.00    +0.000 A 
BRANCH  22  24
ATOM     24  C   UNL     1       0.858   8.922  21.799  0.00  0.00    +0.000 C 
ATOM     25  O   UNL     1      -0.277   8.670  22.173  0.00  0.00    +0.000 OA
BRANCH  24  26
ATOM     26  O   UNL     1       1.867   9.189  22.655  0.00  0.00    +0.000 OA
ATOM     27  H   UNL     1       2.766   9.077  22.299  0.00  0.00    +0.000 HD
ENDBRANCH  24  26
ENDBRANCH  22  24
ENDBRANCH  16  18
ENDBRANCH  10  16
TORSDOF 7
ENDMDL
