MODEL 1
REMARK VINA RESULT:      -7.6      0.000      0.000
REMARK  Name = 
REMARK  3 active torsions:
REMARK  status: ('A' for Active; 'I' for Inactive)
REMARK    1  A    between atoms: C_4  and  C_5
REMARK    2  A    between atoms: C_8  and  N_9
REMARK    3  A    between atoms: C_10  and  C_12
REMARK                            x       y       z     vdW  Elec       q    Type
REMARK                         _______ _______ _______ _____ _____    ______ ____
ROOT
ATOM      1  C   UNL     1       3.749   6.392  18.176  0.00  0.00    +0.000 A 
ATOM      2  C   UNL     1       3.072   6.097  19.362  0.00  0.00    +0.000 A 
ATOM      3  C   UNL     1       2.129   6.982  19.875  0.00  0.00    +0.000 A 
ATOM      4  C   UNL     1       1.819   8.183  19.194  0.00  0.00    +0.000 A 
ATOM      5  C   UNL     1       2.470   8.445  17.976  0.00  0.00    +0.000 A 
ATOM      6  C   UNL     1       3.442   7.571  17.482  0.00  0.00    +0.000 A 
ENDROOT
BRANCH   1  10
ATOM      7  N   UNL     1       8.035   4.277  17.327  0.00  0.00    +0.000 N 
ATOM      8  C   UNL     1       6.652   4.552  17.295  0.00  0.00    +0.000 A 
ATOM      9  N   UNL     1       6.094   5.609  17.912  0.00  0.00    +0.000 NA
ATOM     10  C   UNL     1       4.773   5.461  17.684  0.00  0.00    +0.000 A 
ATOM     11  C   UNL     1       4.558   4.331  16.920  0.00  0.00    +0.000 A 
ATOM     12  N   UNL     1       5.752   3.777  16.666  0.00  0.00    +0.000 N 
ATOM     13  H   UNL     1       8.668   4.883  17.867  0.00  0.00    +0.000 HD
ATOM     14  H   UNL     1       8.405   3.434  16.868  0.00  0.00    +0.000 HD
ATOM     15  H   UNL     1       5.933   2.922  16.101  0.00  0.00    +0.000 HD
ENDBRANCH   1  10
BRANCH   4  16
ATOM     16  N   UNL     1       0.868   9.139  19.681  0.00  0.00    +0.000 N 
ATOM     17  C   UNL     1       0.710   9.502  20.995  0.00  0.00    +0.000 C 
ATOM     18  O   UNL     1       1.451   9.039  21.849  0.00  0.00    +0.000 OA
ATOM     19  H   UNL     1       0.311   9.617  18.963  0.00  0.00    +0.000 HD
BRANCH  17  20
ATOM     20  C   UNL     1      -0.313  10.499  21.439  0.00  0.00    +0.000 A 
ATOM     21  C   UNL     1      -0.694  10.514  22.799  0.00  0.00    +0.000 A 
ATOM     22  C   UNL     1      -1.645  11.413  23.267  0.00  0.00    +0.000 A 
ATOM     23  C   UNL     1      -2.239  12.320  22.392  0.00  0.00    +0.000 A 
ATOM     24  C   UNL     1      -1.878  12.330  21.043  0.00  0.00    +0.000 A 
ATOM     25  F   UNL     1      -2.459  13.210  20.195  0.00  0.00    +0.000 F 
ATOM     26  C   UNL     1      -0.922  11.429  20.564  0.00  0.00    +0.000 A 
ENDBRANCH  17  20
ENDBRANCH   4  16
TORSDOF 3
ENDMDL
MODEL 2
REMARK VINA RESULT:      -7.6      1.781      2.152
REMARK  Name = 
REMARK  3 active torsions:
REMARK  status: ('A' for Active; 'I' for Inactive)
REMARK    1  A    between atoms: C_4  and  C_5
REMARK    2  A    between atoms: C_8  and  N_9
REMARK    3  A    between atoms: C_10  and  C_12
REMARK                            x       y       z     vdW  Elec       q    Type
REMARK                         _______ _______ _______ _____ _____    ______ ____
ROOT
ATOM      1  C   UNL     1       4.433   5.774  16.934  0.00  0.00    +0.000 A 
ATOM      2  C   UNL     1       3.588   4.992  17.725  0.00  0.00    +0.000 A 
ATOM      3  C   UNL     1       2.794   5.579  18.704  0.00  0.00    +0.000 A 
ATOM      4  C   UNL     1       2.806   6.980  18.901  0.00  0.00    +0.000 A 
ATOM      5  C   UNL     1       3.622   7.763  18.065  0.00  0.00    +0.000 A 
ATOM      6  C   UNL     1       4.446   7.166  17.106  0.00  0.00    +0.000 A 
ENDROOT
BRANCH   1  10
ATOM      7  N   UNL     1       7.574   5.077  13.300  0.00  0.00    +0.000 N 
ATOM      8  C   UNL     1       6.651   4.819  14.334  0.00  0.00    +0.000 A 
ATOM      9  N   UNL     1       6.024   5.789  15.023  0.00  0.00    +0.000 NA
ATOM     10  C   UNL     1       5.295   5.121  15.940  0.00  0.00    +0.000 A 
ATOM     11  C   UNL     1       5.480   3.762  15.777  0.00  0.00    +0.000 A 
ATOM     12  N   UNL     1       6.323   3.584  14.750  0.00  0.00    +0.000 N 
ATOM     13  H   UNL     1       7.820   6.047  13.058  0.00  0.00    +0.000 HD
ATOM     14  H   UNL     1       8.054   4.297  12.829  0.00  0.00    +0.000 HD
ATOM     15  H   UNL     1       6.651   2.675  14.366  0.00  0.00    +0.000 HD
ENDBRANCH   1  10
BRANCH   4  16
ATOM     16  N   UNL     1       2.022   7.640  19.902  0.00  0.00    +0.000 N 
ATOM     17  C   UNL     1       1.314   8.803  19.718  0.00  0.00    +0.000 C 
ATOM     18  O   UNL     1       1.277   9.324  18.614  0.00  0.00    +0.000 OA
ATOM     19  H   UNL     1       1.955   7.156  20.805  0.00  0.00    +0.000 HD
BRANCH  17  20
ATOM     20  C   UNL     1       0.524   9.448  20.812  0.00  0.00    +0.000 A 
ATOM     21  C   UNL     1       0.630   8.923  22.119  0.00  0.00    +0.000 A 
ATOM     22  C   UNL     1      -0.087   9.477  23.174  0.00  0.00    +0.000 A 
ATOM     23  C   UNL     1      -0.926  10.567  22.951  0.00  0.00    +0.000 A 
ATOM     24  C   UNL     1      -1.047  11.107  21.669  0.00  0.00    +0.000 A 
ATOM     25  F   UNL     1      -1.865  12.164  21.457  0.00  0.00    +0.000 F 
ATOM     26  C   UNL     1      -0.329  10.557  20.603  0.00  0.00    +0.000 A 
ENDBRANCH  17  20
ENDBRANCH   4  16
TORSDOF 3
ENDMDL
MODEL 3
REMARK VINA RESULT:      -7.5      1.822      2.506
REMARK  Name = 
REMARK  3 active torsions:
REMARK  status: ('A' for Active; 'I' for Inactive)
REMARK    1  A    between atoms: C_4  and  C_5
REMARK    2  A    between atoms: C_8  and  N_9
REMARK    3  A    between atoms: C_10  and  C_12
REMARK                            x       y       z     vdW  Elec       q    Type
REMARK                         _______ _______ _______ _____ _____    ______ ____
ROOT
ATOM      1  C   UNL     1       2.599   7.549  18.514  0.00  0.00    +0.000 A 
ATOM      2  C   UNL     1       2.092   8.690  17.888  0.00  0.00    +0.000 A 
ATOM      3  C   UNL     1       1.233   9.547  18.568  0.00  0.00    +0.000 A 
ATOM      4  C   UNL     1       0.878   9.295  19.914  0.00  0.00    +0.000 A 
ATOM      5  C   UNL     1       1.434   8.172  20.551  0.00  0.00    +0.000 A 
ATOM      6  C   UNL     1       2.268   7.294  19.854  0.00  0.00    +0.000 A 
ENDROOT
BRANCH   1  10
ATOM      7  N   UNL     1       6.055   5.874  15.547  0.00  0.00    +0.000 N 
ATOM      8  C   UNL     1       4.963   5.910  16.438  0.00  0.00    +0.000 A 
ATOM      9  N   UNL     1       4.423   7.052  16.901  0.00  0.00    +0.000 NA
ATOM     10  C   UNL     1       3.466   6.638  17.755  0.00  0.00    +0.000 A 
ATOM     11  C   UNL     1       3.431   5.258  17.780  0.00  0.00    +0.000 A 
ATOM     12  N   UNL     1       4.367   4.811  16.932  0.00  0.00    +0.000 N 
ATOM     13  H   UNL     1       6.499   6.751  15.241  0.00  0.00    +0.000 HD
ATOM     14  H   UNL     1       6.453   4.972  15.252  0.00  0.00    +0.000 HD
ATOM     15  H   UNL     1       4.583   3.817  16.711  0.00  0.00    +0.000 HD
ENDBRANCH   1  10
BRANCH   4  16
ATOM     16  N   UNL     1      -0.013  10.133  20.662  0.00  0.00    +0.000 N 
ATOM     17  C   UNL     1       0.352  11.261  21.354  0.00  0.00    +0.000 C 
ATOM     18  O   UNL     1       1.509  11.652  21.315  0.00  0.00    +0.000 OA
ATOM     19  H   UNL     1      -1.007   9.878  20.615  0.00  0.00    +0.000 HD
BRANCH  17  20
ATOM     20  C   UNL     1      -0.628  12.086  22.127  0.00  0.00    +0.000 A 
ATOM     21  C   UNL     1      -0.427  13.482  22.195  0.00  0.00    +0.000 A 
ATOM     22  C   UNL     1      -1.301  14.298  22.905  0.00  0.00    +0.000 A 
ATOM     23  C   UNL     1      -2.395  13.742  23.564  0.00  0.00    +0.000 A 
ATOM     24  C   UNL     1      -2.619  12.365  23.511  0.00  0.00    +0.000 A 
ATOM     25  F   UNL     1      -3.682  11.828  24.154  0.00  0.00    +0.000 F 
ATOM     26  C   UNL     1      -1.746  11.537  22.799  0.00  0.00    +0.000 A 
ENDBRANCH  17  20
ENDBRANCH   4  16
TORSDOF 3
ENDMDL
MODEL 4
REMARK VINA RESULT:      -7.5      6.626      8.197
REMARK  Name = 
REMARK  3 active torsions:
REMARK  status: ('A' for Active; 'I' for Inactive)
REMARK    1  A    between atoms: C_4  and  C_5
REMARK    2  A    between atoms: C_8  and  N_9
REMARK    3  A    between atoms: C_10  and  C_12
REMARK                            x       y       z     vdW  Elec       q    Type
REMARK                         _______ _______ _______ _____ _____    ______ ____
ROOT
ATOM      1  C   UNL     1       6.294   5.864  18.100  0.00  0.00    +0.000 A 
ATOM      2  C   UNL     1       7.525   6.039  18.736  0.00  0.00    +0.000 A 
ATOM      3  C   UNL     1       8.254   7.210  18.554  0.00  0.00    +0.000 A 
ATOM      4  C   UNL     1       7.752   8.255  17.744  0.00  0.00    +0.000 A 
ATOM      5  C   UNL     1       6.489   8.088  17.149  0.00  0.00    +0.000 A 
ATOM      6  C   UNL     1       5.776   6.897  17.305  0.00  0.00    +0.000 A 
ENDROOT
BRANCH   1  10
ATOM      7  N   UNL     1       4.605   1.744  20.033  0.00  0.00    +0.000 N 
ATOM      8  C   UNL     1       4.852   2.785  19.113  0.00  0.00    +0.000 A 
ATOM      9  N   UNL     1       5.668   3.822  19.372  0.00  0.00    +0.000 NA
ATOM     10  C   UNL     1       5.570   4.598  18.273  0.00  0.00    +0.000 A 
ATOM     11  C   UNL     1       4.714   4.008  17.365  0.00  0.00    +0.000 A 
ATOM     12  N   UNL     1       4.282   2.856  17.898  0.00  0.00    +0.000 N 
ATOM     13  H   UNL     1       5.035   1.770  20.967  0.00  0.00    +0.000 HD
ATOM     14  H   UNL     1       3.943   0.992  19.798  0.00  0.00    +0.000 HD
ATOM     15  H   UNL     1       3.637   2.170  17.456  0.00  0.00    +0.000 HD
ENDBRANCH   1  10
BRANCH   4  16
ATOM     16  N   UNL     1       8.463   9.477  17.507  0.00  0.00    +0.000 N 
ATOM     17  C   UNL     1       9.018  10.273  18.478  0.00  0.00    +0.000 C 
ATOM     18  O   UNL     1       8.976   9.925  19.649  0.00  0.00    +0.000 OA
ATOM     19  H   UNL     1       8.601   9.727  16.521  0.00  0.00    +0.000 HD
BRANCH  17  20
ATOM     20  C   UNL     1       9.738  11.546  18.164  0.00  0.00    +0.000 A 
ATOM     21  C   UNL     1      11.127  11.490  17.916  0.00  0.00    +0.000 A 
ATOM     22  C   UNL     1      11.850  12.643  17.627  0.00  0.00    +0.000 A 
ATOM     23  C   UNL     1      11.206  13.877  17.577  0.00  0.00    +0.000 A 
ATOM     24  C   UNL     1       9.832  13.960  17.816  0.00  0.00    +0.000 A 
ATOM     25  F   UNL     1       9.210  15.161  17.769  0.00  0.00    +0.000 F 
ATOM     26  C   UNL     1       9.098  12.806  18.107  0.00  0.00    +0.000 A 
ENDBRANCH  17  20
ENDBRANCH   4  16
TORSDOF 3
ENDMDL
MODEL 5
REMARK VINA RESULT:      -7.5      2.248      2.787
REMARK  Name = 
REMARK  3 active torsions:
REMARK  status: ('A' for Active; 'I' for Inactive)
REMARK    1  A    between atoms: C_4  and  C_5
REMARK    2  A    between atoms: C_8  and  N_9
REMARK    3  A    between atoms: C_10  and  C_12
REMARK                            x       y       z     vdW  Elec       q    Type
REMARK                         _______ _______ _______ _____ _____    ______ ____
ROOT
ATOM      1  C   UNL     1       4.528   5.679  16.764  0.00  0.00    +0.000 A 
ATOM      2  C   UNL     1       3.661   4.917  17.552  0.00  0.00    +0.000 A 
ATOM      3  C   UNL     1       2.884   5.523  18.534  0.00  0.00    +0.000 A 
ATOM      4  C   UNL     1       2.936   6.922  18.736  0.00  0.00    +0.000 A 
ATOM      5  C   UNL     1       3.774   7.685  17.904  0.00  0.00    +0.000 A 
ATOM      6  C   UNL     1       4.580   7.070  16.943  0.00  0.00    +0.000 A 
ENDROOT
BRANCH   1  10
ATOM      7  N   UNL     1       7.592   4.910  13.079  0.00  0.00    +0.000 N 
ATOM      8  C   UNL     1       6.693   4.673  14.140  0.00  0.00    +0.000 A 
ATOM      9  N   UNL     1       6.076   5.656  14.819  0.00  0.00    +0.000 NA
ATOM     10  C   UNL     1       5.371   5.006  15.767  0.00  0.00    +0.000 A 
ATOM     11  C   UNL     1       5.560   3.645  15.633  0.00  0.00    +0.000 A 
ATOM     12  N   UNL     1       6.381   3.447  14.592  0.00  0.00    +0.000 N 
ATOM     13  H   UNL     1       7.828   5.875  12.809  0.00  0.00    +0.000 HD
ATOM     14  H   UNL     1       8.066   4.122  12.617  0.00  0.00    +0.000 HD
ATOM     15  H   UNL     1       6.705   2.530  14.222  0.00  0.00    +0.000 HD
ENDBRANCH   1  10
BRANCH   4  16
ATOM     16  N   UNL     1       2.170   7.599  19.741  0.00  0.00    +0.000 N 
ATOM     17  C   UNL     1       1.408   8.723  19.535  0.00  0.00    +0.000 C 
ATOM     18  O   UNL     1       1.301   9.188  18.410  0.00  0.00    +0.000 OA
ATOM     19  H   UNL     1       2.164   7.158  20.668  0.00  0.00    +0.000 HD
BRANCH  17  20
ATOM     20  C   UNL     1       0.641   9.390  20.632  0.00  0.00    +0.000 A 
ATOM     21  C   UNL     1      -0.183  10.489  20.306  0.00  0.00    +0.000 A 
ATOM     22  C   UNL     1      -0.913  11.153  21.286  0.00  0.00    +0.000 A 
ATOM     23  C   UNL     1      -0.839  10.738  22.613  0.00  0.00    +0.000 A 
ATOM     24  C   UNL     1      -0.033   9.652  22.964  0.00  0.00    +0.000 A 
ATOM     25  F   UNL     1       0.038   9.253  24.255  0.00  0.00    +0.000 F 
ATOM     26  C   UNL     1       0.703   8.978  21.985  0.00  0.00    +0.000 A 
ENDBRANCH  17  20
ENDBRANCH   4  16
TORSDOF 3
ENDMDL
MODEL 6
REMARK VINA RESULT:      -7.5      1.872      2.617
REMARK  Name = 
REMARK  3 active torsions:
REMARK  status: ('A' for Active; 'I' for Inactive)
REMARK    1  A    between atoms: C_4  and  C_5
REMARK    2  A    between atoms: C_8  and  N_9
REMARK    3  A    between atoms: C_10  and  C_12
REMARK                            x       y       z     vdW  Elec       q    Type
REMARK                         _______ _______ _______ _____ _____    ______ ____
ROOT
ATOM      1  C   UNL     1       2.813   5.773  19.599  0.00  0.00    +0.000 A 
ATOM      2  C   UNL     1       2.921   6.929  18.821  0.00  0.00    +0.000 A 
ATOM      3  C   UNL     1       2.167   8.058  19.126  0.00  0.00    +0.000 A 
ATOM      4  C   UNL     1       1.299   8.068  20.243  0.00  0.00    +0.000 A 
ATOM      5  C   UNL     1       1.237   6.917  21.048  0.00  0.00    +0.000 A 
ATOM      6  C   UNL     1       1.967   5.772  20.718  0.00  0.00    +0.000 A 
ENDROOT
BRANCH   1  10
ATOM      7  N   UNL     1       3.956   1.233  18.318  0.00  0.00    +0.000 N 
ATOM      8  C   UNL     1       4.083   2.589  18.688  0.00  0.00    +0.000 A 
ATOM      9  N   UNL     1       3.034   3.371  18.998  0.00  0.00    +0.000 NA
ATOM     10  C   UNL     1       3.585   4.581  19.225  0.00  0.00    +0.000 A 
ATOM     11  C   UNL     1       4.954   4.504  19.065  0.00  0.00    +0.000 A 
ATOM     12  N   UNL     1       5.258   3.239  18.745  0.00  0.00    +0.000 N 
ATOM     13  H   UNL     1       3.023   0.804  18.247  0.00  0.00    +0.000 HD
ATOM     14  H   UNL     1       4.789   0.689  18.054  0.00  0.00    +0.000 HD
ATOM     15  H   UNL     1       6.208   2.852  18.574  0.00  0.00    +0.000 HD
ENDBRANCH   1  10
BRANCH   4  16
ATOM     16  N   UNL     1       0.488   9.195  20.599  0.00  0.00    +0.000 N 
ATOM     17  C   UNL     1       0.635   9.952  21.734  0.00  0.00    +0.000 C 
ATOM     18  O   UNL     1       1.551   9.717  22.509  0.00  0.00    +0.000 OA
ATOM     19  H   UNL     1      -0.217   9.471  19.905  0.00  0.00    +0.000 HD
BRANCH  17  20
ATOM     20  C   UNL     1      -0.255  11.110  22.053  0.00  0.00    +0.000 A 
ATOM     21  C   UNL     1       0.028  12.361  21.459  0.00  0.00    +0.000 A 
ATOM     22  C   UNL     1      -0.760  13.475  21.724  0.00  0.00    +0.000 A 
ATOM     23  C   UNL     1      -1.850  13.370  22.586  0.00  0.00    +0.000 A 
ATOM     24  C   UNL     1      -2.154  12.145  23.184  0.00  0.00    +0.000 A 
ATOM     25  F   UNL     1      -3.212  12.048  24.023  0.00  0.00    +0.000 F 
ATOM     26  C   UNL     1      -1.367  11.020  22.923  0.00  0.00    +0.000 A 
ENDBRANCH  17  20
ENDBRANCH   4  16
TORSDOF 3
ENDMDL
MODEL 7
REMARK VINA RESULT:      -7.4      1.343      1.767
REMARK  Name = 
REMARK  3 active torsions:
REMARK  status: ('A' for Active; 'I' for Inactive)
REMARK    1  A    between atoms: C_4  and  C_5
REMARK    2  A    between atoms: C_8  and  N_9
REMARK    3  A    between atoms: C_10  and  C_12
REMARK                            x       y       z     vdW  Elec       q    Type
REMARK                         _______ _______ _______ _____ _____    ______ ____
ROOT
ATOM      1  C   UNL     1       3.283   6.492  18.752  0.00  0.00    +0.000 A 
ATOM      2  C   UNL     1       2.621   6.330  19.972  0.00  0.00    +0.000 A 
ATOM      3  C   UNL     1       1.733   7.299  20.427  0.00  0.00    +0.000 A 
ATOM      4  C   UNL     1       1.462   8.452  19.654  0.00  0.00    +0.000 A 
ATOM      5  C   UNL     1       2.095   8.580  18.405  0.00  0.00    +0.000 A 
ATOM      6  C   UNL     1       3.014   7.623  17.967  0.00  0.00    +0.000 A 
ENDROOT
BRANCH   1  10
ATOM      7  N   UNL     1       5.912   3.520  15.956  0.00  0.00    +0.000 N 
ATOM      8  C   UNL     1       5.382   4.160  17.097  0.00  0.00    +0.000 A 
ATOM      9  N   UNL     1       4.410   5.087  17.038  0.00  0.00    +0.000 NA
ATOM     10  C   UNL     1       4.251   5.475  18.320  0.00  0.00    +0.000 A 
ATOM     11  C   UNL     1       5.114   4.763  19.130  0.00  0.00    +0.000 A 
ATOM     12  N   UNL     1       5.808   3.924  18.349  0.00  0.00    +0.000 N 
ATOM     13  H   UNL     1       5.576   3.778  15.018  0.00  0.00    +0.000 HD
ATOM     14  H   UNL     1       6.681   2.843  16.054  0.00  0.00    +0.000 HD
ATOM     15  H   UNL     1       6.528   3.240  18.658  0.00  0.00    +0.000 HD
ENDBRANCH   1  10
BRANCH   4  16
ATOM     16  N   UNL     1       0.568   9.490  20.076  0.00  0.00    +0.000 N 
ATOM     17  C   UNL     1       0.583  10.097  21.307  0.00  0.00    +0.000 C 
ATOM     18  O   UNL     1       1.443   9.800  22.123  0.00  0.00    +0.000 OA
ATOM     19  H   UNL     1      -0.090   9.826  19.364  0.00  0.00    +0.000 HD
BRANCH  17  20
ATOM     20  C   UNL     1      -0.388  11.168  21.690  0.00  0.00    +0.000 A 
ATOM     21  C   UNL     1      -0.365  12.386  20.975  0.00  0.00    +0.000 A 
ATOM     22  C   UNL     1      -1.239  13.420  21.292  0.00  0.00    +0.000 A 
ATOM     23  C   UNL     1      -2.157  13.265  22.328  0.00  0.00    +0.000 A 
ATOM     24  C   UNL     1      -2.204  12.070  23.050  0.00  0.00    +0.000 A 
ATOM     25  F   UNL     1      -3.095  11.924  24.057  0.00  0.00    +0.000 F 
ATOM     26  C   UNL     1      -1.329  11.026  22.737  0.00  0.00    +0.000 A 
ENDBRANCH  17  20
ENDBRANCH   4  16
TORSDOF 3
ENDMDL
MODEL 8
REMARK VINA RESULT:      -7.4      1.721      2.303
REMARK  Name = 
REMARK  3 active torsions:
REMARK  status: ('A' for Active; 'I' for Inactive)
REMARK    1  A    between atoms: C_4  and  C_5
REMARK    2  A    between atoms: C_8  and  N_9
REMARK    3  A    between atoms: C_10  and  C_12
REMARK                            x       y       z     vdW  Elec       q    Type
REMARK                         _______ _______ _______ _____ _____    ______ ____
ROOT
ATOM      1  C   UNL     1       4.515   5.828  17.124  0.00  0.00    +0.000 A 
ATOM      2  C   UNL     1       4.077   7.136  16.905  0.00  0.00    +0.000 A 
ATOM      3  C   UNL     1       3.277   7.779  17.844  0.00  0.00    +0.000 A 
ATOM      4  C   UNL     1       2.915   7.133  19.049  0.00  0.00    +0.000 A 
ATOM      5  C   UNL     1       3.404   5.835  19.282  0.00  0.00    +0.000 A 
ATOM      6  C   UNL     1       4.177   5.179  18.320  0.00  0.00    +0.000 A 
ENDROOT
BRANCH   1  10
ATOM      7  N   UNL     1       7.475   5.071  13.352  0.00  0.00    +0.000 N 
ATOM      8  C   UNL     1       6.595   4.831  14.428  0.00  0.00    +0.000 A 
ATOM      9  N   UNL     1       6.018   5.813  15.143  0.00  0.00    +0.000 NA
ATOM     10  C   UNL     1       5.319   5.158  16.093  0.00  0.00    +0.000 A 
ATOM     11  C   UNL     1       5.472   3.796  15.924  0.00  0.00    +0.000 A 
ATOM     12  N   UNL     1       6.264   3.603  14.860  0.00  0.00    +0.000 N 
ATOM     13  H   UNL     1       7.728   6.036  13.098  0.00  0.00    +0.000 HD
ATOM     14  H   UNL     1       7.919   4.283  12.861  0.00  0.00    +0.000 HD
ATOM     15  H   UNL     1       6.558   2.688  14.462  0.00  0.00    +0.000 HD
ENDBRANCH   1  10
BRANCH   4  16
ATOM     16  N   UNL     1       2.083   7.738  20.047  0.00  0.00    +0.000 N 
ATOM     17  C   UNL     1       1.394   8.917  19.898  0.00  0.00    +0.000 C 
ATOM     18  O   UNL     1       1.420   9.505  18.827  0.00  0.00    +0.000 OA
ATOM     19  H   UNL     1       1.965   7.200  20.913  0.00  0.00    +0.000 HD
BRANCH  17  20
ATOM     20  C   UNL     1       0.552   9.502  20.986  0.00  0.00    +0.000 A 
ATOM     21  C   UNL     1       0.694   8.992  22.295  0.00  0.00    +0.000 A 
ATOM     22  C   UNL     1      -0.069   9.492  23.345  0.00  0.00    +0.000 A 
ATOM     23  C   UNL     1      -0.990  10.511  23.115  0.00  0.00    +0.000 A 
ATOM     24  C   UNL     1      -1.149  11.035  21.831  0.00  0.00    +0.000 A 
ATOM     25  F   UNL     1      -2.047  12.024  21.610  0.00  0.00    +0.000 F 
ATOM     26  C   UNL     1      -0.386  10.539  20.770  0.00  0.00    +0.000 A 
ENDBRANCH  17  20
ENDBRANCH   4  16
TORSDOF 3
ENDMDL
MODEL 9
REMARK VINA RESULT:      -7.4      1.252      1.297
REMARK  Name = 
REMARK  3 active torsions:
REMARK  status: ('A' for Active; 'I' for Inactive)
REMARK    1  A    between atoms: C_4  and  C_5
REMARK    2  A    between atoms: C_8  and  N_9
REMARK    3  A    between atoms: C_10  and  C_12
REMARK                            x       y       z     vdW  Elec       q    Type
REMARK                         _______ _______ _______ _____ _____    ______ ____
ROOT
ATOM      1  C   UNL     1       3.997   6.168  17.736  0.00  0.00    +0.000 A 
ATOM      2  C   UNL     1       3.617   5.603  18.956  0.00  0.00    +0.000 A 
ATOM      3  C   UNL     1       2.742   6.275  19.803  0.00  0.00    +0.000 A 
ATOM      4  C   UNL     1       2.198   7.528  19.436  0.00  0.00    +0.000 A 
ATOM      5  C   UNL     1       2.547   8.063  18.183  0.00  0.00    +0.000 A 
ATOM      6  C   UNL     1       3.454   7.403  17.350  0.00  0.00    +0.000 A 
ENDROOT
BRANCH   1  10
ATOM      7  N   UNL     1       7.545   5.261  14.551  0.00  0.00    +0.000 N 
ATOM      8  C   UNL     1       6.495   5.064  15.473  0.00  0.00    +0.000 A 
ATOM      9  N   UNL     1       5.811   6.074  16.039  0.00  0.00    +0.000 NA
ATOM     10  C   UNL     1       4.959   5.458  16.884  0.00  0.00    +0.000 A 
ATOM     11  C   UNL     1       5.131   4.090  16.800  0.00  0.00    +0.000 A 
ATOM     12  N   UNL     1       6.090   3.854  15.894  0.00  0.00    +0.000 N 
ATOM     13  H   UNL     1       7.842   6.215  14.304  0.00  0.00    +0.000 HD
ATOM     14  H   UNL     1       8.062   4.454  14.175  0.00  0.00    +0.000 HD
ATOM     15  H   UNL     1       6.442   2.924  15.590  0.00  0.00    +0.000 HD
ENDBRANCH   1  10
BRANCH   4  16
ATOM     16  N   UNL     1       1.304   8.273  20.272  0.00  0.00    +0.000 N 
ATOM     17  C   UNL     1       0.922   9.575  20.064  0.00  0.00    +0.000 C 
ATOM     18  O   UNL     1       1.308  10.171  19.070  0.00  0.00    +0.000 OA
ATOM     19  H   UNL     1       0.887   7.751  21.052  0.00  0.00    +0.000 HD
BRANCH  17  20
ATOM     20  C   UNL     1      -0.007  10.300  20.985  0.00  0.00    +0.000 A 
ATOM     21  C   UNL     1      -0.130   9.841  22.315  0.00  0.00    +0.000 A 
ATOM     22  C   UNL     1      -0.985  10.471  23.214  0.00  0.00    +0.000 A 
ATOM     23  C   UNL     1      -1.735  11.572  22.809  0.00  0.00    +0.000 A 
ATOM     24  C   UNL     1      -1.631  12.048  21.500  0.00  0.00    +0.000 A 
ATOM     25  F   UNL     1      -2.364  13.117  21.109  0.00  0.00    +0.000 F 
ATOM     26  C   UNL     1      -0.774  11.421  20.591  0.00  0.00    +0.000 A 
ENDBRANCH  17  20
ENDBRANCH   4  16
TORSDOF 3
ENDMDL
