MODEL 1
REMARK VINA RESULT:      -8.7      0.000      0.000
REMARK  Name = 
REMARK  8 active torsions:
REMARK  status: ('A' for Active; 'I' for Inactive)
REMARK    1  A    between atoms: C_1  and  O_2
REMARK    2  A    between atoms: O_2  and  C_3
REMARK    3  A    between atoms: C_9  and  O_10
REMARK    4  A    between atoms: O_10  and  C_11
REMARK    5  A    between atoms: C_20  and  C_21
REMARK    6  A    between atoms: N_23  and  C_24
REMARK    7  A    between atoms: C_28  and  S_29
REMARK    8  A    between atoms: S_29  and  N_30
REMARK                            x       y       z     vdW  Elec       q    Type
REMARK                         _______ _______ _______ _____ _____    ______ ____
ROOT
ATOM      1  C   UNL     1       5.682   5.937  17.016  0.00  0.00    +0.000 A 
ATOM      2  N   UNL     1       4.983   5.226  16.098  0.00  0.00    +0.000 NA
ATOM      3  C   UNL     1       5.640   4.868  14.987  0.00  0.00    +0.000 A 
ATOM      4  C   UNL     1       5.000   4.033  14.082  0.00  0.00    +0.000 A 
ATOM      5  C   UNL     1       5.650   3.581  12.935  0.00  0.00    +0.000 A 
ATOM      6  C   UNL     1       6.953   3.988  12.682  0.00  0.00    +0.000 A 
ATOM      7  C   UNL     1       7.599   4.846  13.577  0.00  0.00    +0.000 A 
ATOM      8  C   UNL     1       6.971   5.295  14.733  0.00  0.00    +0.000 A 
ATOM      9  N   UNL     1       7.636   6.099  15.592  0.00  0.00    +0.000 NA
ATOM     10  C   UNL     1       6.972   6.406  16.748  0.00  0.00    +0.000 A 
ENDROOT
BRANCH  10  11
ATOM     11  C   UNL     1       7.700   7.296  17.713  0.00  0.00    +0.000 C 
ATOM     12  O   UNL     1       8.158   6.825  18.748  0.00  0.00    +0.000 OA
ATOM     13  N   UNL     1       7.753   8.650  17.371  0.00  0.00    +0.000 N 
ATOM     14  H   UNL     1       7.199   8.925  16.564  0.00  0.00    +0.000 HD
BRANCH  13  15
ATOM     15  C   UNL     1       8.392   9.658  18.137  0.00  0.00    +0.000 A 
ATOM     16  C   UNL     1       9.105   9.363  19.309  0.00  0.00    +0.000 A 
ATOM     17  C   UNL     1       9.690  10.366  20.084  0.00  0.00    +0.000 A 
ATOM     18  C   UNL     1       9.578  11.692  19.697  0.00  0.00    +0.000 A 
ATOM     19  C   UNL     1       8.897  12.002  18.516  0.00  0.00    +0.000 A 
ATOM     20  C   UNL     1       8.311  10.995  17.726  0.00  0.00    +0.000 A 
BRANCH  19  21
ATOM     21  S   UNL     1       8.709  13.710  18.092  0.00  0.00    +0.000 S 
ATOM     22  O   UNL     1       7.490  13.879  17.334  0.00  0.00    +0.000 OA
ATOM     23  O   UNL     1       9.025  14.525  19.241  0.00  0.00    +0.000 OA
BRANCH  21  24
ATOM     24  N   UNL     1       9.965  13.937  17.004  0.00  0.00    +0.000 NA
ATOM     25  H   UNL     1       9.590  14.224  16.100  0.00  0.00    +0.000 HD
ATOM     26  H   UNL     1      10.644  14.594  17.393  0.00  0.00    +0.000 HD
ENDBRANCH  21  24
ENDBRANCH  19  21
ENDBRANCH  13  15
ENDBRANCH  10  11
BRANCH   1  27
ATOM     27  O   UNL     1       5.081   6.256  18.217  0.00  0.00    +0.000 OA
BRANCH  27  34
ATOM     28  C   UNL     1       2.720   5.670  18.741  0.00  0.00    +0.000 A 
ATOM     29  C   UNL     1       1.868   4.682  19.264  0.00  0.00    +0.000 A 
ATOM     30  C   UNL     1       2.389   3.513  19.813  0.00  0.00    +0.000 A 
ATOM     31 CL   UNL     1       1.318   2.315  20.432  0.00  0.00    +0.000 Cl
ATOM     32  C   UNL     1       3.760   3.296  19.842  0.00  0.00    +0.000 A 
ATOM     33  C   UNL     1       4.615   4.267  19.320  0.00  0.00    +0.000 A 
ATOM     34  C   UNL     1       4.109   5.462  18.781  0.00  0.00    +0.000 A 
BRANCH  28  36
ATOM     35  C   UNL     1       2.150   7.952  18.930  0.00  0.00    +0.000 C 
ATOM     36  O   UNL     1       2.225   6.785  18.111  0.00  0.00    +0.000 OA
ENDBRANCH  28  36
ENDBRANCH  27  34
ENDBRANCH   1  27
TORSDOF 7
ENDMDL
MODEL 2
REMARK VINA RESULT:      -8.5      1.596      2.152
REMARK  Name = 
REMARK  8 active torsions:
REMARK  status: ('A' for Active; 'I' for Inactive)
REMARK    1  A    between atoms: C_1  and  O_2
REMARK    2  A    between atoms: O_2  and  C_3
REMARK    3  A    between atoms: C_9  and  O_10
REMARK    4  A    between atoms: O_10  and  C_11
REMARK    5  A    between atoms: C_20  and  C_21
REMARK    6  A    between atoms: N_23  and  C_24
REMARK    7  A    between atoms: C_28  and  S_29
REMARK    8  A    between atoms: S_29  and  N_30
REMARK                            x       y       z     vdW  Elec       q    Type
REMARK                         _______ _______ _______ _____ _____    ______ ____
ROOT
ATOM      1  C   UNL     1       5.784   5.316  16.801  0.00  0.00    +0.000 A 
ATOM      2  N   UNL     1       5.153   4.594  15.844  0.00  0.00    +0.000 NA
ATOM      3  C   UNL     1       5.788   4.465  14.671  0.00  0.00    +0.000 A 
ATOM      4  C   UNL     1       5.237   3.630  13.710  0.00  0.00    +0.000 A 
ATOM      5  C   UNL     1       5.877   3.410  12.492  0.00  0.00    +0.000 A 
ATOM      6  C   UNL     1       7.079   4.053  12.227  0.00  0.00    +0.000 A 
ATOM      7  C   UNL     1       7.633   4.914  13.180  0.00  0.00    +0.000 A 
ATOM      8  C   UNL     1       7.014   5.132  14.405  0.00  0.00    +0.000 A 
ATOM      9  N   UNL     1       7.593   5.946  15.316  0.00  0.00    +0.000 NA
ATOM     10  C   UNL     1       6.961   6.019  16.528  0.00  0.00    +0.000 A 
ENDROOT
BRANCH  10  11
ATOM     11  C   UNL     1       7.595   6.917  17.551  0.00  0.00    +0.000 C 
ATOM     12  O   UNL     1       7.903   6.467  18.648  0.00  0.00    +0.000 OA
ATOM     13  N   UNL     1       7.738   8.257  17.179  0.00  0.00    +0.000 N 
ATOM     14  H   UNL     1       7.299   8.522  16.301  0.00  0.00    +0.000 HD
BRANCH  13  15
ATOM     15  C   UNL     1       8.312   9.269  17.990  0.00  0.00    +0.000 A 
ATOM     16  C   UNL     1       8.963   8.976  19.198  0.00  0.00    +0.000 A 
ATOM     17  C   UNL     1       9.483   9.981  20.014  0.00  0.00    +0.000 A 
ATOM     18  C   UNL     1       9.365  11.309  19.635  0.00  0.00    +0.000 A 
ATOM     19  C   UNL     1       8.746  11.618  18.420  0.00  0.00    +0.000 A 
ATOM     20  C   UNL     1       8.226  10.609  17.588  0.00  0.00    +0.000 A 
BRANCH  19  21
ATOM     21  S   UNL     1       8.548  13.326  18.003  0.00  0.00    +0.000 S 
ATOM     22  O   UNL     1       7.353  13.484  17.205  0.00  0.00    +0.000 OA
ATOM     23  O   UNL     1       8.813  14.137  19.167  0.00  0.00    +0.000 OA
BRANCH  21  24
ATOM     24  N   UNL     1       9.836  13.580  16.959  0.00  0.00    +0.000 NA
ATOM     25  H   UNL     1       9.603  14.320  16.297  0.00  0.00    +0.000 HD
ATOM     26  H   UNL     1      10.684  13.765  17.497  0.00  0.00    +0.000 HD
ENDBRANCH  21  24
ENDBRANCH  19  21
ENDBRANCH  13  15
ENDBRANCH  10  11
BRANCH   1  27
ATOM     27  O   UNL     1       5.215   5.407  18.056  0.00  0.00    +0.000 OA
BRANCH  27  34
ATOM     28  C   UNL     1       3.168   6.016  19.334  0.00  0.00    +0.000 A 
ATOM     29  C   UNL     1       2.164   6.983  19.505  0.00  0.00    +0.000 A 
ATOM     30  C   UNL     1       2.095   8.093  18.666  0.00  0.00    +0.000 A 
ATOM     31 CL   UNL     1       0.862   9.268  18.912  0.00  0.00    +0.000 Cl
ATOM     32  C   UNL     1       3.027   8.270  17.652  0.00  0.00    +0.000 A 
ATOM     33  C   UNL     1       4.032   7.319  17.477  0.00  0.00    +0.000 A 
ATOM     34  C   UNL     1       4.104   6.182  18.299  0.00  0.00    +0.000 A 
BRANCH  28  36
ATOM     35  C   UNL     1       2.168   4.703  21.020  0.00  0.00    +0.000 C 
ATOM     36  O   UNL     1       3.311   4.965  20.206  0.00  0.00    +0.000 OA
ENDBRANCH  28  36
ENDBRANCH  27  34
ENDBRANCH   1  27
TORSDOF 7
ENDMDL
MODEL 3
REMARK VINA RESULT:      -8.5      0.997      1.142
REMARK  Name = 
REMARK  8 active torsions:
REMARK  status: ('A' for Active; 'I' for Inactive)
REMARK    1  A    between atoms: C_1  and  O_2
REMARK    2  A    between atoms: O_2  and  C_3
REMARK    3  A    between atoms: C_9  and  O_10
REMARK    4  A    between atoms: O_10  and  C_11
REMARK    5  A    between atoms: C_20  and  C_21
REMARK    6  A    between atoms: N_23  and  C_24
REMARK    7  A    between atoms: C_28  and  S_29
REMARK    8  A    between atoms: S_29  and  N_30
REMARK                            x       y       z     vdW  Elec       q    Type
REMARK                         _______ _______ _______ _____ _____    ______ ____
ROOT
ATOM      1  C   UNL     1       5.734   6.128  17.368  0.00  0.00    +0.000 A 
ATOM      2  N   UNL     1       4.968   5.450  16.479  0.00  0.00    +0.000 NA
ATOM      3  C   UNL     1       5.570   5.045  15.353  0.00  0.00    +0.000 A 
ATOM      4  C   UNL     1       4.857   4.239  14.477  0.00  0.00    +0.000 A 
ATOM      5  C   UNL     1       5.445   3.740  13.316  0.00  0.00    +0.000 A 
ATOM      6  C   UNL     1       6.761   4.071  13.019  0.00  0.00    +0.000 A 
ATOM      7  C   UNL     1       7.481   4.899  13.885  0.00  0.00    +0.000 A 
ATOM      8  C   UNL     1       6.915   5.393  15.054  0.00  0.00    +0.000 A 
ATOM      9  N   UNL     1       7.650   6.166  15.884  0.00  0.00    +0.000 NA
ATOM     10  C   UNL     1       7.040   6.521  17.057  0.00  0.00    +0.000 A 
ENDROOT
BRANCH  10  11
ATOM     11  C   UNL     1       7.846   7.377  17.989  0.00  0.00    +0.000 C 
ATOM     12  O   UNL     1       8.326   6.885  19.005  0.00  0.00    +0.000 OA
ATOM     13  N   UNL     1       7.943   8.728  17.645  0.00  0.00    +0.000 N 
ATOM     14  H   UNL     1       7.368   9.028  16.862  0.00  0.00    +0.000 HD
BRANCH  13  15
ATOM     15  C   UNL     1       8.657   9.706  18.383  0.00  0.00    +0.000 A 
ATOM     16  C   UNL     1       8.877   9.584  19.764  0.00  0.00    +0.000 A 
ATOM     17  C   UNL     1       9.539  10.573  20.492  0.00  0.00    +0.000 A 
ATOM     18  C   UNL     1      10.001  11.711  19.849  0.00  0.00    +0.000 A 
ATOM     19  C   UNL     1       9.818  11.836  18.470  0.00  0.00    +0.000 A 
ATOM     20  C   UNL     1       9.159  10.838  17.728  0.00  0.00    +0.000 A 
BRANCH  19  21
ATOM     21  S   UNL     1      10.355  13.334  17.695  0.00  0.00    +0.000 S 
ATOM     22  O   UNL     1      11.005  14.171  18.677  0.00  0.00    +0.000 OA
ATOM     23  O   UNL     1      10.961  13.023  16.422  0.00  0.00    +0.000 OA
BRANCH  21  24
ATOM     24  N   UNL     1       8.897  14.083  17.342  0.00  0.00    +0.000 NA
ATOM     25  H   UNL     1       8.679  14.770  18.064  0.00  0.00    +0.000 HD
ATOM     26  H   UNL     1       8.930  14.476  16.400  0.00  0.00    +0.000 HD
ENDBRANCH  21  24
ENDBRANCH  19  21
ENDBRANCH  13  15
ENDBRANCH  10  11
BRANCH   1  27
ATOM     27  O   UNL     1       5.189   6.492  18.583  0.00  0.00    +0.000 OA
BRANCH  27  34
ATOM     28  C   UNL     1       2.892   6.212  19.498  0.00  0.00    +0.000 A 
ATOM     29  C   UNL     1       1.954   5.289  19.990  0.00  0.00    +0.000 A 
ATOM     30  C   UNL     1       2.296   3.949  20.159  0.00  0.00    +0.000 A 
ATOM     31 CL   UNL     1       1.119   2.840  20.749  0.00  0.00    +0.000 Cl
ATOM     32  C   UNL     1       3.568   3.499  19.832  0.00  0.00    +0.000 A 
ATOM     33  C   UNL     1       4.505   4.405  19.337  0.00  0.00    +0.000 A 
ATOM     34  C   UNL     1       4.185   5.764  19.180  0.00  0.00    +0.000 A 
BRANCH  28  36
ATOM     35  C   UNL     1       2.284   7.800  17.862  0.00  0.00    +0.000 C 
ATOM     36  O   UNL     1       2.548   7.515  19.236  0.00  0.00    +0.000 OA
ENDBRANCH  28  36
ENDBRANCH  27  34
ENDBRANCH   1  27
TORSDOF 7
ENDMDL
MODEL 4
REMARK VINA RESULT:      -8.5      0.936      1.073
REMARK  Name = 
REMARK  8 active torsions:
REMARK  status: ('A' for Active; 'I' for Inactive)
REMARK    1  A    between atoms: C_1  and  O_2
REMARK    2  A    between atoms: O_2  and  C_3
REMARK    3  A    between atoms: C_9  and  O_10
REMARK    4  A    between atoms: O_10  and  C_11
REMARK    5  A    between atoms: C_20  and  C_21
REMARK    6  A    between atoms: N_23  and  C_24
REMARK    7  A    between atoms: C_28  and  S_29
REMARK    8  A    between atoms: S_29  and  N_30
REMARK                            x       y       z     vdW  Elec       q    Type
REMARK                         _______ _______ _______ _____ _____    ______ ____
ROOT
ATOM      1  C   UNL     1       6.157   5.116  16.967  0.00  0.00    +0.000 A 
ATOM      2  N   UNL     1       5.563   4.337  16.031  0.00  0.00    +0.000 NA
ATOM      3  C   UNL     1       6.090   4.370  14.799  0.00  0.00    +0.000 A 
ATOM      4  C   UNL     1       5.594   3.494  13.845  0.00  0.00    +0.000 A 
ATOM      5  C   UNL     1       6.137   3.441  12.563  0.00  0.00    +0.000 A 
ATOM      6  C   UNL     1       7.181   4.293  12.227  0.00  0.00    +0.000 A 
ATOM      7  C   UNL     1       7.674   5.195  13.175  0.00  0.00    +0.000 A 
ATOM      8  C   UNL     1       7.154   5.250  14.462  0.00  0.00    +0.000 A 
ATOM      9  N   UNL     1       7.676   6.113  15.363  0.00  0.00    +0.000 NA
ATOM     10  C   UNL     1       7.166   6.023  16.630  0.00  0.00    +0.000 A 
ENDROOT
BRANCH  10  11
ATOM     11  C   UNL     1       7.739   6.973  17.642  0.00  0.00    +0.000 C 
ATOM     12  O   UNL     1       8.018   6.569  18.765  0.00  0.00    +0.000 OA
ATOM     13  N   UNL     1       7.861   8.302  17.228  0.00  0.00    +0.000 N 
ATOM     14  H   UNL     1       7.448   8.525  16.326  0.00  0.00    +0.000 HD
BRANCH  13  15
ATOM     15  C   UNL     1       8.379   9.357  18.022  0.00  0.00    +0.000 A 
ATOM     16  C   UNL     1       9.026   9.120  19.244  0.00  0.00    +0.000 A 
ATOM     17  C   UNL     1       9.491  10.166  20.044  0.00  0.00    +0.000 A 
ATOM     18  C   UNL     1       9.321  11.478  19.631  0.00  0.00    +0.000 A 
ATOM     19  C   UNL     1       8.706  11.732  18.402  0.00  0.00    +0.000 A 
ATOM     20  C   UNL     1       8.242  10.682  17.588  0.00  0.00    +0.000 A 
BRANCH  19  21
ATOM     21  S   UNL     1       8.439  13.420  17.942  0.00  0.00    +0.000 S 
ATOM     22  O   UNL     1       9.671  13.972  17.426  0.00  0.00    +0.000 OA
ATOM     23  O   UNL     1       7.186  13.530  17.234  0.00  0.00    +0.000 OA
BRANCH  21  24
ATOM     24  N   UNL     1       8.194  14.150  19.431  0.00  0.00    +0.000 NA
ATOM     25  H   UNL     1       8.785  14.978  19.511  0.00  0.00    +0.000 HD
ATOM     26  H   UNL     1       7.199  14.345  19.561  0.00  0.00    +0.000 HD
ENDBRANCH  21  24
ENDBRANCH  19  21
ENDBRANCH  13  15
ENDBRANCH  10  11
BRANCH   1  27
ATOM     27  O   UNL     1       5.710   5.054  18.272  0.00  0.00    +0.000 OA
BRANCH  27  34
ATOM     28  C   UNL     1       3.244   5.373  18.370  0.00  0.00    +0.000 A 
ATOM     29  C   UNL     1       2.013   4.752  18.640  0.00  0.00    +0.000 A 
ATOM     30  C   UNL     1       1.966   3.443  19.115  0.00  0.00    +0.000 A 
ATOM     31 CL   UNL     1       0.442   2.705  19.421  0.00  0.00    +0.000 Cl
ATOM     32  C   UNL     1       3.136   2.724  19.317  0.00  0.00    +0.000 A 
ATOM     33  C   UNL     1       4.364   3.328  19.047  0.00  0.00    +0.000 A 
ATOM     34  C   UNL     1       4.432   4.655  18.588  0.00  0.00    +0.000 A 
BRANCH  28  36
ATOM     35  C   UNL     1       2.445   7.593  18.411  0.00  0.00    +0.000 C 
ATOM     36  O   UNL     1       3.310   6.627  17.814  0.00  0.00    +0.000 OA
ENDBRANCH  28  36
ENDBRANCH  27  34
ENDBRANCH   1  27
TORSDOF 7
ENDMDL
MODEL 5
REMARK VINA RESULT:      -8.4      5.998      9.716
REMARK  Name = 
REMARK  8 active torsions:
REMARK  status: ('A' for Active; 'I' for Inactive)
REMARK    1  A    between atoms: C_1  and  O_2
REMARK    2  A    between atoms: O_2  and  C_3
REMARK    3  A    between atoms: C_9  and  O_10
REMARK    4  A    between atoms: O_10  and  C_11
REMARK    5  A    between atoms: C_20  and  C_21
REMARK    6  A    between atoms: N_23  and  C_24
REMARK    7  A    between atoms: C_28  and  S_29
REMARK    8  A    between atoms: S_29  and  N_30
REMARK                            x       y       z     vdW  Elec       q    Type
REMARK                         _______ _______ _______ _____ _____    ______ ____
ROOT
ATOM      1  C   UNL     1      -0.176  11.575  18.705  0.00  0.00    +0.000 A 
ATOM      2  N   UNL     1      -0.311  12.909  18.904  0.00  0.00    +0.000 NA
ATOM      3  C   UNL     1       0.791  13.655  18.752  0.00  0.00    +0.000 A 
ATOM      4  C   UNL     1       0.669  15.035  18.821  0.00  0.00    +0.000 A 
ATOM      5  C   UNL     1       1.767  15.867  18.616  0.00  0.00    +0.000 A 
ATOM      6  C   UNL     1       3.011  15.306  18.356  0.00  0.00    +0.000 A 
ATOM      7  C   UNL     1       3.149  13.916  18.305  0.00  0.00    +0.000 A 
ATOM      8  C   UNL     1       2.061  13.072  18.493  0.00  0.00    +0.000 A 
ATOM      9  N   UNL     1       2.224  11.733  18.406  0.00  0.00    +0.000 NA
ATOM     10  C   UNL     1       1.079  10.990  18.505  0.00  0.00    +0.000 A 
ENDROOT
BRANCH  10  11
ATOM     11  C   UNL     1       1.245   9.502  18.407  0.00  0.00    +0.000 C 
ATOM     12  O   UNL     1       0.801   8.903  17.434  0.00  0.00    +0.000 OA
ATOM     13  N   UNL     1       1.866   8.886  19.497  0.00  0.00    +0.000 N 
ATOM     14  H   UNL     1       2.044   9.482  20.301  0.00  0.00    +0.000 HD
BRANCH  13  15
ATOM     15  C   UNL     1       2.124   7.495  19.607  0.00  0.00    +0.000 A 
ATOM     16  C   UNL     1       1.503   6.697  20.579  0.00  0.00    +0.000 A 
ATOM     17  C   UNL     1       1.797   5.339  20.712  0.00  0.00    +0.000 A 
ATOM     18  C   UNL     1       2.722   4.747  19.866  0.00  0.00    +0.000 A 
ATOM     19  C   UNL     1       3.328   5.520  18.872  0.00  0.00    +0.000 A 
ATOM     20  C   UNL     1       3.030   6.888  18.728  0.00  0.00    +0.000 A 
BRANCH  19  21
ATOM     21  S   UNL     1       4.558   4.750  17.859  0.00  0.00    +0.000 S 
ATOM     22  O   UNL     1       3.908   3.903  16.884  0.00  0.00    +0.000 OA
ATOM     23  O   UNL     1       5.556   5.726  17.493  0.00  0.00    +0.000 OA
BRANCH  21  24
ATOM     24  N   UNL     1       5.303   3.713  18.946  0.00  0.00    +0.000 NA
ATOM     25  H   UNL     1       4.598   3.264  19.532  0.00  0.00    +0.000 HD
ATOM     26  H   UNL     1       5.896   3.052  18.442  0.00  0.00    +0.000 HD
ENDBRANCH  21  24
ENDBRANCH  19  21
ENDBRANCH  13  15
ENDBRANCH  10  11
BRANCH   1  27
ATOM     27  O   UNL     1      -1.296  10.771  18.763  0.00  0.00    +0.000 OA
BRANCH  27  34
ATOM     28  C   UNL     1      -3.064  10.925  17.019  0.00  0.00    +0.000 A 
ATOM     29  C   UNL     1      -4.385  11.322  16.750  0.00  0.00    +0.000 A 
ATOM     30  C   UNL     1      -5.146  11.963  17.725  0.00  0.00    +0.000 A 
ATOM     31 CL   UNL     1      -6.767  12.422  17.370  0.00  0.00    +0.000 Cl
ATOM     32  C   UNL     1      -4.617  12.209  18.985  0.00  0.00    +0.000 A 
ATOM     33  C   UNL     1      -3.309  11.814  19.264  0.00  0.00    +0.000 A 
ATOM     34  C   UNL     1      -2.519  11.186  18.287  0.00  0.00    +0.000 A 
BRANCH  28  36
ATOM     35  C   UNL     1      -2.895  10.149  14.797  0.00  0.00    +0.000 C 
ATOM     36  O   UNL     1      -2.329  10.210  16.105  0.00  0.00    +0.000 OA
ENDBRANCH  28  36
ENDBRANCH  27  34
ENDBRANCH   1  27
TORSDOF 7
ENDMDL
MODEL 6
REMARK VINA RESULT:      -8.2      6.105      9.977
REMARK  Name = 
REMARK  8 active torsions:
REMARK  status: ('A' for Active; 'I' for Inactive)
REMARK    1  A    between atoms: C_1  and  O_2
REMARK    2  A    between atoms: O_2  and  C_3
REMARK    3  A    between atoms: C_9  and  O_10
REMARK    4  A    between atoms: O_10  and  C_11
REMARK    5  A    between atoms: C_20  and  C_21
REMARK    6  A    between atoms: N_23  and  C_24
REMARK    7  A    between atoms: C_28  and  S_29
REMARK    8  A    between atoms: S_29  and  N_30
REMARK                            x       y       z     vdW  Elec       q    Type
REMARK                         _______ _______ _______ _____ _____    ______ ____
ROOT
ATOM      1  C   UNL     1       0.207  11.223  19.160  0.00  0.00    +0.000 A 
ATOM      2  N   UNL     1      -0.908  11.969  19.348  0.00  0.00    +0.000 NA
ATOM      3  C   UNL     1      -2.038  11.515  18.788  0.00  0.00    +0.000 A 
ATOM      4  C   UNL     1      -3.224  12.179  19.063  0.00  0.00    +0.000 A 
ATOM      5  C   UNL     1      -4.439  11.724  18.556  0.00  0.00    +0.000 A 
ATOM      6  C   UNL     1      -4.462  10.596  17.746  0.00  0.00    +0.000 A 
ATOM      7  C   UNL     1      -3.269   9.932  17.445  0.00  0.00    +0.000 A 
ATOM      8  C   UNL     1      -2.051  10.365  17.955  0.00  0.00    +0.000 A 
ATOM      9  N   UNL     1      -0.920   9.680  17.669  0.00  0.00    +0.000 NA
ATOM     10  C   UNL     1       0.212  10.123  18.297  0.00  0.00    +0.000 A 
ENDROOT
BRANCH  10  11
ATOM     11  C   UNL     1       1.474   9.370  17.991  0.00  0.00    +0.000 C 
ATOM     12  O   UNL     1       2.375   9.920  17.368  0.00  0.00    +0.000 OA
ATOM     13  N   UNL     1       1.503   8.036  18.406  0.00  0.00    +0.000 N 
ATOM     14  H   UNL     1       0.629   7.667  18.773  0.00  0.00    +0.000 HD
BRANCH  13  15
ATOM     15  C   UNL     1       2.595   7.149  18.221  0.00  0.00    +0.000 A 
ATOM     16  C   UNL     1       3.715   7.498  17.451  0.00  0.00    +0.000 A 
ATOM     17  C   UNL     1       4.764   6.603  17.234  0.00  0.00    +0.000 A 
ATOM     18  C   UNL     1       4.715   5.335  17.790  0.00  0.00    +0.000 A 
ATOM     19  C   UNL     1       3.622   4.981  18.586  0.00  0.00    +0.000 A 
ATOM     20  C   UNL     1       2.565   5.881  18.815  0.00  0.00    +0.000 A 
BRANCH  19  21
ATOM     21  S   UNL     1       3.558   3.329  19.218  0.00  0.00    +0.000 S 
ATOM     22  O   UNL     1       3.004   3.353  20.553  0.00  0.00    +0.000 OA
ATOM     23  O   UNL     1       3.064   2.442  18.192  0.00  0.00    +0.000 OA
BRANCH  21  24
ATOM     24  N   UNL     1       5.185   2.965  19.401  0.00  0.00    +0.000 NA
ATOM     25  H   UNL     1       5.691   3.211  18.549  0.00  0.00    +0.000 HD
ATOM     26  H   UNL     1       5.549   3.421  20.239  0.00  0.00    +0.000 HD
ENDBRANCH  21  24
ENDBRANCH  19  21
ENDBRANCH  13  15
ENDBRANCH  10  11
BRANCH   1  27
ATOM     27  O   UNL     1       1.379  11.597  19.787  0.00  0.00    +0.000 OA
BRANCH  27  34
ATOM     28  C   UNL     1       1.953  13.854  20.664  0.00  0.00    +0.000 A 
ATOM     29  C   UNL     1       2.637  15.052  20.398  0.00  0.00    +0.000 A 
ATOM     30  C   UNL     1       3.255  15.260  19.167  0.00  0.00    +0.000 A 
ATOM     31 CL   UNL     1       4.099  16.733  18.879  0.00  0.00    +0.000 Cl
ATOM     32  C   UNL     1       3.216  14.281  18.184  0.00  0.00    +0.000 A 
ATOM     33  C   UNL     1       2.545  13.085  18.439  0.00  0.00    +0.000 A 
ATOM     34  C   UNL     1       1.898  12.866  19.667  0.00  0.00    +0.000 A 
BRANCH  28  36
ATOM     35  C   UNL     1       0.090  14.073  22.095  0.00  0.00    +0.000 C 
ATOM     36  O   UNL     1       1.419  13.591  21.901  0.00  0.00    +0.000 OA
ENDBRANCH  28  36
ENDBRANCH  27  34
ENDBRANCH   1  27
TORSDOF 7
ENDMDL
MODEL 7
REMARK VINA RESULT:      -8.2      6.317      9.991
REMARK  Name = 
REMARK  8 active torsions:
REMARK  status: ('A' for Active; 'I' for Inactive)
REMARK    1  A    between atoms: C_1  and  O_2
REMARK    2  A    between atoms: O_2  and  C_3
REMARK    3  A    between atoms: C_9  and  O_10
REMARK    4  A    between atoms: O_10  and  C_11
REMARK    5  A    between atoms: C_20  and  C_21
REMARK    6  A    between atoms: N_23  and  C_24
REMARK    7  A    between atoms: C_28  and  S_29
REMARK    8  A    between atoms: S_29  and  N_30
REMARK                            x       y       z     vdW  Elec       q    Type
REMARK                         _______ _______ _______ _____ _____    ______ ____
ROOT
ATOM      1  C   UNL     1      -0.669  12.316  19.584  0.00  0.00    +0.000 A 
ATOM      2  N   UNL     1      -1.047  13.584  19.291  0.00  0.00    +0.000 NA
ATOM      3  C   UNL     1      -0.074  14.503  19.231  0.00  0.00    +0.000 A 
ATOM      4  C   UNL     1      -0.400  15.784  18.809  0.00  0.00    +0.000 A 
ATOM      5  C   UNL     1       0.576  16.769  18.673  0.00  0.00    +0.000 A 
ATOM      6  C   UNL     1       1.896  16.470  18.982  0.00  0.00    +0.000 A 
ATOM      7  C   UNL     1       2.233  15.188  19.428  0.00  0.00    +0.000 A 
ATOM      8  C   UNL     1       1.274  14.190  19.556  0.00  0.00    +0.000 A 
ATOM      9  N   UNL     1       1.639  12.953  19.960  0.00  0.00    +0.000 NA
ATOM     10  C   UNL     1       0.644  12.014  19.959  0.00  0.00    +0.000 A 
ENDROOT
BRANCH  10  11
ATOM     11  C   UNL     1       1.036  10.634  20.403  0.00  0.00    +0.000 C 
ATOM     12  O   UNL     1       1.194  10.401  21.596  0.00  0.00    +0.000 OA
ATOM     13  N   UNL     1       1.254   9.705  19.382  0.00  0.00    +0.000 N 
ATOM     14  H   UNL     1       1.238  10.075  18.435  0.00  0.00    +0.000 HD
BRANCH  13  15
ATOM     15  C   UNL     1       1.627   8.351  19.581  0.00  0.00    +0.000 A 
ATOM     16  C   UNL     1       1.211   7.621  20.704  0.00  0.00    +0.000 A 
ATOM     17  C   UNL     1       1.621   6.304  20.917  0.00  0.00    +0.000 A 
ATOM     18  C   UNL     1       2.458   5.685  20.002  0.00  0.00    +0.000 A 
ATOM     19  C   UNL     1       2.857   6.387  18.861  0.00  0.00    +0.000 A 
ATOM     20  C   UNL     1       2.441   7.712  18.636  0.00  0.00    +0.000 A 
BRANCH  19  21
ATOM     21  S   UNL     1       3.984   5.592  17.752  0.00  0.00    +0.000 S 
ATOM     22  O   UNL     1       3.409   4.344  17.303  0.00  0.00    +0.000 OA
ATOM     23  O   UNL     1       4.523   6.569  16.836  0.00  0.00    +0.000 OA
BRANCH  21  24
ATOM     24  N   UNL     1       5.245   5.176  18.777  0.00  0.00    +0.000 NA
ATOM     25  H   UNL     1       6.021   4.801  18.234  0.00  0.00    +0.000 HD
ATOM     26  H   UNL     1       5.500   5.980  19.354  0.00  0.00    +0.000 HD
ENDBRANCH  21  24
ENDBRANCH  19  21
ENDBRANCH  13  15
ENDBRANCH  10  11
BRANCH   1  27
ATOM     27  O   UNL     1      -1.618  11.314  19.573  0.00  0.00    +0.000 OA
BRANCH  27  34
ATOM     28  C   UNL     1      -3.628  11.431  18.110  0.00  0.00    +0.000 A 
ATOM     29  C   UNL     1      -4.152  11.110  16.847  0.00  0.00    +0.000 A 
ATOM     30  C   UNL     1      -3.401  10.376  15.932  0.00  0.00    +0.000 A 
ATOM     31 CL   UNL     1      -4.066  10.012  14.386  0.00  0.00    +0.000 Cl
ATOM     32  C   UNL     1      -2.116   9.958  16.247  0.00  0.00    +0.000 A 
ATOM     33  C   UNL     1      -1.583  10.276  17.497  0.00  0.00    +0.000 A 
ATOM     34  C   UNL     1      -2.333  10.998  18.441  0.00  0.00    +0.000 A 
BRANCH  28  36
ATOM     35  C   UNL     1      -5.667  12.502  18.627  0.00  0.00    +0.000 C 
ATOM     36  O   UNL     1      -4.313  12.233  18.990  0.00  0.00    +0.000 OA
ENDBRANCH  28  36
ENDBRANCH  27  34
ENDBRANCH   1  27
TORSDOF 7
ENDMDL
MODEL 8
REMARK VINA RESULT:      -8.1      5.867      9.343
REMARK  Name = 
REMARK  8 active torsions:
REMARK  status: ('A' for Active; 'I' for Inactive)
REMARK    1  A    between atoms: C_1  and  O_2
REMARK    2  A    between atoms: O_2  and  C_3
REMARK    3  A    between atoms: C_9  and  O_10
REMARK    4  A    between atoms: O_10  and  C_11
REMARK    5  A    between atoms: C_20  and  C_21
REMARK    6  A    between atoms: N_23  and  C_24
REMARK    7  A    between atoms: C_28  and  S_29
REMARK    8  A    between atoms: S_29  and  N_30
REMARK                            x       y       z     vdW  Elec       q    Type
REMARK                         _______ _______ _______ _____ _____    ______ ____
ROOT
ATOM      1  C   UNL     1      -0.379  11.598  18.940  0.00  0.00    +0.000 A 
ATOM      2  N   UNL     1      -0.743  12.903  18.986  0.00  0.00    +0.000 NA
ATOM      3  C   UNL     1       0.246  13.805  18.929  0.00  0.00    +0.000 A 
ATOM      4  C   UNL     1      -0.090  15.148  18.845  0.00  0.00    +0.000 A 
ATOM      5  C   UNL     1       0.891  16.131  18.727  0.00  0.00    +0.000 A 
ATOM      6  C   UNL     1       2.230  15.762  18.715  0.00  0.00    +0.000 A 
ATOM      7  C   UNL     1       2.580  14.413  18.821  0.00  0.00    +0.000 A 
ATOM      8  C   UNL     1       1.614  13.419  18.924  0.00  0.00    +0.000 A 
ATOM      9  N   UNL     1       1.987  12.121  18.993  0.00  0.00    +0.000 NA
ATOM     10  C   UNL     1       0.964  11.212  18.990  0.00  0.00    +0.000 A 
ENDROOT
BRANCH  10  11
ATOM     11  C   UNL     1       1.364   9.767  19.064  0.00  0.00    +0.000 C 
ATOM     12  O   UNL     1       1.102   9.115  20.069  0.00  0.00    +0.000 OA
ATOM     13  N   UNL     1       2.077   9.276  17.968  0.00  0.00    +0.000 N 
ATOM     14  H   UNL     1       2.357   9.967  17.276  0.00  0.00    +0.000 HD
BRANCH  13  15
ATOM     15  C   UNL     1       2.546   7.944  17.833  0.00  0.00    +0.000 A 
ATOM     16  C   UNL     1       1.762   6.838  18.195  0.00  0.00    +0.000 A 
ATOM     17  C   UNL     1       2.248   5.533  18.104  0.00  0.00    +0.000 A 
ATOM     18  C   UNL     1       3.534   5.306  17.642  0.00  0.00    +0.000 A 
ATOM     19  C   UNL     1       4.319   6.393  17.248  0.00  0.00    +0.000 A 
ATOM     20  C   UNL     1       3.832   7.711  17.329  0.00  0.00    +0.000 A 
BRANCH  19  21
ATOM     21  S   UNL     1       5.981   6.072  16.733  0.00  0.00    +0.000 S 
ATOM     22  O   UNL     1       6.552   5.049  17.579  0.00  0.00    +0.000 OA
ATOM     23  O   UNL     1       6.030   6.000  15.292  0.00  0.00    +0.000 OA
BRANCH  21  24
ATOM     24  N   UNL     1       6.755   7.501  17.151  0.00  0.00    +0.000 NA
ATOM     25  H   UNL     1       7.603   7.291  17.678  0.00  0.00    +0.000 HD
ATOM     26  H   UNL     1       6.921   8.061  16.314  0.00  0.00    +0.000 HD
ENDBRANCH  21  24
ENDBRANCH  19  21
ENDBRANCH  13  15
ENDBRANCH  10  11
BRANCH   1  27
ATOM     27  O   UNL     1      -1.362  10.629  18.907  0.00  0.00    +0.000 OA
BRANCH  27  34
ATOM     28  C   UNL     1      -3.445  11.099  17.628  0.00  0.00    +0.000 A 
ATOM     29  C   UNL     1      -4.106  10.923  16.401  0.00  0.00    +0.000 A 
ATOM     30  C   UNL     1      -3.539  10.147  15.392  0.00  0.00    +0.000 A 
ATOM     31 CL   UNL     1      -4.368   9.965  13.895  0.00  0.00    +0.000 Cl
ATOM     32  C   UNL     1      -2.303   9.543  15.578  0.00  0.00    +0.000 A 
ATOM     33  C   UNL     1      -1.635   9.715  16.790  0.00  0.00    +0.000 A 
ATOM     34  C   UNL     1      -2.201  10.477  17.826  0.00  0.00    +0.000 A 
BRANCH  28  36
ATOM     35  C   UNL     1      -5.342  12.185  18.515  0.00  0.00    +0.000 C 
ATOM     36  O   UNL     1      -3.940  11.935  18.598  0.00  0.00    +0.000 OA
ENDBRANCH  28  36
ENDBRANCH  27  34
ENDBRANCH   1  27
TORSDOF 7
ENDMDL
MODEL 9
REMARK VINA RESULT:      -8.1      3.897      6.889
REMARK  Name = 
REMARK  8 active torsions:
REMARK  status: ('A' for Active; 'I' for Inactive)
REMARK    1  A    between atoms: C_1  and  O_2
REMARK    2  A    between atoms: O_2  and  C_3
REMARK    3  A    between atoms: C_9  and  O_10
REMARK    4  A    between atoms: O_10  and  C_11
REMARK    5  A    between atoms: C_20  and  C_21
REMARK    6  A    between atoms: N_23  and  C_24
REMARK    7  A    between atoms: C_28  and  S_29
REMARK    8  A    between atoms: S_29  and  N_30
REMARK                            x       y       z     vdW  Elec       q    Type
REMARK                         _______ _______ _______ _____ _____    ______ ____
ROOT
ATOM      1  C   UNL     1       3.847   6.264  18.763  0.00  0.00    +0.000 A 
ATOM      2  N   UNL     1       4.268   5.100  19.314  0.00  0.00    +0.000 NA
ATOM      3  C   UNL     1       3.351   4.380  19.974  0.00  0.00    +0.000 A 
ATOM      4  C   UNL     1       3.709   3.124  20.442  0.00  0.00    +0.000 A 
ATOM      5  C   UNL     1       2.785   2.304  21.086  0.00  0.00    +0.000 A 
ATOM      6  C   UNL     1       1.487   2.758  21.280  0.00  0.00    +0.000 A 
ATOM      7  C   UNL     1       1.121   4.031  20.831  0.00  0.00    +0.000 A 
ATOM      8  C   UNL     1       2.027   4.855  20.174  0.00  0.00    +0.000 A 
ATOM      9  N   UNL     1       1.631   6.068  19.725  0.00  0.00    +0.000 NA
ATOM     10  C   UNL     1       2.563   6.763  19.003  0.00  0.00    +0.000 A 
ENDROOT
BRANCH  10  11
ATOM     11  C   UNL     1       2.135   8.110  18.496  0.00  0.00    +0.000 C 
ATOM     12  O   UNL     1       2.527   8.500  17.402  0.00  0.00    +0.000 OA
ATOM     13  N   UNL     1       1.343   8.864  19.365  0.00  0.00    +0.000 N 
ATOM     14  H   UNL     1       1.224   8.483  20.300  0.00  0.00    +0.000 HD
BRANCH  13  15
ATOM     15  C   UNL     1       0.830  10.156  19.084  0.00  0.00    +0.000 A 
ATOM     16  C   UNL     1      -0.486  10.355  18.640  0.00  0.00    +0.000 A 
ATOM     17  C   UNL     1      -0.969  11.625  18.319  0.00  0.00    +0.000 A 
ATOM     18  C   UNL     1      -0.141  12.729  18.441  0.00  0.00    +0.000 A 
ATOM     19  C   UNL     1       1.164  12.555  18.911  0.00  0.00    +0.000 A 
ATOM     20  C   UNL     1       1.655  11.278  19.243  0.00  0.00    +0.000 A 
BRANCH  19  21
ATOM     21  S   UNL     1       2.216  13.976  18.984  0.00  0.00    +0.000 S 
ATOM     22  O   UNL     1       1.431  15.162  18.727  0.00  0.00    +0.000 OA
ATOM     23  O   UNL     1       3.095  13.862  20.123  0.00  0.00    +0.000 OA
BRANCH  21  24
ATOM     24  N   UNL     1       3.183  13.760  17.630  0.00  0.00    +0.000 NA
ATOM     25  H   UNL     1       3.736  12.909  17.734  0.00  0.00    +0.000 HD
ATOM     26  H   UNL     1       2.605  13.772  16.788  0.00  0.00    +0.000 HD
ENDBRANCH  21  24
ENDBRANCH  19  21
ENDBRANCH  13  15
ENDBRANCH  10  11
BRANCH   1  27
ATOM     27  O   UNL     1       4.728   7.003  17.999  0.00  0.00    +0.000 OA
BRANCH  27  34
ATOM     28  C   UNL     1       6.847   6.233  16.946  0.00  0.00    +0.000 A 
ATOM     29  C   UNL     1       7.406   5.524  15.869  0.00  0.00    +0.000 A 
ATOM     30  C   UNL     1       6.598   5.029  14.848  0.00  0.00    +0.000 A 
ATOM     31 CL   UNL     1       7.312   4.151  13.551  0.00  0.00    +0.000 Cl
ATOM     32  C   UNL     1       5.223   5.217  14.883  0.00  0.00    +0.000 A 
ATOM     33  C   UNL     1       4.657   5.914  15.950  0.00  0.00    +0.000 A 
ATOM     34  C   UNL     1       5.458   6.440  16.978  0.00  0.00    +0.000 A 
BRANCH  28  36
ATOM     35  C   UNL     1       7.816   5.663  19.020  0.00  0.00    +0.000 C 
ATOM     36  O   UNL     1       7.613   6.648  18.008  0.00  0.00    +0.000 OA
ENDBRANCH  28  36
ENDBRANCH  27  34
ENDBRANCH   1  27
TORSDOF 7
ENDMDL
