MODEL 1
REMARK VINA RESULT:      -5.4      0.000      0.000
REMARK  Name = 
REMARK  2 active torsions:
REMARK  status: ('A' for Active; 'I' for Inactive)
REMARK    1  A    between atoms: C_1  and  N_2
REMARK    2  A    between atoms: C_4  and  C_5
REMARK                            x       y       z     vdW  Elec       q    Type
REMARK                         _______ _______ _______ _____ _____    ______ ____
ROOT
ATOM      1  C   UNL     1       4.614   6.705  16.814  0.00  0.00    +0.000 C 
ATOM      2  N   UNL     1       4.140   5.494  17.471  0.00  0.00    +0.000 N 
ATOM      3  C   UNL     1       2.648   5.376  18.597  0.00  0.00    +0.000 A 
ATOM      4  C   UNL     1       2.142   3.818  18.942  0.00  0.00    +0.000 A 
ATOM      5  S   UNL     1       3.420   2.177  17.910  0.00  0.00    +0.000 S 
ATOM      6  C   UNL     1       4.807   3.841  16.944  0.00  0.00    +0.000 A 
ATOM      7  N   UNL     1       5.813   3.450  16.257  0.00  0.00    +0.000 NA
ATOM      8  H   UNL     1       5.780   2.424  16.221  0.00  0.00    +0.000 HD
ENDROOT
BRANCH   4   9
ATOM      9  C   UNL     1       1.058   3.272  19.812  0.00  0.00    +0.000 C 
ATOM     10  F   UNL     1       0.169   2.506  19.132  0.00  0.00    +0.000 F 
ATOM     11  F   UNL     1       1.551   2.510  20.819  0.00  0.00    +0.000 F 
ATOM     12  F   UNL     1       0.348   4.275  20.389  0.00  0.00    +0.000 F 
ENDBRANCH   4   9
TORSDOF 1
ENDMDL
MODEL 2
REMARK VINA RESULT:      -5.4      0.072      1.133
REMARK  Name = 
REMARK  2 active torsions:
REMARK  status: ('A' for Active; 'I' for Inactive)
REMARK    1  A    between atoms: C_1  and  N_2
REMARK    2  A    between atoms: C_4  and  C_5
REMARK                            x       y       z     vdW  Elec       q    Type
REMARK                         _______ _______ _______ _____ _____    ______ ____
ROOT
ATOM      1  C   UNL     1       4.607   6.724  16.886  0.00  0.00    +0.000 C 
ATOM      2  N   UNL     1       4.136   5.501  17.522  0.00  0.00    +0.000 N 
ATOM      3  C   UNL     1       2.627   5.356  18.622  0.00  0.00    +0.000 A 
ATOM      4  C   UNL     1       2.132   3.790  18.944  0.00  0.00    +0.000 A 
ATOM      5  S   UNL     1       3.444   2.172  17.916  0.00  0.00    +0.000 S 
ATOM      6  C   UNL     1       4.829   3.861  16.990  0.00  0.00    +0.000 A 
ATOM      7  N   UNL     1       5.850   3.487  16.316  0.00  0.00    +0.000 NA
ATOM      8  H   UNL     1       5.829   2.461  16.269  0.00  0.00    +0.000 HD
ENDROOT
BRANCH   4   9
ATOM      9  C   UNL     1       1.039   3.223  19.790  0.00  0.00    +0.000 C 
ATOM     10  F   UNL     1       1.498   2.409  20.772  0.00  0.00    +0.000 F 
ATOM     11  F   UNL     1       0.305   4.193  20.387  0.00  0.00    +0.000 F 
ATOM     12  F   UNL     1       0.181   2.485  19.041  0.00  0.00    +0.000 F 
ENDBRANCH   4   9
TORSDOF 1
ENDMDL
MODEL 3
REMARK VINA RESULT:      -5.4      1.105      1.618
REMARK  Name = 
REMARK  2 active torsions:
REMARK  status: ('A' for Active; 'I' for Inactive)
REMARK    1  A    between atoms: C_1  and  N_2
REMARK    2  A    between atoms: C_4  and  C_5
REMARK                            x       y       z     vdW  Elec       q    Type
REMARK                         _______ _______ _______ _____ _____    ______ ____
ROOT
ATOM      1  C   UNL     1       4.652   6.742  16.956  0.00  0.00    +0.000 C 
ATOM      2  N   UNL     1       4.251   5.745  17.940  0.00  0.00    +0.000 N 
ATOM      3  C   UNL     1       2.508   5.471  18.566  0.00  0.00    +0.000 A 
ATOM      4  C   UNL     1       2.280   4.057  19.434  0.00  0.00    +0.000 A 
ATOM      5  S   UNL     1       4.203   2.768  19.627  0.00  0.00    +0.000 S 
ATOM      6  C   UNL     1       5.433   4.391  18.411  0.00  0.00    +0.000 A 
ATOM      7  N   UNL     1       6.689   4.195  18.263  0.00  0.00    +0.000 NA
ATOM      8  H   UNL     1       6.910   3.286  18.688  0.00  0.00    +0.000 HD
ENDROOT
BRANCH   4   9
ATOM      9  C   UNL     1       1.099   3.478  20.141  0.00  0.00    +0.000 C 
ATOM     10  F   UNL     1       1.434   2.818  21.277  0.00  0.00    +0.000 F 
ATOM     11  F   UNL     1       0.196   4.429  20.483  0.00  0.00    +0.000 F 
ATOM     12  F   UNL     1       0.450   2.587  19.349  0.00  0.00    +0.000 F 
ENDBRANCH   4   9
TORSDOF 1
ENDMDL
MODEL 4
REMARK VINA RESULT:      -5.4      0.097      1.147
REMARK  Name = 
REMARK  2 active torsions:
REMARK  status: ('A' for Active; 'I' for Inactive)
REMARK    1  A    between atoms: C_1  and  N_2
REMARK    2  A    between atoms: C_4  and  C_5
REMARK                            x       y       z     vdW  Elec       q    Type
REMARK                         _______ _______ _______ _____ _____    ______ ____
ROOT
ATOM      1  C   UNL     1       4.617   6.733  16.937  0.00  0.00    +0.000 C 
ATOM      2  N   UNL     1       4.138   5.502  17.551  0.00  0.00    +0.000 N 
ATOM      3  C   UNL     1       2.624   5.346  18.643  0.00  0.00    +0.000 A 
ATOM      4  C   UNL     1       2.121   3.776  18.937  0.00  0.00    +0.000 A 
ATOM      5  S   UNL     1       3.431   2.170  17.889  0.00  0.00    +0.000 S 
ATOM      6  C   UNL     1       4.826   3.868  16.995  0.00  0.00    +0.000 A 
ATOM      7  N   UNL     1       5.848   3.501  16.319  0.00  0.00    +0.000 NA
ATOM      8  H   UNL     1       5.823   2.476  16.255  0.00  0.00    +0.000 HD
ENDROOT
BRANCH   4   9
ATOM      9  C   UNL     1       1.023   3.200  19.769  0.00  0.00    +0.000 C 
ATOM     10  F   UNL     1       0.280   4.147  20.394  0.00  0.00    +0.000 F 
ATOM     11  F   UNL     1       0.171   2.446  19.033  0.00  0.00    +0.000 F 
ATOM     12  F   UNL     1       1.524   2.394  20.740  0.00  0.00    +0.000 F 
ENDBRANCH   4   9
TORSDOF 1
ENDMDL
MODEL 5
REMARK VINA RESULT:      -5.4      1.128      1.128
REMARK  Name = 
REMARK  2 active torsions:
REMARK  status: ('A' for Active; 'I' for Inactive)
REMARK    1  A    between atoms: C_1  and  N_2
REMARK    2  A    between atoms: C_4  and  C_5
REMARK                            x       y       z     vdW  Elec       q    Type
REMARK                         _______ _______ _______ _____ _____    ______ ____
ROOT
ATOM      1  C   UNL     1       4.704   6.781  17.091  0.00  0.00    +0.000 C 
ATOM      2  N   UNL     1       4.287   5.758  18.041  0.00  0.00    +0.000 N 
ATOM      3  C   UNL     1       2.539   5.490  18.658  0.00  0.00    +0.000 A 
ATOM      4  C   UNL     1       2.290   4.051  19.477  0.00  0.00    +0.000 A 
ATOM      5  S   UNL     1       4.191   2.727  19.627  0.00  0.00    +0.000 S 
ATOM      6  C   UNL     1       5.448   4.370  18.466  0.00  0.00    +0.000 A 
ATOM      7  N   UNL     1       6.700   4.160  18.312  0.00  0.00    +0.000 NA
ATOM      8  H   UNL     1       6.907   3.234  18.705  0.00  0.00    +0.000 HD
ENDROOT
BRANCH   4   9
ATOM      9  C   UNL     1       1.099   3.467  20.165  0.00  0.00    +0.000 C 
ATOM     10  F   UNL     1       0.431   2.572  19.397  0.00  0.00    +0.000 F 
ATOM     11  F   UNL     1       1.438   2.833  21.314  0.00  0.00    +0.000 F 
ATOM     12  F   UNL     1       0.209   4.436  20.498  0.00  0.00    +0.000 F 
ENDBRANCH   4   9
TORSDOF 1
ENDMDL
MODEL 6
REMARK VINA RESULT:      -5.4      1.069      1.539
REMARK  Name = 
REMARK  2 active torsions:
REMARK  status: ('A' for Active; 'I' for Inactive)
REMARK    1  A    between atoms: C_1  and  N_2
REMARK    2  A    between atoms: C_4  and  C_5
REMARK                            x       y       z     vdW  Elec       q    Type
REMARK                         _______ _______ _______ _____ _____    ______ ____
ROOT
ATOM      1  C   UNL     1       4.696   6.629  16.802  0.00  0.00    +0.000 C 
ATOM      2  N   UNL     1       4.282   5.645  17.793  0.00  0.00    +0.000 N 
ATOM      3  C   UNL     1       2.519   5.317  18.334  0.00  0.00    +0.000 A 
ATOM      4  C   UNL     1       2.301   3.920  19.230  0.00  0.00    +0.000 A 
ATOM      5  S   UNL     1       4.260   2.717  19.565  0.00  0.00    +0.000 S 
ATOM      6  C   UNL     1       5.489   4.354  18.367  0.00  0.00    +0.000 A 
ATOM      7  N   UNL     1       6.758   4.206  18.293  0.00  0.00    +0.000 NA
ATOM      8  H   UNL     1       6.992   3.320  18.755  0.00  0.00    +0.000 HD
ENDROOT
BRANCH   4   9
ATOM      9  C   UNL     1       1.108   3.312  19.891  0.00  0.00    +0.000 C 
ATOM     10  F   UNL     1       0.240   4.237  20.371  0.00  0.00    +0.000 F 
ATOM     11  F   UNL     1       0.412   2.513  19.046  0.00  0.00    +0.000 F 
ATOM     12  F   UNL     1       1.478   2.542  20.945  0.00  0.00    +0.000 F 
ENDBRANCH   4   9
TORSDOF 1
ENDMDL
MODEL 7
REMARK VINA RESULT:      -5.1      1.273      1.453
REMARK  Name = 
REMARK  2 active torsions:
REMARK  status: ('A' for Active; 'I' for Inactive)
REMARK    1  A    between atoms: C_1  and  N_2
REMARK    2  A    between atoms: C_4  and  C_5
REMARK                            x       y       z     vdW  Elec       q    Type
REMARK                         _______ _______ _______ _____ _____    ______ ____
ROOT
ATOM      1  C   UNL     1       5.031   6.721  16.204  0.00  0.00    +0.000 C 
ATOM      2  N   UNL     1       4.534   5.838  17.250  0.00  0.00    +0.000 N 
ATOM      3  C   UNL     1       3.293   6.305  18.573  0.00  0.00    +0.000 A 
ATOM      4  C   UNL     1       2.655   5.017  19.433  0.00  0.00    +0.000 A 
ATOM      5  S   UNL     1       3.466   2.951  18.747  0.00  0.00    +0.000 S 
ATOM      6  C   UNL     1       4.849   4.010  17.138  0.00  0.00    +0.000 A 
ATOM      7  N   UNL     1       5.636   3.269  16.453  0.00  0.00    +0.000 NA
ATOM      8  H   UNL     1       5.455   2.295  16.724  0.00  0.00    +0.000 HD
ENDROOT
BRANCH   4   9
ATOM      9  C   UNL     1       1.700   4.934  20.577  0.00  0.00    +0.000 C 
ATOM     10  F   UNL     1       0.605   4.184  20.300  0.00  0.00    +0.000 F 
ATOM     11  F   UNL     1       2.278   4.403  21.683  0.00  0.00    +0.000 F 
ATOM     12  F   UNL     1       1.250   6.167  20.923  0.00  0.00    +0.000 F 
ENDBRANCH   4   9
TORSDOF 1
ENDMDL
MODEL 8
REMARK VINA RESULT:      -5.0      2.223      2.475
REMARK  Name = 
REMARK  2 active torsions:
REMARK  status: ('A' for Active; 'I' for Inactive)
REMARK    1  A    between atoms: C_1  and  N_2
REMARK    2  A    between atoms: C_4  and  C_5
REMARK                            x       y       z     vdW  Elec       q    Type
REMARK                         _______ _______ _______ _____ _____    ______ ____
ROOT
ATOM      1  C   UNL     1       6.355   7.198  17.166  0.00  0.00    +0.000 C 
ATOM      2  N   UNL     1       5.455   6.301  17.879  0.00  0.00    +0.000 N 
ATOM      3  C   UNL     1       3.702   5.886  17.370  0.00  0.00    +0.000 A 
ATOM      4  C   UNL     1       3.019   4.586  18.175  0.00  0.00    +0.000 A 
ATOM      5  S   UNL     1       4.443   3.602  19.724  0.00  0.00    +0.000 S 
ATOM      6  C   UNL     1       6.126   5.193  19.211  0.00  0.00    +0.000 A 
ATOM      7  N   UNL     1       7.211   5.147  19.887  0.00  0.00    +0.000 NA
ATOM      8  H   UNL     1       7.144   4.342  20.522  0.00  0.00    +0.000 HD
ENDROOT
BRANCH   4   9
ATOM      9  C   UNL     1       1.665   3.957  18.124  0.00  0.00    +0.000 C 
ATOM     10  F   UNL     1       1.706   2.636  17.823  0.00  0.00    +0.000 F 
ATOM     11  F   UNL     1       1.006   4.077  19.302  0.00  0.00    +0.000 F 
ATOM     12  F   UNL     1       0.892   4.549  17.179  0.00  0.00    +0.000 F 
ENDBRANCH   4   9
TORSDOF 1
ENDMDL
MODEL 9
REMARK VINA RESULT:      -5.0      2.310      2.781
REMARK  Name = 
REMARK  2 active torsions:
REMARK  status: ('A' for Active; 'I' for Inactive)
REMARK    1  A    between atoms: C_1  and  N_2
REMARK    2  A    between atoms: C_4  and  C_5
REMARK                            x       y       z     vdW  Elec       q    Type
REMARK                         _______ _______ _______ _____ _____    ______ ____
ROOT
ATOM      1  C   UNL     1       6.483   7.271  17.202  0.00  0.00    +0.000 C 
ATOM      2  N   UNL     1       5.573   6.357  17.879  0.00  0.00    +0.000 N 
ATOM      3  C   UNL     1       3.832   5.942  17.326  0.00  0.00    +0.000 A 
ATOM      4  C   UNL     1       3.140   4.625  18.093  0.00  0.00    +0.000 A 
ATOM      5  S   UNL     1       4.536   3.619  19.653  0.00  0.00    +0.000 S 
ATOM      6  C   UNL     1       6.222   5.227  19.204  0.00  0.00    +0.000 A 
ATOM      7  N   UNL     1       7.293   5.174  19.902  0.00  0.00    +0.000 NA
ATOM      8  H   UNL     1       7.217   4.357  20.520  0.00  0.00    +0.000 HD
ENDROOT
BRANCH   4   9
ATOM      9  C   UNL     1       1.791   3.991  18.003  0.00  0.00    +0.000 C 
ATOM     10  F   UNL     1       1.147   3.944  19.195  0.00  0.00    +0.000 F 
ATOM     11  F   UNL     1       0.979   4.645  17.137  0.00  0.00    +0.000 F 
ATOM     12  F   UNL     1       1.886   2.711  17.561  0.00  0.00    +0.000 F 
ENDBRANCH   4   9
TORSDOF 1
ENDMDL
