MODEL 1
REMARK VINA RESULT:      -7.3      0.000      0.000
REMARK  Name = 
REMARK  8 active torsions:
REMARK  status: ('A' for Active; 'I' for Inactive)
REMARK    1  A    between atoms: C_1  and  O_2
REMARK    2  A    between atoms: O_2  and  C_3
REMARK    3  A    between atoms: C_7  and  C_8
REMARK    4  A    between atoms: C_11  and  C_12
REMARK    5  A    between atoms: C_12  and  N_13
REMARK    6  A    between atoms: C_16  and  C_17
REMARK    7  A    between atoms: C_17  and  O_18
REMARK    8  A    between atoms: C_19  and  O_20
REMARK                            x       y       z     vdW  Elec       q    Type
REMARK                         _______ _______ _______ _____ _____    ______ ____
ROOT
ATOM      1  C   UNL     1       6.857   4.855  15.676  0.00  0.00    +0.000 A 
ATOM      2  N   UNL     1       7.825   4.466  16.486  0.00  0.00    +0.000 NA
ATOM      3  C   UNL     1       7.492   4.726  17.797  0.00  0.00    +0.000 A 
ATOM      4  C   UNL     1       6.255   5.297  17.998  0.00  0.00    +0.000 A 
ATOM      5  S   UNL     1       5.519   5.589  16.472  0.00  0.00    +0.000 S 
ENDROOT
BRANCH   1  10
ATOM      6  C   UNL     1       6.142   3.316  12.316  0.00  0.00    +0.000 A 
ATOM      7  C   UNL     1       6.977   4.048  11.476  0.00  0.00    +0.000 A 
ATOM      8  C   UNL     1       7.760   5.088  11.982  0.00  0.00    +0.000 A 
ATOM      9  C   UNL     1       7.723   5.392  13.349  0.00  0.00    +0.000 A 
ATOM     10  C   UNL     1       6.905   4.656  14.216  0.00  0.00    +0.000 A 
ATOM     11  C   UNL     1       6.107   3.632  13.678  0.00  0.00    +0.000 A 
BRANCH   6  13
ATOM     12  C   UNL     1       6.186   1.228  11.183  0.00  0.00    +0.000 C 
ATOM     13  O   UNL     1       5.431   2.316  11.712  0.00  0.00    +0.000 OA
ENDBRANCH   6  13
ENDBRANCH   1  10
BRANCH   4  14
ATOM     14  C   UNL     1       5.599   5.671  19.293  0.00  0.00    +0.000 C 
BRANCH  14  15
ATOM     15  N   UNL     1       4.474   4.774  19.648  0.00  0.00    +0.000 NA
ATOM     16  C   UNL     1       4.738   3.396  19.186  0.00  0.00    +0.000 C 
ATOM     17  C   UNL     1       3.508   2.612  18.732  0.00  0.00    +0.000 C 
ATOM     18  C   UNL     1       2.315   2.936  19.618  0.00  0.00    +0.000 C 
ATOM     19  C   UNL     1       1.975   4.431  19.487  0.00  0.00    +0.000 C 
ATOM     20  C   UNL     1       3.204   5.310  19.125  0.00  0.00    +0.000 C 
BRANCH  19  21
ATOM     21  O   UNL     1       1.390   4.858  20.720  0.00  0.00    +0.000 OA
ATOM     22  H   UNL     1       1.965   4.512  21.430  0.00  0.00    +0.000 HD
ENDBRANCH  19  21
BRANCH  18  23
ATOM     23  C   UNL     1       1.125   2.034  19.276  0.00  0.00    +0.000 C 
BRANCH  23  24
ATOM     24  O   UNL     1      -0.121   2.708  19.379  0.00  0.00    +0.000 OA
ATOM     25  H   UNL     1      -0.062   3.365  20.099  0.00  0.00    +0.000 HD
ENDBRANCH  23  24
ENDBRANCH  18  23
ENDBRANCH  14  15
ENDBRANCH   4  14
TORSDOF 7
ENDMDL
MODEL 2
REMARK VINA RESULT:      -7.2      1.158      1.639
REMARK  Name = 
REMARK  8 active torsions:
REMARK  status: ('A' for Active; 'I' for Inactive)
REMARK    1  A    between atoms: C_1  and  O_2
REMARK    2  A    between atoms: O_2  and  C_3
REMARK    3  A    between atoms: C_7  and  C_8
REMARK    4  A    between atoms: C_11  and  C_12
REMARK    5  A    between atoms: C_12  and  N_13
REMARK    6  A    between atoms: C_16  and  C_17
REMARK    7  A    between atoms: C_17  and  O_18
REMARK    8  A    between atoms: C_19  and  O_20
REMARK                            x       y       z     vdW  Elec       q    Type
REMARK                         _______ _______ _______ _____ _____    ______ ____
ROOT
ATOM      1  C   UNL     1       6.785   4.795  15.497  0.00  0.00    +0.000 A 
ATOM      2  N   UNL     1       7.792   4.538  16.311  0.00  0.00    +0.000 NA
ATOM      3  C   UNL     1       7.433   4.784  17.618  0.00  0.00    +0.000 A 
ATOM      4  C   UNL     1       6.138   5.212  17.811  0.00  0.00    +0.000 A 
ATOM      5  S   UNL     1       5.371   5.385  16.282  0.00  0.00    +0.000 S 
ENDROOT
BRANCH   1  10
ATOM      6  C   UNL     1       6.134   3.189  12.155  0.00  0.00    +0.000 A 
ATOM      7  C   UNL     1       6.968   3.919  11.313  0.00  0.00    +0.000 A 
ATOM      8  C   UNL     1       7.729   4.979  11.810  0.00  0.00    +0.000 A 
ATOM      9  C   UNL     1       7.671   5.305  13.172  0.00  0.00    +0.000 A 
ATOM     10  C   UNL     1       6.853   4.572  14.041  0.00  0.00    +0.000 A 
ATOM     11  C   UNL     1       6.077   3.527  13.511  0.00  0.00    +0.000 A 
BRANCH   6  13
ATOM     12  C   UNL     1       6.220   1.066  11.092  0.00  0.00    +0.000 C 
ATOM     13  O   UNL     1       5.446   2.169  11.559  0.00  0.00    +0.000 OA
ENDBRANCH   6  13
ENDBRANCH   1  10
BRANCH   4  14
ATOM     14  C   UNL     1       5.445   5.534  19.101  0.00  0.00    +0.000 C 
BRANCH  14  15
ATOM     15  N   UNL     1       4.179   4.786  19.276  0.00  0.00    +0.000 NA
ATOM     16  C   UNL     1       3.205   5.579  20.053  0.00  0.00    +0.000 C 
ATOM     17  C   UNL     1       2.288   4.773  20.971  0.00  0.00    +0.000 C 
ATOM     18  C   UNL     1       1.893   3.462  20.308  0.00  0.00    +0.000 C 
ATOM     19  C   UNL     1       3.154   2.614  20.066  0.00  0.00    +0.000 C 
ATOM     20  C   UNL     1       4.440   3.466  19.881  0.00  0.00    +0.000 C 
BRANCH  19  21
ATOM     21  O   UNL     1       2.917   1.794  18.919  0.00  0.00    +0.000 OA
ATOM     22  H   UNL     1       3.544   2.095  18.233  0.00  0.00    +0.000 HD
ENDBRANCH  19  21
BRANCH  18  23
ATOM     23  C   UNL     1       0.846   2.724  21.148  0.00  0.00    +0.000 C 
BRANCH  23  24
ATOM     24  O   UNL     1       1.380   2.205  22.357  0.00  0.00    +0.000 OA
ATOM     25  H   UNL     1       1.668   2.951  22.917  0.00  0.00    +0.000 HD
ENDBRANCH  23  24
ENDBRANCH  18  23
ENDBRANCH  14  15
ENDBRANCH   4  14
TORSDOF 7
ENDMDL
MODEL 3
REMARK VINA RESULT:      -7.1      3.881      8.761
REMARK  Name = 
REMARK  8 active torsions:
REMARK  status: ('A' for Active; 'I' for Inactive)
REMARK    1  A    between atoms: C_1  and  O_2
REMARK    2  A    between atoms: O_2  and  C_3
REMARK    3  A    between atoms: C_7  and  C_8
REMARK    4  A    between atoms: C_11  and  C_12
REMARK    5  A    between atoms: C_12  and  N_13
REMARK    6  A    between atoms: C_16  and  C_17
REMARK    7  A    between atoms: C_17  and  O_18
REMARK    8  A    between atoms: C_19  and  O_20
REMARK                            x       y       z     vdW  Elec       q    Type
REMARK                         _______ _______ _______ _____ _____    ______ ____
ROOT
ATOM      1  C   UNL     1       2.200   6.698  19.942  0.00  0.00    +0.000 A 
ATOM      2  N   UNL     1       1.993   5.628  20.688  0.00  0.00    +0.000 NA
ATOM      3  C   UNL     1       2.844   4.609  20.321  0.00  0.00    +0.000 A 
ATOM      4  C   UNL     1       3.724   4.903  19.303  0.00  0.00    +0.000 A 
ATOM      5  S   UNL     1       3.412   6.496  18.736  0.00  0.00    +0.000 S 
ENDROOT
BRANCH   1  10
ATOM      6  C   UNL     1      -0.028   9.252  21.579  0.00  0.00    +0.000 A 
ATOM      7  C   UNL     1      -0.071  10.259  20.619  0.00  0.00    +0.000 A 
ATOM      8  C   UNL     1       0.660  10.145  19.435  0.00  0.00    +0.000 A 
ATOM      9  C   UNL     1       1.433   9.001  19.196  0.00  0.00    +0.000 A 
ATOM     10  C   UNL     1       1.476   7.966  20.139  0.00  0.00    +0.000 A 
ATOM     11  C   UNL     1       0.753   8.117  21.335  0.00  0.00    +0.000 A 
BRANCH   6  13
ATOM     12  C   UNL     1      -1.012  10.828  23.059  0.00  0.00    +0.000 C 
ATOM     13  O   UNL     1      -0.792   9.468  22.693  0.00  0.00    +0.000 OA
ENDBRANCH   6  13
ENDBRANCH   1  10
BRANCH   4  14
ATOM     14  C   UNL     1       4.781   4.026  18.702  0.00  0.00    +0.000 C 
BRANCH  14  15
ATOM     15  N   UNL     1       5.307   4.555  17.422  0.00  0.00    +0.000 NA
ATOM     16  C   UNL     1       4.799   3.766  16.281  0.00  0.00    +0.000 C 
ATOM     17  C   UNL     1       5.768   3.610  15.111  0.00  0.00    +0.000 C 
ATOM     18  C   UNL     1       6.554   4.895  14.898  0.00  0.00    +0.000 C 
ATOM     19  C   UNL     1       7.398   5.188  16.150  0.00  0.00    +0.000 C 
ATOM     20  C   UNL     1       6.780   4.613  17.454  0.00  0.00    +0.000 C 
BRANCH  19  21
ATOM     21  O   UNL     1       7.562   6.605  16.246  0.00  0.00    +0.000 OA
ATOM     22  H   UNL     1       7.624   6.937  15.329  0.00  0.00    +0.000 HD
ENDBRANCH  19  21
BRANCH  18  23
ATOM     23  C   UNL     1       7.406   4.804  13.627  0.00  0.00    +0.000 C 
BRANCH  23  24
ATOM     24  O   UNL     1       8.392   5.823  13.555  0.00  0.00    +0.000 OA
ATOM     25  H   UNL     1       8.390   6.320  14.396  0.00  0.00    +0.000 HD
ENDBRANCH  23  24
ENDBRANCH  18  23
ENDBRANCH  14  15
ENDBRANCH   4  14
TORSDOF 7
ENDMDL
MODEL 4
REMARK VINA RESULT:      -6.9      4.109      8.545
REMARK  Name = 
REMARK  8 active torsions:
REMARK  status: ('A' for Active; 'I' for Inactive)
REMARK    1  A    between atoms: C_1  and  O_2
REMARK    2  A    between atoms: O_2  and  C_3
REMARK    3  A    between atoms: C_7  and  C_8
REMARK    4  A    between atoms: C_11  and  C_12
REMARK    5  A    between atoms: C_12  and  N_13
REMARK    6  A    between atoms: C_16  and  C_17
REMARK    7  A    between atoms: C_17  and  O_18
REMARK    8  A    between atoms: C_19  and  O_20
REMARK                            x       y       z     vdW  Elec       q    Type
REMARK                         _______ _______ _______ _____ _____    ______ ____
ROOT
ATOM      1  C   UNL     1       2.015   6.908  20.296  0.00  0.00    +0.000 A 
ATOM      2  N   UNL     1       1.642   5.776  20.864  0.00  0.00    +0.000 NA
ATOM      3  C   UNL     1       2.465   4.743  20.474  0.00  0.00    +0.000 A 
ATOM      4  C   UNL     1       3.488   5.086  19.618  0.00  0.00    +0.000 A 
ATOM      5  S   UNL     1       3.360   6.756  19.231  0.00  0.00    +0.000 S 
ENDROOT
BRANCH   1  10
ATOM      6  C   UNL     1       0.617  10.343  19.651  0.00  0.00    +0.000 A 
ATOM      7  C   UNL     1       0.242  10.750  20.929  0.00  0.00    +0.000 A 
ATOM      8  C   UNL     1       0.399   9.896  22.022  0.00  0.00    +0.000 A 
ATOM      9  C   UNL     1       0.955   8.621  21.842  0.00  0.00    +0.000 A 
ATOM     10  C   UNL     1       1.356   8.199  20.568  0.00  0.00    +0.000 A 
ATOM     11  C   UNL     1       1.162   9.067  19.480  0.00  0.00    +0.000 A 
BRANCH   6  13
ATOM     12  C   UNL     1      -0.923  11.641  18.391  0.00  0.00    +0.000 C 
ATOM     13  O   UNL     1       0.426  11.266  18.661  0.00  0.00    +0.000 OA
ENDBRANCH   6  13
ENDBRANCH   1  10
BRANCH   4  14
ATOM     14  C   UNL     1       4.555   4.205  19.040  0.00  0.00    +0.000 C 
BRANCH  14  15
ATOM     15  N   UNL     1       5.088   4.715  17.755  0.00  0.00    +0.000 NA
ATOM     16  C   UNL     1       4.460   4.017  16.614  0.00  0.00    +0.000 C 
ATOM     17  C   UNL     1       5.366   3.797  15.404  0.00  0.00    +0.000 C 
ATOM     18  C   UNL     1       6.274   4.999  15.195  0.00  0.00    +0.000 C 
ATOM     19  C   UNL     1       7.188   5.165  16.422  0.00  0.00    +0.000 C 
ATOM     20  C   UNL     1       6.559   4.618  17.733  0.00  0.00    +0.000 C 
BRANCH  19  21
ATOM     21  O   UNL     1       7.503   6.554  16.548  0.00  0.00    +0.000 OA
ATOM     22  H   UNL     1       7.230   6.816  17.449  0.00  0.00    +0.000 HD
ENDBRANCH  19  21
BRANCH  18  23
ATOM     23  C   UNL     1       7.066   4.858  13.891  0.00  0.00    +0.000 C 
BRANCH  23  24
ATOM     24  O   UNL     1       8.205   5.705  13.848  0.00  0.00    +0.000 OA
ATOM     25  H   UNL     1       8.075   6.366  13.141  0.00  0.00    +0.000 HD
ENDBRANCH  23  24
ENDBRANCH  18  23
ENDBRANCH  14  15
ENDBRANCH   4  14
TORSDOF 7
ENDMDL
MODEL 5
REMARK VINA RESULT:      -6.8      5.219      8.678
REMARK  Name = 
REMARK  8 active torsions:
REMARK  status: ('A' for Active; 'I' for Inactive)
REMARK    1  A    between atoms: C_1  and  O_2
REMARK    2  A    between atoms: O_2  and  C_3
REMARK    3  A    between atoms: C_7  and  C_8
REMARK    4  A    between atoms: C_11  and  C_12
REMARK    5  A    between atoms: C_12  and  N_13
REMARK    6  A    between atoms: C_16  and  C_17
REMARK    7  A    between atoms: C_17  and  O_18
REMARK    8  A    between atoms: C_19  and  O_20
REMARK                            x       y       z     vdW  Elec       q    Type
REMARK                         _______ _______ _______ _____ _____    ______ ____
ROOT
ATOM      1  C   UNL     1       1.200   9.130  19.432  0.00  0.00    +0.000 A 
ATOM      2  N   UNL     1       1.024   8.599  20.628  0.00  0.00    +0.000 NA
ATOM      3  C   UNL     1       1.714   7.411  20.735  0.00  0.00    +0.000 A 
ATOM      4  C   UNL     1       2.440   7.039  19.625  0.00  0.00    +0.000 A 
ATOM      5  S   UNL     1       2.178   8.189  18.374  0.00  0.00    +0.000 S 
ENDROOT
BRANCH   1  10
ATOM      6  C   UNL     1      -1.323  11.622  18.167  0.00  0.00    +0.000 A 
ATOM      7  C   UNL     1      -0.579  12.798  18.134  0.00  0.00    +0.000 A 
ATOM      8  C   UNL     1       0.749  12.813  18.564  0.00  0.00    +0.000 A 
ATOM      9  C   UNL     1       1.352  11.631  19.017  0.00  0.00    +0.000 A 
ATOM     10  C   UNL     1       0.628  10.432  19.041  0.00  0.00    +0.000 A 
ATOM     11  C   UNL     1      -0.715  10.450  18.629  0.00  0.00    +0.000 A 
BRANCH   6  13
ATOM     12  C   UNL     1      -3.170  10.559  17.119  0.00  0.00    +0.000 C 
ATOM     13  O   UNL     1      -2.608  11.727  17.713  0.00  0.00    +0.000 OA
ENDBRANCH   6  13
ENDBRANCH   1  10
BRANCH   4  14
ATOM     14  C   UNL     1       3.306   5.829  19.440  0.00  0.00    +0.000 C 
BRANCH  14  15
ATOM     15  N   UNL     1       4.026   5.831  18.145  0.00  0.00    +0.000 NA
ATOM     16  C   UNL     1       3.591   4.697  17.303  0.00  0.00    +0.000 C 
ATOM     17  C   UNL     1       4.676   4.086  16.419  0.00  0.00    +0.000 C 
ATOM     18  C   UNL     1       5.591   5.172  15.874  0.00  0.00    +0.000 C 
ATOM     19  C   UNL     1       6.302   5.873  17.046  0.00  0.00    +0.000 C 
ATOM     20  C   UNL     1       5.484   5.841  18.366  0.00  0.00    +0.000 C 
BRANCH  19  21
ATOM     21  O   UNL     1       6.576   7.219  16.649  0.00  0.00    +0.000 OA
ATOM     22  H   UNL     1       6.136   7.793  17.305  0.00  0.00    +0.000 HD
ENDBRANCH  19  21
BRANCH  18  23
ATOM     23  C   UNL     1       6.578   4.588  14.858  0.00  0.00    +0.000 C 
BRANCH  23  24
ATOM     24  O   UNL     1       7.671   5.456  14.595  0.00  0.00    +0.000 OA
ATOM     25  H   UNL     1       7.361   6.183  14.022  0.00  0.00    +0.000 HD
ENDBRANCH  23  24
ENDBRANCH  18  23
ENDBRANCH  14  15
ENDBRANCH   4  14
TORSDOF 7
ENDMDL
MODEL 6
REMARK VINA RESULT:      -6.8      6.047      7.913
REMARK  Name = 
REMARK  8 active torsions:
REMARK  status: ('A' for Active; 'I' for Inactive)
REMARK    1  A    between atoms: C_1  and  O_2
REMARK    2  A    between atoms: O_2  and  C_3
REMARK    3  A    between atoms: C_7  and  C_8
REMARK    4  A    between atoms: C_11  and  C_12
REMARK    5  A    between atoms: C_12  and  N_13
REMARK    6  A    between atoms: C_16  and  C_17
REMARK    7  A    between atoms: C_17  and  O_18
REMARK    8  A    between atoms: C_19  and  O_20
REMARK                            x       y       z     vdW  Elec       q    Type
REMARK                         _______ _______ _______ _____ _____    ______ ____
ROOT
ATOM      1  C   UNL     1       2.365   7.400  18.708  0.00  0.00    +0.000 A 
ATOM      2  N   UNL     1       1.977   7.415  19.971  0.00  0.00    +0.000 NA
ATOM      3  C   UNL     1       1.380   8.617  20.280  0.00  0.00    +0.000 A 
ATOM      4  C   UNL     1       1.290   9.523  19.246  0.00  0.00    +0.000 A 
ATOM      5  S   UNL     1       2.056   8.863  17.855  0.00  0.00    +0.000 S 
ENDROOT
BRANCH   1  10
ATOM      6  C   UNL     1       2.752   3.857  17.497  0.00  0.00    +0.000 A 
ATOM      7  C   UNL     1       4.061   3.852  17.024  0.00  0.00    +0.000 A 
ATOM      8  C   UNL     1       4.832   5.016  17.051  0.00  0.00    +0.000 A 
ATOM      9  C   UNL     1       4.295   6.200  17.575  0.00  0.00    +0.000 A 
ATOM     10  C   UNL     1       2.986   6.223  18.074  0.00  0.00    +0.000 A 
ATOM     11  C   UNL     1       2.222   5.046  18.010  0.00  0.00    +0.000 A 
BRANCH   6  13
ATOM     12  C   UNL     1       1.649   2.108  18.666  0.00  0.00    +0.000 C 
ATOM     13  O   UNL     1       2.098   2.658  17.430  0.00  0.00    +0.000 OA
ENDBRANCH   6  13
ENDBRANCH   1  10
BRANCH   4  14
ATOM     14  C   UNL     1       0.679  10.891  19.256  0.00  0.00    +0.000 C 
BRANCH  14  15
ATOM     15  N   UNL     1      -0.790  10.866  19.063  0.00  0.00    +0.000 NA
ATOM     16  C   UNL     1      -1.147  10.076  17.866  0.00  0.00    +0.000 C 
ATOM     17  C   UNL     1      -2.365  10.577  17.092  0.00  0.00    +0.000 C 
ATOM     18  C   UNL     1      -3.429  11.089  18.050  0.00  0.00    +0.000 C 
ATOM     19  C   UNL     1      -2.870  12.286  18.839  0.00  0.00    +0.000 C 
ATOM     20  C   UNL     1      -1.327  12.239  19.012  0.00  0.00    +0.000 C 
BRANCH  19  21
ATOM     21  O   UNL     1      -3.523  12.315  20.111  0.00  0.00    +0.000 OA
ATOM     22  H   UNL     1      -2.942  11.833  20.730  0.00  0.00    +0.000 HD
ENDBRANCH  19  21
BRANCH  18  23
ATOM     23  C   UNL     1      -4.715  11.438  17.294  0.00  0.00    +0.000 C 
BRANCH  23  24
ATOM     24  O   UNL     1      -5.285  12.667  17.720  0.00  0.00    +0.000 OA
ATOM     25  H   UNL     1      -5.287  12.688  18.696  0.00  0.00    +0.000 HD
ENDBRANCH  23  24
ENDBRANCH  18  23
ENDBRANCH  14  15
ENDBRANCH   4  14
TORSDOF 7
ENDMDL
MODEL 7
REMARK VINA RESULT:      -6.7      5.464      9.685
REMARK  Name = 
REMARK  8 active torsions:
REMARK  status: ('A' for Active; 'I' for Inactive)
REMARK    1  A    between atoms: C_1  and  O_2
REMARK    2  A    between atoms: O_2  and  C_3
REMARK    3  A    between atoms: C_7  and  C_8
REMARK    4  A    between atoms: C_11  and  C_12
REMARK    5  A    between atoms: C_12  and  N_13
REMARK    6  A    between atoms: C_16  and  C_17
REMARK    7  A    between atoms: C_17  and  O_18
REMARK    8  A    between atoms: C_19  and  O_20
REMARK                            x       y       z     vdW  Elec       q    Type
REMARK                         _______ _______ _______ _____ _____    ______ ____
ROOT
ATOM      1  C   UNL     1       1.028   8.957  20.237  0.00  0.00    +0.000 A 
ATOM      2  N   UNL     1       1.421   9.153  18.991  0.00  0.00    +0.000 NA
ATOM      3  C   UNL     1       2.214   8.110  18.565  0.00  0.00    +0.000 A 
ATOM      4  C   UNL     1       2.414   7.099  19.479  0.00  0.00    +0.000 A 
ATOM      5  S   UNL     1       1.638   7.517  20.955  0.00  0.00    +0.000 S 
ENDROOT
BRANCH   1  10
ATOM      6  C   UNL     1      -1.287  11.874  20.790  0.00  0.00    +0.000 A 
ATOM      7  C   UNL     1      -1.522  11.804  22.160  0.00  0.00    +0.000 A 
ATOM      8  C   UNL     1      -0.963  10.779  22.926  0.00  0.00    +0.000 A 
ATOM      9  C   UNL     1      -0.143   9.818  22.319  0.00  0.00    +0.000 A 
ATOM     10  C   UNL     1       0.121   9.880  20.945  0.00  0.00    +0.000 A 
ATOM     11  C   UNL     1      -0.475  10.905  20.192  0.00  0.00    +0.000 A 
BRANCH   6  13
ATOM     12  C   UNL     1      -1.159  14.157  20.148  0.00  0.00    +0.000 C 
ATOM     13  O   UNL     1      -1.877  12.926  20.145  0.00  0.00    +0.000 OA
ENDBRANCH   6  13
ENDBRANCH   1  10
BRANCH   4  14
ATOM     14  C   UNL     1       3.196   5.832  19.311  0.00  0.00    +0.000 C 
BRANCH  14  15
ATOM     15  N   UNL     1       3.982   5.803  18.055  0.00  0.00    +0.000 NA
ATOM     16  C   UNL     1       3.609   4.635  17.231  0.00  0.00    +0.000 C 
ATOM     17  C   UNL     1       4.748   4.014  16.424  0.00  0.00    +0.000 C 
ATOM     18  C   UNL     1       5.672   5.098  15.890  0.00  0.00    +0.000 C 
ATOM     19  C   UNL     1       6.310   5.849  17.072  0.00  0.00    +0.000 C 
ATOM     20  C   UNL     1       5.426   5.846  18.349  0.00  0.00    +0.000 C 
BRANCH  19  21
ATOM     21  O   UNL     1       6.583   7.186  16.644  0.00  0.00    +0.000 OA
ATOM     22  H   UNL     1       6.051   7.771  17.218  0.00  0.00    +0.000 HD
ENDBRANCH  19  21
BRANCH  18  23
ATOM     23  C   UNL     1       6.719   4.499  14.945  0.00  0.00    +0.000 C 
BRANCH  23  24
ATOM     24  O   UNL     1       7.715   5.437  14.565  0.00  0.00    +0.000 OA
ATOM     25  H   UNL     1       8.518   4.949  14.299  0.00  0.00    +0.000 HD
ENDBRANCH  23  24
ENDBRANCH  18  23
ENDBRANCH  14  15
ENDBRANCH   4  14
TORSDOF 7
ENDMDL
MODEL 8
REMARK VINA RESULT:      -6.7      5.382      8.858
REMARK  Name = 
REMARK  8 active torsions:
REMARK  status: ('A' for Active; 'I' for Inactive)
REMARK    1  A    between atoms: C_1  and  O_2
REMARK    2  A    between atoms: O_2  and  C_3
REMARK    3  A    between atoms: C_7  and  C_8
REMARK    4  A    between atoms: C_11  and  C_12
REMARK    5  A    between atoms: C_12  and  N_13
REMARK    6  A    between atoms: C_16  and  C_17
REMARK    7  A    between atoms: C_17  and  O_18
REMARK    8  A    between atoms: C_19  and  O_20
REMARK                            x       y       z     vdW  Elec       q    Type
REMARK                         _______ _______ _______ _____ _____    ______ ____
ROOT
ATOM      1  C   UNL     1       1.217   9.234  19.297  0.00  0.00    +0.000 A 
ATOM      2  N   UNL     1       1.050   8.743  20.511  0.00  0.00    +0.000 NA
ATOM      3  C   UNL     1       1.723   7.549  20.647  0.00  0.00    +0.000 A 
ATOM      4  C   UNL     1       2.428   7.130  19.540  0.00  0.00    +0.000 A 
ATOM      5  S   UNL     1       2.167   8.244  18.257  0.00  0.00    +0.000 S 
ENDROOT
BRANCH   1  10
ATOM      6  C   UNL     1       1.093  12.911  18.501  0.00  0.00    +0.000 A 
ATOM      7  C   UNL     1      -0.256  13.103  18.219  0.00  0.00    +0.000 A 
ATOM      8  C   UNL     1      -1.148  12.028  18.240  0.00  0.00    +0.000 A 
ATOM      9  C   UNL     1      -0.689  10.744  18.566  0.00  0.00    +0.000 A 
ATOM     10  C   UNL     1       0.661  10.532  18.873  0.00  0.00    +0.000 A 
ATOM     11  C   UNL     1       1.542  11.625  18.817  0.00  0.00    +0.000 A 
BRANCH   6  13
ATOM     12  C   UNL     1       2.739  14.251  19.567  0.00  0.00    +0.000 C 
ATOM     13  O   UNL     1       1.868  14.037  18.460  0.00  0.00    +0.000 OA
ENDBRANCH   6  13
ENDBRANCH   1  10
BRANCH   4  14
ATOM     14  C   UNL     1       3.273   5.902  19.382  0.00  0.00    +0.000 C 
BRANCH  14  15
ATOM     15  N   UNL     1       4.028   5.885  18.108  0.00  0.00    +0.000 NA
ATOM     16  C   UNL     1       3.611   4.744  17.268  0.00  0.00    +0.000 C 
ATOM     17  C   UNL     1       4.717   4.116  16.421  0.00  0.00    +0.000 C 
ATOM     18  C   UNL     1       5.653   5.191  15.890  0.00  0.00    +0.000 C 
ATOM     19  C   UNL     1       6.335   5.901  17.073  0.00  0.00    +0.000 C 
ATOM     20  C   UNL     1       5.480   5.889  18.369  0.00  0.00    +0.000 C 
BRANCH  19  21
ATOM     21  O   UNL     1       6.628   7.241  16.668  0.00  0.00    +0.000 OA
ATOM     22  H   UNL     1       7.075   7.175  15.802  0.00  0.00    +0.000 HD
ENDBRANCH  19  21
BRANCH  18  23
ATOM     23  C   UNL     1       6.665   4.590  14.908  0.00  0.00    +0.000 C 
BRANCH  23  24
ATOM     24  O   UNL     1       7.698   5.500  14.561  0.00  0.00    +0.000 OA
ATOM     25  H   UNL     1       7.290   6.334  14.257  0.00  0.00    +0.000 HD
ENDBRANCH  23  24
ENDBRANCH  18  23
ENDBRANCH  14  15
ENDBRANCH   4  14
TORSDOF 7
ENDMDL
MODEL 9
REMARK VINA RESULT:      -6.7      6.063      7.704
REMARK  Name = 
REMARK  8 active torsions:
REMARK  status: ('A' for Active; 'I' for Inactive)
REMARK    1  A    between atoms: C_1  and  O_2
REMARK    2  A    between atoms: O_2  and  C_3
REMARK    3  A    between atoms: C_7  and  C_8
REMARK    4  A    between atoms: C_11  and  C_12
REMARK    5  A    between atoms: C_12  and  N_13
REMARK    6  A    between atoms: C_16  and  C_17
REMARK    7  A    between atoms: C_17  and  O_18
REMARK    8  A    between atoms: C_19  and  O_20
REMARK                            x       y       z     vdW  Elec       q    Type
REMARK                         _______ _______ _______ _____ _____    ______ ____
ROOT
ATOM      1  C   UNL     1       2.439   7.362  18.695  0.00  0.00    +0.000 A 
ATOM      2  N   UNL     1       1.979   7.348  19.933  0.00  0.00    +0.000 NA
ATOM      3  C   UNL     1       1.347   8.536  20.228  0.00  0.00    +0.000 A 
ATOM      4  C   UNL     1       1.303   9.459  19.206  0.00  0.00    +0.000 A 
ATOM      5  S   UNL     1       2.157   8.836  17.851  0.00  0.00    +0.000 S 
ENDROOT
BRANCH   1  10
ATOM      6  C   UNL     1       4.980   5.433  16.697  0.00  0.00    +0.000 A 
ATOM      7  C   UNL     1       4.455   4.145  16.724  0.00  0.00    +0.000 A 
ATOM      8  C   UNL     1       3.283   3.868  17.430  0.00  0.00    +0.000 A 
ATOM      9  C   UNL     1       2.613   4.898  18.105  0.00  0.00    +0.000 A 
ATOM     10  C   UNL     1       3.113   6.205  18.076  0.00  0.00    +0.000 A 
ATOM     11  C   UNL     1       4.309   6.452  17.381  0.00  0.00    +0.000 A 
BRANCH   6  13
ATOM     12  C   UNL     1       7.091   4.542  16.069  0.00  0.00    +0.000 C 
ATOM     13  O   UNL     1       6.126   5.586  15.966  0.00  0.00    +0.000 OA
ENDBRANCH   6  13
ENDBRANCH   1  10
BRANCH   4  14
ATOM     14  C   UNL     1       0.671  10.818  19.205  0.00  0.00    +0.000 C 
BRANCH  14  15
ATOM     15  N   UNL     1      -0.793  10.772  18.984  0.00  0.00    +0.000 NA
ATOM     16  C   UNL     1      -1.121   9.912  17.828  0.00  0.00    +0.000 C 
ATOM     17  C   UNL     1      -2.325  10.359  17.002  0.00  0.00    +0.000 C 
ATOM     18  C   UNL     1      -3.412  10.918  17.908  0.00  0.00    +0.000 C 
ATOM     19  C   UNL     1      -2.876  12.161  18.638  0.00  0.00    +0.000 C 
ATOM     20  C   UNL     1      -1.337  12.135  18.844  0.00  0.00    +0.000 C 
BRANCH  19  21
ATOM     21  O   UNL     1      -3.556  12.259  19.893  0.00  0.00    +0.000 OA
ATOM     22  H   UNL     1      -4.180  11.509  19.926  0.00  0.00    +0.000 HD
ENDBRANCH  19  21
BRANCH  18  23
ATOM     23  C   UNL     1      -4.684  11.214  17.107  0.00  0.00    +0.000 C 
BRANCH  23  24
ATOM     24  O   UNL     1      -5.196  12.516  17.352  0.00  0.00    +0.000 OA
ATOM     25  H   UNL     1      -5.518  12.556  18.273  0.00  0.00    +0.000 HD
ENDBRANCH  23  24
ENDBRANCH  18  23
ENDBRANCH  14  15
ENDBRANCH   4  14
TORSDOF 7
ENDMDL
