MODEL 1
REMARK VINA RESULT:      -7.5      0.000      0.000
REMARK  Name = 
REMARK  5 active torsions:
REMARK  status: ('A' for Active; 'I' for Inactive)
REMARK    1  A    between atoms: C_2  and  C_10
REMARK    2  A    between atoms: N_3  and  C_4
REMARK    3  A    between atoms: C_12  and  N_13
REMARK    4  A    between atoms: C_16  and  S_17
REMARK    5  A    between atoms: S_17  and  C_18
REMARK                            x       y       z     vdW  Elec       q    Type
REMARK                         _______ _______ _______ _____ _____    ______ ____
ROOT
ATOM      1  C   UNL     1       1.949   6.944  20.182  0.00  0.00    +0.000 A 
ATOM      2  N   UNL     1       1.430   5.915  20.818  0.00  0.00    +0.000 NA
ATOM      3  C   UNL     1       2.233   4.793  20.575  0.00  0.00    +0.000 A 
ATOM      4  C   UNL     1       3.346   4.982  19.773  0.00  0.00    +0.000 A 
ATOM      5  S   UNL     1       3.345   6.614  19.237  0.00  0.00    +0.000 S 
ENDROOT
BRANCH   1   7
ATOM      6  O   UNL     1       1.160   8.826  21.357  0.00  0.00    +0.000 OA
ATOM      7  C   UNL     1       1.450   8.319  20.279  0.00  0.00    +0.000 C 
ATOM      8  N   UNL     1       1.291   8.949  19.049  0.00  0.00    +0.000 N 
ATOM      9  H   UNL     1       1.470   8.376  18.231  0.00  0.00    +0.000 HD
BRANCH   8  10
ATOM     10  C   UNL     1       0.780  10.251  18.833  0.00  0.00    +0.000 A 
ATOM     11  C   UNL     1       1.589  11.392  18.812  0.00  0.00    +0.000 A 
ATOM     12  C   UNL     1       1.038  12.664  18.632  0.00  0.00    +0.000 A 
ATOM     13  C   UNL     1      -0.334  12.809  18.467  0.00  0.00    +0.000 A 
ATOM     14  C   UNL     1      -1.151  11.682  18.467  0.00  0.00    +0.000 A 
ATOM     15  C   UNL     1      -0.596  10.405  18.639  0.00  0.00    +0.000 A 
ENDBRANCH   8  10
ENDBRANCH   1   7
BRANCH   3  16
ATOM     16  N   UNL     1       1.874   3.572  21.239  0.00  0.00    +0.000 N 
ATOM     17  O   UNL     1       2.434   3.338  22.318  0.00  0.00    +0.000 OA
ATOM     18  O   UNL     1       1.024   2.871  20.681  0.00  0.00    +0.000 OA
ENDBRANCH   3  16
BRANCH   4  19
ATOM     19  S   UNL     1       4.699   3.913  19.416  0.00  0.00    +0.000 S 
BRANCH  19  20
ATOM     20  C   UNL     1       5.389   4.689  17.946  0.00  0.00    +0.000 A 
ATOM     21  C   UNL     1       6.591   5.418  17.982  0.00  0.00    +0.000 A 
ATOM     22 CL   UNL     1       7.516   5.678  19.417  0.00  0.00    +0.000 Cl
ATOM     23  C   UNL     1       7.103   5.931  16.792  0.00  0.00    +0.000 A 
ATOM     24  N   UNL     1       6.528   5.757  15.582  0.00  0.00    +0.000 NA
ATOM     25  C   UNL     1       5.399   5.018  15.558  0.00  0.00    +0.000 A 
ATOM     26  C   UNL     1       4.802   4.467  16.687  0.00  0.00    +0.000 A 
ATOM     27 CL   UNL     1       3.392   3.499  16.448  0.00  0.00    +0.000 Cl
ENDBRANCH  19  20
ENDBRANCH   4  19
TORSDOF 5
ENDMDL
MODEL 2
REMARK VINA RESULT:      -7.4      3.749      8.001
REMARK  Name = 
REMARK  5 active torsions:
REMARK  status: ('A' for Active; 'I' for Inactive)
REMARK    1  A    between atoms: C_2  and  C_10
REMARK    2  A    between atoms: N_3  and  C_4
REMARK    3  A    between atoms: C_12  and  N_13
REMARK    4  A    between atoms: C_16  and  S_17
REMARK    5  A    between atoms: S_17  and  C_18
REMARK                            x       y       z     vdW  Elec       q    Type
REMARK                         _______ _______ _______ _____ _____    ______ ____
ROOT
ATOM      1  C   UNL     1       2.326   7.670  18.867  0.00  0.00    +0.000 A 
ATOM      2  N   UNL     1       1.962   7.723  20.132  0.00  0.00    +0.000 NA
ATOM      3  C   UNL     1       1.159   8.856  20.313  0.00  0.00    +0.000 A 
ATOM      4  C   UNL     1       0.917   9.639  19.196  0.00  0.00    +0.000 A 
ATOM      5  S   UNL     1       1.796   8.971  17.879  0.00  0.00    +0.000 S 
ENDROOT
BRANCH   1   7
ATOM      6  O   UNL     1       2.700   5.407  18.329  0.00  0.00    +0.000 OA
ATOM      7  C   UNL     1       3.087   6.570  18.267  0.00  0.00    +0.000 C 
ATOM      8  N   UNL     1       4.287   6.965  17.685  0.00  0.00    +0.000 N 
ATOM      9  H   UNL     1       4.533   7.943  17.798  0.00  0.00    +0.000 HD
BRANCH   8  10
ATOM     10  C   UNL     1       5.246   6.117  17.080  0.00  0.00    +0.000 A 
ATOM     11  C   UNL     1       6.264   5.484  17.801  0.00  0.00    +0.000 A 
ATOM     12  C   UNL     1       7.212   4.684  17.158  0.00  0.00    +0.000 A 
ATOM     13  C   UNL     1       7.151   4.505  15.781  0.00  0.00    +0.000 A 
ATOM     14  C   UNL     1       6.132   5.113  15.052  0.00  0.00    +0.000 A 
ATOM     15  C   UNL     1       5.176   5.909  15.699  0.00  0.00    +0.000 A 
ENDBRANCH   8  10
ENDBRANCH   1   7
BRANCH   3  16
ATOM     16  N   UNL     1       0.598   9.061  21.619  0.00  0.00    +0.000 N 
ATOM     17  O   UNL     1      -0.520   8.573  21.828  0.00  0.00    +0.000 OA
ATOM     18  O   UNL     1       1.291   9.691  22.424  0.00  0.00    +0.000 OA
ENDBRANCH   3  16
BRANCH   4  19
ATOM     19  S   UNL     1      -0.191  10.984  18.955  0.00  0.00    +0.000 S 
BRANCH  19  20
ATOM     20  C   UNL     1       0.519  12.232  20.041  0.00  0.00    +0.000 A 
ATOM     21  C   UNL     1       1.703  12.917  19.715  0.00  0.00    +0.000 A 
ATOM     22 CL   UNL     1       2.616  12.630  18.277  0.00  0.00    +0.000 Cl
ATOM     23  C   UNL     1       2.157  13.921  20.569  0.00  0.00    +0.000 A 
ATOM     24  N   UNL     1       1.519  14.302  21.696  0.00  0.00    +0.000 NA
ATOM     25  C   UNL     1       0.361  13.665  21.973  0.00  0.00    +0.000 A 
ATOM     26  C   UNL     1      -0.175  12.647  21.191  0.00  0.00    +0.000 A 
ATOM     27 CL   UNL     1      -1.699  11.995  21.675  0.00  0.00    +0.000 Cl
ENDBRANCH  19  20
ENDBRANCH   4  19
TORSDOF 5
ENDMDL
MODEL 3
REMARK VINA RESULT:      -7.4      0.189      1.900
REMARK  Name = 
REMARK  5 active torsions:
REMARK  status: ('A' for Active; 'I' for Inactive)
REMARK    1  A    between atoms: C_2  and  C_10
REMARK    2  A    between atoms: N_3  and  C_4
REMARK    3  A    between atoms: C_12  and  N_13
REMARK    4  A    between atoms: C_16  and  S_17
REMARK    5  A    between atoms: S_17  and  C_18
REMARK                            x       y       z     vdW  Elec       q    Type
REMARK                         _______ _______ _______ _____ _____    ______ ____
ROOT
ATOM      1  C   UNL     1       2.041   6.769  20.160  0.00  0.00    +0.000 A 
ATOM      2  N   UNL     1       1.504   5.733  20.770  0.00  0.00    +0.000 NA
ATOM      3  C   UNL     1       2.303   4.610  20.519  0.00  0.00    +0.000 A 
ATOM      4  C   UNL     1       3.430   4.805  19.738  0.00  0.00    +0.000 A 
ATOM      5  S   UNL     1       3.449   6.446  19.232  0.00  0.00    +0.000 S 
ENDROOT
BRANCH   1   7
ATOM      6  O   UNL     1       1.277   8.647  21.359  0.00  0.00    +0.000 OA
ATOM      7  C   UNL     1       1.549   8.146  20.273  0.00  0.00    +0.000 C 
ATOM      8  N   UNL     1       1.376   8.785  19.051  0.00  0.00    +0.000 N 
ATOM      9  H   UNL     1       1.540   8.217  18.226  0.00  0.00    +0.000 HD
BRANCH   8  10
ATOM     10  C   UNL     1       0.868  10.091  18.851  0.00  0.00    +0.000 A 
ATOM     11  C   UNL     1       1.689  11.220  18.750  0.00  0.00    +0.000 A 
ATOM     12  C   UNL     1       1.144  12.496  18.590  0.00  0.00    +0.000 A 
ATOM     13  C   UNL     1      -0.236  12.659  18.524  0.00  0.00    +0.000 A 
ATOM     14  C   UNL     1      -1.065  11.544  18.603  0.00  0.00    +0.000 A 
ATOM     15  C   UNL     1      -0.517  10.262  18.756  0.00  0.00    +0.000 A 
ENDBRANCH   8  10
ENDBRANCH   1   7
BRANCH   3  16
ATOM     16  N   UNL     1       1.925   3.380  21.156  0.00  0.00    +0.000 N 
ATOM     17  O   UNL     1       1.205   2.613  20.504  0.00  0.00    +0.000 OA
ATOM     18  O   UNL     1       2.368   3.189  22.293  0.00  0.00    +0.000 OA
ENDBRANCH   3  16
BRANCH   4  19
ATOM     19  S   UNL     1       4.781   3.733  19.385  0.00  0.00    +0.000 S 
BRANCH  19  20
ATOM     20  C   UNL     1       5.440   4.472  17.882  0.00  0.00    +0.000 A 
ATOM     21  C   UNL     1       4.779   4.362  16.645  0.00  0.00    +0.000 A 
ATOM     22 CL   UNL     1       3.301   3.499  16.417  0.00  0.00    +0.000 Cl
ATOM     23  C   UNL     1       5.311   5.020  15.537  0.00  0.00    +0.000 A 
ATOM     24  N   UNL     1       6.423   5.785  15.572  0.00  0.00    +0.000 NA
ATOM     25  C   UNL     1       7.021   5.917  16.775  0.00  0.00    +0.000 A 
ATOM     26  C   UNL     1       6.577   5.298  17.939  0.00  0.00    +0.000 A 
ATOM     27 CL   UNL     1       7.439   5.636  19.396  0.00  0.00    +0.000 Cl
ENDBRANCH  19  20
ENDBRANCH   4  19
TORSDOF 5
ENDMDL
MODEL 4
REMARK VINA RESULT:      -7.4      1.771      2.672
REMARK  Name = 
REMARK  5 active torsions:
REMARK  status: ('A' for Active; 'I' for Inactive)
REMARK    1  A    between atoms: C_2  and  C_10
REMARK    2  A    between atoms: N_3  and  C_4
REMARK    3  A    between atoms: C_12  and  N_13
REMARK    4  A    between atoms: C_16  and  S_17
REMARK    5  A    between atoms: S_17  and  C_18
REMARK                            x       y       z     vdW  Elec       q    Type
REMARK                         _______ _______ _______ _____ _____    ______ ____
ROOT
ATOM      1  C   UNL     1       2.004   6.742  20.063  0.00  0.00    +0.000 A 
ATOM      2  N   UNL     1       1.488   5.699  20.680  0.00  0.00    +0.000 NA
ATOM      3  C   UNL     1       2.345   4.607  20.493  0.00  0.00    +0.000 A 
ATOM      4  C   UNL     1       3.494   4.831  19.752  0.00  0.00    +0.000 A 
ATOM      5  S   UNL     1       3.462   6.458  19.200  0.00  0.00    +0.000 S 
ENDROOT
BRANCH   1   7
ATOM      6  O   UNL     1       1.540   8.872  19.170  0.00  0.00    +0.000 OA
ATOM      7  C   UNL     1       1.450   8.098  20.118  0.00  0.00    +0.000 C 
ATOM      8  N   UNL     1       0.878   8.425  21.343  0.00  0.00    +0.000 N 
ATOM      9  H   UNL     1       0.966   7.726  22.074  0.00  0.00    +0.000 HD
BRANCH   8  10
ATOM     10  C   UNL     1       0.314   9.673  21.700  0.00  0.00    +0.000 A 
ATOM     11  C   UNL     1       0.662  10.873  21.069  0.00  0.00    +0.000 A 
ATOM     12  C   UNL     1       0.108  12.089  21.478  0.00  0.00    +0.000 A 
ATOM     13  C   UNL     1      -0.806  12.119  22.526  0.00  0.00    +0.000 A 
ATOM     14  C   UNL     1      -1.176  10.931  23.150  0.00  0.00    +0.000 A 
ATOM     15  C   UNL     1      -0.627   9.710  22.734  0.00  0.00    +0.000 A 
ENDBRANCH   8  10
ENDBRANCH   1   7
BRANCH   3  16
ATOM     16  N   UNL     1       1.995   3.379  21.149  0.00  0.00    +0.000 N 
ATOM     17  O   UNL     1       1.265   2.600  20.521  0.00  0.00    +0.000 OA
ATOM     18  O   UNL     1       2.470   3.200  22.275  0.00  0.00    +0.000 OA
ENDBRANCH   3  16
BRANCH   4  19
ATOM     19  S   UNL     1       4.902   3.811  19.482  0.00  0.00    +0.000 S 
BRANCH  19  20
ATOM     20  C   UNL     1       5.506   4.444  17.909  0.00  0.00    +0.000 A 
ATOM     21  C   UNL     1       4.790   4.271  16.712  0.00  0.00    +0.000 A 
ATOM     22 CL   UNL     1       3.289   3.424  16.602  0.00  0.00    +0.000 Cl
ATOM     23  C   UNL     1       5.282   4.850  15.543  0.00  0.00    +0.000 A 
ATOM     24  N   UNL     1       6.408   5.594  15.482  0.00  0.00    +0.000 NA
ATOM     25  C   UNL     1       7.061   5.787  16.648  0.00  0.00    +0.000 A 
ATOM     26  C   UNL     1       6.658   5.250  17.866  0.00  0.00    +0.000 A 
ATOM     27 CL   UNL     1       7.590   5.660  19.261  0.00  0.00    +0.000 Cl
ENDBRANCH  19  20
ENDBRANCH   4  19
TORSDOF 5
ENDMDL
MODEL 5
REMARK VINA RESULT:      -7.4      1.794      1.999
REMARK  Name = 
REMARK  5 active torsions:
REMARK  status: ('A' for Active; 'I' for Inactive)
REMARK    1  A    between atoms: C_2  and  C_10
REMARK    2  A    between atoms: N_3  and  C_4
REMARK    3  A    between atoms: C_12  and  N_13
REMARK    4  A    between atoms: C_16  and  S_17
REMARK    5  A    between atoms: S_17  and  C_18
REMARK                            x       y       z     vdW  Elec       q    Type
REMARK                         _______ _______ _______ _____ _____    ______ ____
ROOT
ATOM      1  C   UNL     1       1.959   6.816  20.094  0.00  0.00    +0.000 A 
ATOM      2  N   UNL     1       1.460   5.778  20.732  0.00  0.00    +0.000 NA
ATOM      3  C   UNL     1       2.311   4.684  20.529  0.00  0.00    +0.000 A 
ATOM      4  C   UNL     1       3.438   4.901  19.754  0.00  0.00    +0.000 A 
ATOM      5  S   UNL     1       3.391   6.525  19.192  0.00  0.00    +0.000 S 
ENDROOT
BRANCH   1   7
ATOM      6  O   UNL     1       1.504   8.953  19.214  0.00  0.00    +0.000 OA
ATOM      7  C   UNL     1       1.406   8.172  20.156  0.00  0.00    +0.000 C 
ATOM      8  N   UNL     1       0.828   8.491  21.379  0.00  0.00    +0.000 N 
ATOM      9  H   UNL     1       0.910   7.787  22.106  0.00  0.00    +0.000 HD
BRANCH   8  10
ATOM     10  C   UNL     1       0.265   9.738  21.742  0.00  0.00    +0.000 A 
ATOM     11  C   UNL     1       0.616  10.941  21.120  0.00  0.00    +0.000 A 
ATOM     12  C   UNL     1       0.062  12.155  21.535  0.00  0.00    +0.000 A 
ATOM     13  C   UNL     1      -0.856  12.180  22.579  0.00  0.00    +0.000 A 
ATOM     14  C   UNL     1      -1.230  10.989  23.195  0.00  0.00    +0.000 A 
ATOM     15  C   UNL     1      -0.680   9.770  22.773  0.00  0.00    +0.000 A 
ENDBRANCH   8  10
ENDBRANCH   1   7
BRANCH   3  16
ATOM     16  N   UNL     1       1.979   3.460  21.202  0.00  0.00    +0.000 N 
ATOM     17  O   UNL     1       1.196   2.698  20.620  0.00  0.00    +0.000 OA
ATOM     18  O   UNL     1       2.521   3.268  22.296  0.00  0.00    +0.000 OA
ENDBRANCH   3  16
BRANCH   4  19
ATOM     19  S   UNL     1       4.838   3.879  19.451  0.00  0.00    +0.000 S 
BRANCH  19  20
ATOM     20  C   UNL     1       5.472   4.585  17.921  0.00  0.00    +0.000 A 
ATOM     21  C   UNL     1       6.673   5.315  17.878  0.00  0.00    +0.000 A 
ATOM     22 CL   UNL     1       7.651   5.641  19.263  0.00  0.00    +0.000 Cl
ATOM     23  C   UNL     1       7.140   5.771  16.646  0.00  0.00    +0.000 A 
ATOM     24  N   UNL     1       6.520   5.541  15.468  0.00  0.00    +0.000 NA
ATOM     25  C   UNL     1       5.391   4.802  15.521  0.00  0.00    +0.000 A 
ATOM     26  C   UNL     1       4.838   4.305  16.697  0.00  0.00    +0.000 A 
ATOM     27 CL   UNL     1       3.421   3.327  16.557  0.00  0.00    +0.000 Cl
ENDBRANCH  19  20
ENDBRANCH   4  19
TORSDOF 5
ENDMDL
MODEL 6
REMARK VINA RESULT:      -7.4      0.080      1.127
REMARK  Name = 
REMARK  5 active torsions:
REMARK  status: ('A' for Active; 'I' for Inactive)
REMARK    1  A    between atoms: C_2  and  C_10
REMARK    2  A    between atoms: N_3  and  C_4
REMARK    3  A    between atoms: C_12  and  N_13
REMARK    4  A    between atoms: C_16  and  S_17
REMARK    5  A    between atoms: S_17  and  C_18
REMARK                            x       y       z     vdW  Elec       q    Type
REMARK                         _______ _______ _______ _____ _____    ______ ____
ROOT
ATOM      1  C   UNL     1       1.974   6.910  20.209  0.00  0.00    +0.000 A 
ATOM      2  N   UNL     1       1.451   5.871  20.825  0.00  0.00    +0.000 NA
ATOM      3  C   UNL     1       2.255   4.753  20.566  0.00  0.00    +0.000 A 
ATOM      4  C   UNL     1       3.372   4.955  19.773  0.00  0.00    +0.000 A 
ATOM      5  S   UNL     1       3.374   6.596  19.265  0.00  0.00    +0.000 S 
ENDROOT
BRANCH   1   7
ATOM      6  O   UNL     1       1.247   8.797  21.418  0.00  0.00    +0.000 OA
ATOM      7  C   UNL     1       1.475   8.284  20.327  0.00  0.00    +0.000 C 
ATOM      8  N   UNL     1       1.238   8.905  19.106  0.00  0.00    +0.000 N 
ATOM      9  H   UNL     1       1.370   8.327  18.281  0.00  0.00    +0.000 HD
BRANCH   8  10
ATOM     10  C   UNL     1       0.709  10.204  18.913  0.00  0.00    +0.000 A 
ATOM     11  C   UNL     1      -0.657  10.450  18.742  0.00  0.00    +0.000 A 
ATOM     12  C   UNL     1      -1.134  11.745  18.518  0.00  0.00    +0.000 A 
ATOM     13  C   UNL     1      -0.245  12.813  18.465  0.00  0.00    +0.000 A 
ATOM     14  C   UNL     1       1.116  12.586  18.652  0.00  0.00    +0.000 A 
ATOM     15  C   UNL     1       1.592  11.287  18.885  0.00  0.00    +0.000 A 
ENDBRANCH   8  10
ENDBRANCH   1   7
BRANCH   3  16
ATOM     16  N   UNL     1       1.892   3.521  21.208  0.00  0.00    +0.000 N 
ATOM     17  O   UNL     1       1.083   2.799  20.610  0.00  0.00    +0.000 OA
ATOM     18  O   UNL     1       2.435   3.283  22.291  0.00  0.00    +0.000 OA
ENDBRANCH   3  16
BRANCH   4  19
ATOM     19  S   UNL     1       4.725   3.892  19.405  0.00  0.00    +0.000 S 
BRANCH  19  20
ATOM     20  C   UNL     1       5.389   4.660  17.918  0.00  0.00    +0.000 A 
ATOM     21  C   UNL     1       6.593   5.387  17.928  0.00  0.00    +0.000 A 
ATOM     22 CL   UNL     1       7.546   5.650  19.344  0.00  0.00    +0.000 Cl
ATOM     23  C   UNL     1       7.083   5.894  16.726  0.00  0.00    +0.000 A 
ATOM     24  N   UNL     1       6.485   5.717  15.529  0.00  0.00    +0.000 NA
ATOM     25  C   UNL     1       5.353   4.980  15.529  0.00  0.00    +0.000 A 
ATOM     26  C   UNL     1       4.777   4.435  16.672  0.00  0.00    +0.000 A 
ATOM     27 CL   UNL     1       3.361   3.470  16.464  0.00  0.00    +0.000 Cl
ENDBRANCH  19  20
ENDBRANCH   4  19
TORSDOF 5
ENDMDL
MODEL 7
REMARK VINA RESULT:      -7.3      3.675      7.968
REMARK  Name = 
REMARK  5 active torsions:
REMARK  status: ('A' for Active; 'I' for Inactive)
REMARK    1  A    between atoms: C_2  and  C_10
REMARK    2  A    between atoms: N_3  and  C_4
REMARK    3  A    between atoms: C_12  and  N_13
REMARK    4  A    between atoms: C_16  and  S_17
REMARK    5  A    between atoms: S_17  and  C_18
REMARK                            x       y       z     vdW  Elec       q    Type
REMARK                         _______ _______ _______ _____ _____    ______ ____
ROOT
ATOM      1  C   UNL     1       2.365   7.630  18.904  0.00  0.00    +0.000 A 
ATOM      2  N   UNL     1       1.986   7.722  20.162  0.00  0.00    +0.000 NA
ATOM      3  C   UNL     1       1.153   8.840  20.292  0.00  0.00    +0.000 A 
ATOM      4  C   UNL     1       0.904   9.574  19.144  0.00  0.00    +0.000 A 
ATOM      5  S   UNL     1       1.813   8.879  17.862  0.00  0.00    +0.000 S 
ENDROOT
BRANCH   1   7
ATOM      6  O   UNL     1       2.879   5.354  18.580  0.00  0.00    +0.000 OA
ATOM      7  C   UNL     1       3.159   6.527  18.354  0.00  0.00    +0.000 C 
ATOM      8  N   UNL     1       4.264   6.941  17.618  0.00  0.00    +0.000 N 
ATOM      9  H   UNL     1       4.436   7.941  17.599  0.00  0.00    +0.000 HD
BRANCH   8  10
ATOM     10  C   UNL     1       5.233   6.102  17.016  0.00  0.00    +0.000 A 
ATOM     11  C   UNL     1       6.249   5.471  17.742  0.00  0.00    +0.000 A 
ATOM     12  C   UNL     1       7.207   4.681  17.103  0.00  0.00    +0.000 A 
ATOM     13  C   UNL     1       7.159   4.509  15.724  0.00  0.00    +0.000 A 
ATOM     14  C   UNL     1       6.143   5.115  14.990  0.00  0.00    +0.000 A 
ATOM     15  C   UNL     1       5.176   5.901  15.633  0.00  0.00    +0.000 A 
ENDBRANCH   8  10
ENDBRANCH   1   7
BRANCH   3  16
ATOM     16  N   UNL     1       0.573   9.081  21.583  0.00  0.00    +0.000 N 
ATOM     17  O   UNL     1       1.240   9.757  22.377  0.00  0.00    +0.000 OA
ATOM     18  O   UNL     1      -0.550   8.605  21.780  0.00  0.00    +0.000 OA
ENDBRANCH   3  16
BRANCH   4  19
ATOM     19  S   UNL     1      -0.235  10.880  18.840  0.00  0.00    +0.000 S 
BRANCH  19  20
ATOM     20  C   UNL     1       0.452  12.197  19.857  0.00  0.00    +0.000 A 
ATOM     21  C   UNL     1      -0.141  12.589  21.070  0.00  0.00    +0.000 A 
ATOM     22 CL   UNL     1      -1.586  11.889  21.705  0.00  0.00    +0.000 Cl
ATOM     23  C   UNL     1       0.486  13.568  21.841  0.00  0.00    +0.000 A 
ATOM     24  N   UNL     1       1.652  14.161  21.509  0.00  0.00    +0.000 NA
ATOM     25  C   UNL     1       2.232  13.743  20.363  0.00  0.00    +0.000 A 
ATOM     26  C   UNL     1       1.687  12.780  19.520  0.00  0.00    +0.000 A 
ATOM     27 CL   UNL     1       2.607  12.332  18.129  0.00  0.00    +0.000 Cl
ENDBRANCH  19  20
ENDBRANCH   4  19
TORSDOF 5
ENDMDL
MODEL 8
REMARK VINA RESULT:      -7.0      4.667      6.892
REMARK  Name = 
REMARK  5 active torsions:
REMARK  status: ('A' for Active; 'I' for Inactive)
REMARK    1  A    between atoms: C_2  and  C_10
REMARK    2  A    between atoms: N_3  and  C_4
REMARK    3  A    between atoms: C_12  and  N_13
REMARK    4  A    between atoms: C_16  and  S_17
REMARK    5  A    between atoms: S_17  and  C_18
REMARK                            x       y       z     vdW  Elec       q    Type
REMARK                         _______ _______ _______ _____ _____    ______ ____
ROOT
ATOM      1  C   UNL     1       7.264   6.510  17.580  0.00  0.00    +0.000 A 
ATOM      2  N   UNL     1       7.494   6.083  16.355  0.00  0.00    +0.000 NA
ATOM      3  C   UNL     1       6.489   5.170  16.011  0.00  0.00    +0.000 A 
ATOM      4  C   UNL     1       5.514   4.922  16.962  0.00  0.00    +0.000 A 
ATOM      5  S   UNL     1       5.914   5.810  18.378  0.00  0.00    +0.000 S 
ENDROOT
BRANCH   1   7
ATOM      6  O   UNL     1       8.710   7.319  19.255  0.00  0.00    +0.000 OA
ATOM      7  C   UNL     1       8.041   7.555  18.254  0.00  0.00    +0.000 C 
ATOM      8  N   UNL     1       7.897   8.818  17.689  0.00  0.00    +0.000 N 
ATOM      9  H   UNL     1       7.230   8.890  16.928  0.00  0.00    +0.000 HD
BRANCH   8  10
ATOM     10  C   UNL     1       8.482  10.019  18.158  0.00  0.00    +0.000 A 
ATOM     11  C   UNL     1       8.270  11.258  17.545  0.00  0.00    +0.000 A 
ATOM     12  C   UNL     1       8.897  12.414  18.019  0.00  0.00    +0.000 A 
ATOM     13  C   UNL     1       9.745  12.343  19.119  0.00  0.00    +0.000 A 
ATOM     14  C   UNL     1       9.951  11.120  19.752  0.00  0.00    +0.000 A 
ATOM     15  C   UNL     1       9.315   9.962  19.280  0.00  0.00    +0.000 A 
ENDBRANCH   8  10
ENDBRANCH   1   7
BRANCH   3  16
ATOM     16  N   UNL     1       6.518   4.634  14.679  0.00  0.00    +0.000 N 
ATOM     17  O   UNL     1       5.944   3.552  14.501  0.00  0.00    +0.000 OA
ATOM     18  O   UNL     1       7.098   5.312  13.825  0.00  0.00    +0.000 OA
ENDBRANCH   3  16
BRANCH   4  19
ATOM     19  S   UNL     1       3.996   4.038  16.848  0.00  0.00    +0.000 S 
BRANCH  19  20
ATOM     20  C   UNL     1       3.350   4.220  18.518  0.00  0.00    +0.000 A 
ATOM     21  C   UNL     1       2.685   5.386  18.938  0.00  0.00    +0.000 A 
ATOM     22 CL   UNL     1       2.438   6.768  17.931  0.00  0.00    +0.000 Cl
ATOM     23  C   UNL     1       2.148   5.429  20.223  0.00  0.00    +0.000 A 
ATOM     24  N   UNL     1       2.204   4.405  21.102  0.00  0.00    +0.000 NA
ATOM     25  C   UNL     1       2.807   3.277  20.670  0.00  0.00    +0.000 A 
ATOM     26  C   UNL     1       3.380   3.133  19.410  0.00  0.00    +0.000 A 
ATOM     27 CL   UNL     1       4.052   1.592  19.016  0.00  0.00    +0.000 Cl
ENDBRANCH  19  20
ENDBRANCH   4  19
TORSDOF 5
ENDMDL
MODEL 9
REMARK VINA RESULT:      -7.0      4.028      8.267
REMARK  Name = 
REMARK  5 active torsions:
REMARK  status: ('A' for Active; 'I' for Inactive)
REMARK    1  A    between atoms: C_2  and  C_10
REMARK    2  A    between atoms: N_3  and  C_4
REMARK    3  A    between atoms: C_12  and  N_13
REMARK    4  A    between atoms: C_16  and  S_17
REMARK    5  A    between atoms: S_17  and  C_18
REMARK                            x       y       z     vdW  Elec       q    Type
REMARK                         _______ _______ _______ _____ _____    ______ ____
ROOT
ATOM      1  C   UNL     1       2.070   7.748  19.284  0.00  0.00    +0.000 A 
ATOM      2  N   UNL     1       1.687   7.905  20.534  0.00  0.00    +0.000 NA
ATOM      3  C   UNL     1       0.953   9.095  20.625  0.00  0.00    +0.000 A 
ATOM      4  C   UNL     1       0.782   9.817  19.456  0.00  0.00    +0.000 A 
ATOM      5  S   UNL     1       1.641   9.013  18.204  0.00  0.00    +0.000 S 
ENDROOT
BRANCH   1   7
ATOM      6  O   UNL     1       3.641   6.655  17.910  0.00  0.00    +0.000 OA
ATOM      7  C   UNL     1       2.771   6.567  18.771  0.00  0.00    +0.000 C 
ATOM      8  N   UNL     1       2.319   5.366  19.307  0.00  0.00    +0.000 N 
ATOM      9  H   UNL     1       1.522   5.431  19.932  0.00  0.00    +0.000 HD
BRANCH   8  10
ATOM     10  C   UNL     1       2.772   4.070  18.962  0.00  0.00    +0.000 A 
ATOM     11  C   UNL     1       2.261   3.350  17.877  0.00  0.00    +0.000 A 
ATOM     12  C   UNL     1       2.711   2.058  17.593  0.00  0.00    +0.000 A 
ATOM     13  C   UNL     1       3.684   1.469  18.394  0.00  0.00    +0.000 A 
ATOM     14  C   UNL     1       4.215   2.180  19.466  0.00  0.00    +0.000 A 
ATOM     15  C   UNL     1       3.769   3.481  19.745  0.00  0.00    +0.000 A 
ENDBRANCH   8  10
ENDBRANCH   1   7
BRANCH   3  16
ATOM     16  N   UNL     1       0.383   9.417  21.903  0.00  0.00    +0.000 N 
ATOM     17  O   UNL     1      -0.775   9.030  22.110  0.00  0.00    +0.000 OA
ATOM     18  O   UNL     1       1.106  10.037  22.689  0.00  0.00    +0.000 OA
ENDBRANCH   3  16
BRANCH   4  19
ATOM     19  S   UNL     1      -0.235  11.210  19.106  0.00  0.00    +0.000 S 
BRANCH  19  20
ATOM     20  C   UNL     1       0.488  12.460  20.180  0.00  0.00    +0.000 A 
ATOM     21  C   UNL     1       1.696  13.106  19.864  0.00  0.00    +0.000 A 
ATOM     22 CL   UNL     1       2.628  12.765  18.450  0.00  0.00    +0.000 Cl
ATOM     23  C   UNL     1       2.161  14.115  20.706  0.00  0.00    +0.000 A 
ATOM     24  N   UNL     1       1.512  14.537  21.812  0.00  0.00    +0.000 NA
ATOM     25  C   UNL     1       0.332  13.937  22.079  0.00  0.00    +0.000 A 
ATOM     26  C   UNL     1      -0.216  12.918  21.308  0.00  0.00    +0.000 A 
ATOM     27 CL   UNL     1      -1.767  12.317  21.775  0.00  0.00    +0.000 Cl
ENDBRANCH  19  20
ENDBRANCH   4  19
TORSDOF 5
ENDMDL
