MODEL 1
REMARK VINA RESULT:      -8.2      0.000      0.000
REMARK  Name = 
REMARK  5 active torsions:
REMARK  status: ('A' for Active; 'I' for Inactive)
REMARK    1  A    between atoms: C_1  and  C_2
REMARK    2  A    between atoms: C_5  and  C_6
REMARK    3  A    between atoms: C_8  and  C_9
REMARK    4  A    between atoms: C_12  and  C_13
REMARK    5  A    between atoms: C_18  and  C_19
REMARK                            x       y       z     vdW  Elec       q    Type
REMARK                         _______ _______ _______ _____ _____    ______ ____
ROOT
ATOM      1  C   UNL     1       2.865   5.538  18.255  0.00  0.00    +0.000 A 
ATOM      2  C   UNL     1       3.832   5.615  17.236  0.00  0.00    +0.000 A 
ATOM      3  C   UNL     1       4.397   4.458  16.710  0.00  0.00    +0.000 A 
ATOM      4  N   UNL     1       3.991   3.220  17.074  0.00  0.00    +0.000 NA
ATOM      5  C   UNL     1       3.056   3.121  18.033  0.00  0.00    +0.000 A 
ATOM      6  N   UNL     1       2.741   1.813  18.397  0.00  0.00    +0.000 N 
ATOM      7  C   UNL     1       2.503   4.238  18.679  0.00  0.00    +0.000 A 
ATOM      8  H   UNL     1       3.205   1.179  17.752  0.00  0.00    +0.000 HD
ATOM      9  H   UNL     1       1.744   1.628  18.468  0.00  0.00    +0.000 HD
ENDROOT
BRANCH   1  14
ATOM     10  C   UNL     1       0.591  10.380  20.607  0.00  0.00    +0.000 C 
ATOM     11  C   UNL     1       1.217   9.161  20.003  0.00  0.00    +0.000 A 
ATOM     12  C   UNL     1       1.486   9.093  18.637  0.00  0.00    +0.000 A 
ATOM     13  C   UNL     1       2.061   7.944  18.079  0.00  0.00    +0.000 A 
ATOM     14  C   UNL     1       2.330   6.800  18.849  0.00  0.00    +0.000 A 
ATOM     15  C   UNL     1       2.069   6.899  20.231  0.00  0.00    +0.000 A 
ATOM     16  C   UNL     1       1.537   8.062  20.802  0.00  0.00    +0.000 A 
ENDBRANCH   1  14
BRANCH   3  17
ATOM     17  C   UNL     1       5.529   4.491  15.792  0.00  0.00    +0.000 A 
ATOM     18  C   UNL     1       6.788   5.055  15.845  0.00  0.00    +0.000 A 
ATOM     19  C   UNL     1       7.393   4.825  14.585  0.00  0.00    +0.000 A 
ATOM     20  C   UNL     1       6.470   4.134  13.833  0.00  0.00    +0.000 A 
ATOM     21  C   UNL     1       6.459   3.631  12.445  0.00  0.00    +0.000 C 
ATOM     22  O   UNL     1       5.341   3.914  14.565  0.00  0.00    +0.000 OA
ENDBRANCH   3  17
BRANCH   7  23
ATOM     23  C   UNL     1       1.604   3.998  19.767  0.00  0.00    +0.000 C 
ATOM     24  N   UNL     1       0.896   3.754  20.657  0.00  0.00    +0.000 NA
ENDBRANCH   7  23
TORSDOF 3
ENDMDL
MODEL 2
REMARK VINA RESULT:      -8.2      0.113      1.027
REMARK  Name = 
REMARK  5 active torsions:
REMARK  status: ('A' for Active; 'I' for Inactive)
REMARK    1  A    between atoms: C_1  and  C_2
REMARK    2  A    between atoms: C_5  and  C_6
REMARK    3  A    between atoms: C_8  and  C_9
REMARK    4  A    between atoms: C_12  and  C_13
REMARK    5  A    between atoms: C_18  and  C_19
REMARK                            x       y       z     vdW  Elec       q    Type
REMARK                         _______ _______ _______ _____ _____    ______ ____
ROOT
ATOM      1  C   UNL     1       2.861   5.437  18.295  0.00  0.00    +0.000 A 
ATOM      2  C   UNL     1       3.814   5.537  17.265  0.00  0.00    +0.000 A 
ATOM      3  C   UNL     1       4.412   4.395  16.742  0.00  0.00    +0.000 A 
ATOM      4  N   UNL     1       4.051   3.147  17.121  0.00  0.00    +0.000 NA
ATOM      5  C   UNL     1       3.130   3.026  18.091  0.00  0.00    +0.000 A 
ATOM      6  N   UNL     1       2.863   1.711  18.470  0.00  0.00    +0.000 N 
ATOM      7  C   UNL     1       2.547   4.129  18.733  0.00  0.00    +0.000 A 
ATOM      8  H   UNL     1       3.341   1.087  17.825  0.00  0.00    +0.000 HD
ATOM      9  H   UNL     1       1.873   1.494  18.552  0.00  0.00    +0.000 HD
ENDROOT
BRANCH   1  14
ATOM     10  C   UNL     1       0.811  10.413  20.572  0.00  0.00    +0.000 C 
ATOM     11  C   UNL     1       1.292   9.119  19.990  0.00  0.00    +0.000 A 
ATOM     12  C   UNL     1       1.514   8.006  20.799  0.00  0.00    +0.000 A 
ATOM     13  C   UNL     1       1.975   6.804  20.248  0.00  0.00    +0.000 A 
ATOM     14  C   UNL     1       2.290   6.685  18.883  0.00  0.00    +0.000 A 
ATOM     15  C   UNL     1       2.037   7.817  18.082  0.00  0.00    +0.000 A 
ATOM     16  C   UNL     1       1.532   9.007  18.620  0.00  0.00    +0.000 A 
ENDBRANCH   1  14
BRANCH   3  17
ATOM     17  C   UNL     1       5.533   4.458  15.813  0.00  0.00    +0.000 A 
ATOM     18  C   UNL     1       6.781   5.047  15.856  0.00  0.00    +0.000 A 
ATOM     19  C   UNL     1       7.377   4.838  14.588  0.00  0.00    +0.000 A 
ATOM     20  C   UNL     1       6.459   4.135  13.841  0.00  0.00    +0.000 A 
ATOM     21  C   UNL     1       6.443   3.642  12.449  0.00  0.00    +0.000 C 
ATOM     22  O   UNL     1       5.344   3.886  14.584  0.00  0.00    +0.000 OA
ENDBRANCH   3  17
BRANCH   7  23
ATOM     23  C   UNL     1       1.667   3.868  19.833  0.00  0.00    +0.000 C 
ATOM     24  N   UNL     1       0.950   3.606  20.709  0.00  0.00    +0.000 NA
ENDBRANCH   7  23
TORSDOF 3
ENDMDL
MODEL 3
REMARK VINA RESULT:      -8.0      2.034      6.576
REMARK  Name = 
REMARK  5 active torsions:
REMARK  status: ('A' for Active; 'I' for Inactive)
REMARK    1  A    between atoms: C_1  and  C_2
REMARK    2  A    between atoms: C_5  and  C_6
REMARK    3  A    between atoms: C_8  and  C_9
REMARK    4  A    between atoms: C_12  and  C_13
REMARK    5  A    between atoms: C_18  and  C_19
REMARK                            x       y       z     vdW  Elec       q    Type
REMARK                         _______ _______ _______ _____ _____    ______ ____
ROOT
ATOM      1  C   UNL     1       3.703   5.075  18.654  0.00  0.00    +0.000 A 
ATOM      2  C   UNL     1       3.251   6.354  19.030  0.00  0.00    +0.000 A 
ATOM      3  C   UNL     1       2.305   6.501  20.037  0.00  0.00    +0.000 A 
ATOM      4  N   UNL     1       1.844   5.455  20.761  0.00  0.00    +0.000 NA
ATOM      5  C   UNL     1       2.273   4.225  20.433  0.00  0.00    +0.000 A 
ATOM      6  N   UNL     1       1.701   3.197  21.181  0.00  0.00    +0.000 N 
ATOM      7  C   UNL     1       3.156   3.983  19.370  0.00  0.00    +0.000 A 
ATOM      8  H   UNL     1       1.155   3.612  21.932  0.00  0.00    +0.000 HD
ATOM      9  H   UNL     1       2.369   2.511  21.524  0.00  0.00    +0.000 HD
ENDROOT
BRANCH   1  14
ATOM     10  C   UNL     1       7.471   4.773  14.199  0.00  0.00    +0.000 C 
ATOM     11  C   UNL     1       6.510   4.803  15.347  0.00  0.00    +0.000 A 
ATOM     12  C   UNL     1       5.190   4.384  15.191  0.00  0.00    +0.000 A 
ATOM     13  C   UNL     1       4.296   4.426  16.268  0.00  0.00    +0.000 A 
ATOM     14  C   UNL     1       4.666   4.945  17.520  0.00  0.00    +0.000 A 
ATOM     15  C   UNL     1       6.011   5.342  17.660  0.00  0.00    +0.000 A 
ATOM     16  C   UNL     1       6.922   5.259  16.600  0.00  0.00    +0.000 A 
ENDBRANCH   1  14
BRANCH   3  17
ATOM     17  C   UNL     1       1.672   7.781  20.331  0.00  0.00    +0.000 A 
ATOM     18  C   UNL     1       1.050   8.309  21.445  0.00  0.00    +0.000 A 
ATOM     19  C   UNL     1       0.542   9.576  21.069  0.00  0.00    +0.000 A 
ATOM     20  C   UNL     1       0.881   9.752  19.747  0.00  0.00    +0.000 A 
ATOM     21  C   UNL     1       0.624  10.823  18.763  0.00  0.00    +0.000 C 
ATOM     22  O   UNL     1       1.582   8.673  19.296  0.00  0.00    +0.000 OA
ENDBRANCH   3  17
BRANCH   7  23
ATOM     23  C   UNL     1       3.446   2.619  19.044  0.00  0.00    +0.000 C 
ATOM     24  N   UNL     1       3.640   1.513  18.744  0.00  0.00    +0.000 NA
ENDBRANCH   7  23
TORSDOF 3
ENDMDL
MODEL 4
REMARK VINA RESULT:      -8.0      2.275      6.863
REMARK  Name = 
REMARK  5 active torsions:
REMARK  status: ('A' for Active; 'I' for Inactive)
REMARK    1  A    between atoms: C_1  and  C_2
REMARK    2  A    between atoms: C_5  and  C_6
REMARK    3  A    between atoms: C_8  and  C_9
REMARK    4  A    between atoms: C_12  and  C_13
REMARK    5  A    between atoms: C_18  and  C_19
REMARK                            x       y       z     vdW  Elec       q    Type
REMARK                         _______ _______ _______ _____ _____    ______ ____
ROOT
ATOM      1  C   UNL     1       3.748   5.168  18.654  0.00  0.00    +0.000 A 
ATOM      2  C   UNL     1       3.239   6.432  19.007  0.00  0.00    +0.000 A 
ATOM      3  C   UNL     1       2.314   6.559  20.036  0.00  0.00    +0.000 A 
ATOM      4  N   UNL     1       1.927   5.511  20.801  0.00  0.00    +0.000 NA
ATOM      5  C   UNL     1       2.413   4.297  20.495  0.00  0.00    +0.000 A 
ATOM      6  N   UNL     1       1.916   3.262  21.287  0.00  0.00    +0.000 N 
ATOM      7  C   UNL     1       3.279   4.070  19.414  0.00  0.00    +0.000 A 
ATOM      8  H   UNL     1       1.368   3.670  22.041  0.00  0.00    +0.000 HD
ATOM      9  H   UNL     1       2.627   2.622  21.630  0.00  0.00    +0.000 HD
ENDROOT
BRANCH   1  14
ATOM     10  C   UNL     1       7.392   4.930  14.093  0.00  0.00    +0.000 C 
ATOM     11  C   UNL     1       6.469   4.945  15.272  0.00  0.00    +0.000 A 
ATOM     12  C   UNL     1       5.208   4.355  15.206  0.00  0.00    +0.000 A 
ATOM     13  C   UNL     1       4.347   4.385  16.310  0.00  0.00    +0.000 A 
ATOM     14  C   UNL     1       4.686   5.055  17.498  0.00  0.00    +0.000 A 
ATOM     15  C   UNL     1       5.974   5.625  17.549  0.00  0.00    +0.000 A 
ATOM     16  C   UNL     1       6.857   5.559  16.464  0.00  0.00    +0.000 A 
ENDBRANCH   1  14
BRANCH   3  17
ATOM     17  C   UNL     1       1.623   7.812  20.312  0.00  0.00    +0.000 A 
ATOM     18  C   UNL     1       1.413   8.970  19.589  0.00  0.00    +0.000 A 
ATOM     19  C   UNL     1       0.750   9.877  20.452  0.00  0.00    +0.000 A 
ATOM     20  C   UNL     1       0.593   9.224  21.653  0.00  0.00    +0.000 A 
ATOM     21  C   UNL     1       0.025   9.616  22.958  0.00  0.00    +0.000 C 
ATOM     22  O   UNL     1       1.106   7.963  21.571  0.00  0.00    +0.000 OA
ENDBRANCH   3  17
BRANCH   7  23
ATOM     23  C   UNL     1       3.630   2.714  19.119  0.00  0.00    +0.000 C 
ATOM     24  N   UNL     1       3.864   1.602  18.872  0.00  0.00    +0.000 NA
ENDBRANCH   7  23
TORSDOF 3
ENDMDL
MODEL 5
REMARK VINA RESULT:      -7.9      2.312      6.935
REMARK  Name = 
REMARK  5 active torsions:
REMARK  status: ('A' for Active; 'I' for Inactive)
REMARK    1  A    between atoms: C_1  and  C_2
REMARK    2  A    between atoms: C_5  and  C_6
REMARK    3  A    between atoms: C_8  and  C_9
REMARK    4  A    between atoms: C_12  and  C_13
REMARK    5  A    between atoms: C_18  and  C_19
REMARK                            x       y       z     vdW  Elec       q    Type
REMARK                         _______ _______ _______ _____ _____    ______ ____
ROOT
ATOM      1  C   UNL     1       3.611   5.383  18.732  0.00  0.00    +0.000 A 
ATOM      2  C   UNL     1       3.074   6.639  19.066  0.00  0.00    +0.000 A 
ATOM      3  C   UNL     1       2.168   6.765  20.113  0.00  0.00    +0.000 A 
ATOM      4  N   UNL     1       1.830   5.726  20.911  0.00  0.00    +0.000 NA
ATOM      5  C   UNL     1       2.344   4.519  20.624  0.00  0.00    +0.000 A 
ATOM      6  N   UNL     1       1.896   3.490  21.451  0.00  0.00    +0.000 N 
ATOM      7  C   UNL     1       3.192   4.291  19.529  0.00  0.00    +0.000 A 
ATOM      8  H   UNL     1       1.354   3.899  22.208  0.00  0.00    +0.000 HD
ATOM      9  H   UNL     1       2.634   2.879  21.793  0.00  0.00    +0.000 HD
ENDROOT
BRANCH   1  14
ATOM     10  C   UNL     1       7.246   4.751  14.201  0.00  0.00    +0.000 C 
ATOM     11  C   UNL     1       6.299   4.954  15.343  0.00  0.00    +0.000 A 
ATOM     12  C   UNL     1       6.602   5.836  16.380  0.00  0.00    +0.000 A 
ATOM     13  C   UNL     1       5.715   6.011  17.450  0.00  0.00    +0.000 A 
ATOM     14  C   UNL     1       4.527   5.269  17.558  0.00  0.00    +0.000 A 
ATOM     15  C   UNL     1       4.231   4.401  16.487  0.00  0.00    +0.000 A 
ATOM     16  C   UNL     1       5.092   4.256  15.392  0.00  0.00    +0.000 A 
ENDBRANCH   1  14
BRANCH   3  17
ATOM     17  C   UNL     1       1.446   8.003  20.375  0.00  0.00    +0.000 A 
ATOM     18  C   UNL     1       1.232   9.159  19.650  0.00  0.00    +0.000 A 
ATOM     19  C   UNL     1       0.531  10.051  20.498  0.00  0.00    +0.000 A 
ATOM     20  C   UNL     1       0.356   9.391  21.693  0.00  0.00    +0.000 A 
ATOM     21  C   UNL     1      -0.253   9.768  22.984  0.00  0.00    +0.000 C 
ATOM     22  O   UNL     1       0.894   8.141  21.621  0.00  0.00    +0.000 OA
ENDBRANCH   3  17
BRANCH   7  23
ATOM     23  C   UNL     1       3.578   2.939  19.258  0.00  0.00    +0.000 C 
ATOM     24  N   UNL     1       3.840   1.826  19.047  0.00  0.00    +0.000 NA
ENDBRANCH   7  23
TORSDOF 3
ENDMDL
MODEL 6
REMARK VINA RESULT:      -7.8      2.066      6.653
REMARK  Name = 
REMARK  5 active torsions:
REMARK  status: ('A' for Active; 'I' for Inactive)
REMARK    1  A    between atoms: C_1  and  C_2
REMARK    2  A    between atoms: C_5  and  C_6
REMARK    3  A    between atoms: C_8  and  C_9
REMARK    4  A    between atoms: C_12  and  C_13
REMARK    5  A    between atoms: C_18  and  C_19
REMARK                            x       y       z     vdW  Elec       q    Type
REMARK                         _______ _______ _______ _____ _____    ______ ____
ROOT
ATOM      1  C   UNL     1       3.635   5.361  18.706  0.00  0.00    +0.000 A 
ATOM      2  C   UNL     1       3.120   6.622  19.060  0.00  0.00    +0.000 A 
ATOM      3  C   UNL     1       2.205   6.744  20.100  0.00  0.00    +0.000 A 
ATOM      4  N   UNL     1       1.837   5.696  20.873  0.00  0.00    +0.000 NA
ATOM      5  C   UNL     1       2.329   4.485  20.566  0.00  0.00    +0.000 A 
ATOM      6  N   UNL     1       1.851   3.449  21.367  0.00  0.00    +0.000 N 
ATOM      7  C   UNL     1       3.184   4.262  19.475  0.00  0.00    +0.000 A 
ATOM      8  H   UNL     1       1.309   3.854  22.126  0.00  0.00    +0.000 HD
ATOM      9  H   UNL     1       2.571   2.815  21.703  0.00  0.00    +0.000 HD
ENDROOT
BRANCH   1  14
ATOM     10  C   UNL     1       7.306   4.748  14.202  0.00  0.00    +0.000 C 
ATOM     11  C   UNL     1       6.350   4.947  15.338  0.00  0.00    +0.000 A 
ATOM     12  C   UNL     1       6.653   5.810  16.389  0.00  0.00    +0.000 A 
ATOM     13  C   UNL     1       5.758   5.981  17.453  0.00  0.00    +0.000 A 
ATOM     14  C   UNL     1       4.560   5.253  17.539  0.00  0.00    +0.000 A 
ATOM     15  C   UNL     1       4.265   4.402  16.454  0.00  0.00    +0.000 A 
ATOM     16  C   UNL     1       5.135   4.262  15.365  0.00  0.00    +0.000 A 
ENDBRANCH   1  14
BRANCH   3  17
ATOM     17  C   UNL     1       1.507   7.992  20.380  0.00  0.00    +0.000 A 
ATOM     18  C   UNL     1       0.846   8.494  21.485  0.00  0.00    +0.000 A 
ATOM     19  C   UNL     1       0.280   9.732  21.097  0.00  0.00    +0.000 A 
ATOM     20  C   UNL     1       0.625   9.919  19.777  0.00  0.00    +0.000 A 
ATOM     21  C   UNL     1       0.326  10.971  18.786  0.00  0.00    +0.000 C 
ATOM     22  O   UNL     1       1.384   8.874  19.340  0.00  0.00    +0.000 OA
ENDBRANCH   3  17
BRANCH   7  23
ATOM     23  C   UNL     1       3.544   2.908  19.180  0.00  0.00    +0.000 C 
ATOM     24  N   UNL     1       3.793   1.792  18.968  0.00  0.00    +0.000 NA
ENDBRANCH   7  23
TORSDOF 3
ENDMDL
MODEL 7
REMARK VINA RESULT:      -7.5      3.610      6.213
REMARK  Name = 
REMARK  5 active torsions:
REMARK  status: ('A' for Active; 'I' for Inactive)
REMARK    1  A    between atoms: C_1  and  C_2
REMARK    2  A    between atoms: C_5  and  C_6
REMARK    3  A    between atoms: C_8  and  C_9
REMARK    4  A    between atoms: C_12  and  C_13
REMARK    5  A    between atoms: C_18  and  C_19
REMARK                            x       y       z     vdW  Elec       q    Type
REMARK                         _______ _______ _______ _____ _____    ______ ____
ROOT
ATOM      1  C   UNL     1       6.217   5.488  17.187  0.00  0.00    +0.000 A 
ATOM      2  C   UNL     1       5.183   5.012  18.013  0.00  0.00    +0.000 A 
ATOM      3  C   UNL     1       4.369   3.966  17.594  0.00  0.00    +0.000 A 
ATOM      4  N   UNL     1       4.578   3.301  16.434  0.00  0.00    +0.000 NA
ATOM      5  C   UNL     1       5.572   3.726  15.636  0.00  0.00    +0.000 A 
ATOM      6  N   UNL     1       5.679   3.032  14.432  0.00  0.00    +0.000 N 
ATOM      7  C   UNL     1       6.378   4.832  15.944  0.00  0.00    +0.000 A 
ATOM      8  H   UNL     1       5.046   2.237  14.462  0.00  0.00    +0.000 HD
ATOM      9  H   UNL     1       6.629   2.759  14.192  0.00  0.00    +0.000 HD
ENDROOT
BRANCH   1  14
ATOM     10  C   UNL     1       9.276  10.079  19.114  0.00  0.00    +0.000 C 
ATOM     11  C   UNL     1       8.523   8.898  18.583  0.00  0.00    +0.000 A 
ATOM     12  C   UNL     1       7.636   9.032  17.516  0.00  0.00    +0.000 A 
ATOM     13  C   UNL     1       6.927   7.925  17.034  0.00  0.00    +0.000 A 
ATOM     14  C   UNL     1       7.028   6.660  17.636  0.00  0.00    +0.000 A 
ATOM     15  C   UNL     1       7.947   6.544  18.699  0.00  0.00    +0.000 A 
ATOM     16  C   UNL     1       8.692   7.637  19.155  0.00  0.00    +0.000 A 
ENDBRANCH   1  14
BRANCH   3  17
ATOM     17  C   UNL     1       3.176   3.564  18.328  0.00  0.00    +0.000 A 
ATOM     18  C   UNL     1       1.865   3.320  17.967  0.00  0.00    +0.000 A 
ATOM     19  C   UNL     1       1.151   3.066  19.163  0.00  0.00    +0.000 A 
ATOM     20  C   UNL     1       2.063   3.169  20.188  0.00  0.00    +0.000 A 
ATOM     21  C   UNL     1       1.962   3.058  21.657  0.00  0.00    +0.000 C 
ATOM     22  O   UNL     1       3.299   3.455  19.688  0.00  0.00    +0.000 OA
ENDBRANCH   3  17
BRANCH   7  23
ATOM     23  C   UNL     1       7.324   5.259  14.957  0.00  0.00    +0.000 C 
ATOM     24  N   UNL     1       8.090   5.556  14.135  0.00  0.00    +0.000 NA
ENDBRANCH   7  23
TORSDOF 3
ENDMDL
MODEL 8
REMARK VINA RESULT:      -7.4      4.585      8.213
REMARK  Name = 
REMARK  5 active torsions:
REMARK  status: ('A' for Active; 'I' for Inactive)
REMARK    1  A    between atoms: C_1  and  C_2
REMARK    2  A    between atoms: C_5  and  C_6
REMARK    3  A    between atoms: C_8  and  C_9
REMARK    4  A    between atoms: C_12  and  C_13
REMARK    5  A    between atoms: C_18  and  C_19
REMARK                            x       y       z     vdW  Elec       q    Type
REMARK                         _______ _______ _______ _____ _____    ______ ____
ROOT
ATOM      1  C   UNL     1       0.619   9.425  19.301  0.00  0.00    +0.000 A 
ATOM      2  C   UNL     1      -0.282   9.775  18.278  0.00  0.00    +0.000 A 
ATOM      3  C   UNL     1      -1.319  10.666  18.524  0.00  0.00    +0.000 A 
ATOM      4  N   UNL     1      -1.463  11.306  19.708  0.00  0.00    +0.000 NA
ATOM      5  C   UNL     1      -0.604  11.003  20.695  0.00  0.00    +0.000 A 
ATOM      6  N   UNL     1      -0.860  11.654  21.901  0.00  0.00    +0.000 N 
ATOM      7  C   UNL     1       0.413  10.046  20.555  0.00  0.00    +0.000 A 
ATOM      8  H   UNL     1      -1.590  12.344  21.745  0.00  0.00    +0.000 HD
ATOM      9  H   UNL     1      -0.036  12.057  22.340  0.00  0.00    +0.000 HD
ENDROOT
BRANCH   1  14
ATOM     10  C   UNL     1       4.652   5.383  18.060  0.00  0.00    +0.000 C 
ATOM     11  C   UNL     1       3.648   6.438  18.411  0.00  0.00    +0.000 A 
ATOM     12  C   UNL     1       2.863   6.330  19.558  0.00  0.00    +0.000 A 
ATOM     13  C   UNL     1       1.919   7.316  19.871  0.00  0.00    +0.000 A 
ATOM     14  C   UNL     1       1.679   8.410  19.024  0.00  0.00    +0.000 A 
ATOM     15  C   UNL     1       2.500   8.509  17.881  0.00  0.00    +0.000 A 
ATOM     16  C   UNL     1       3.477   7.550  17.587  0.00  0.00    +0.000 A 
ENDBRANCH   1  14
BRANCH   3  17
ATOM     17  C   UNL     1      -2.381  10.913  17.557  0.00  0.00    +0.000 A 
ATOM     18  C   UNL     1      -3.623  11.514  17.630  0.00  0.00    +0.000 A 
ATOM     19  C   UNL     1      -4.233  11.348  16.363  0.00  0.00    +0.000 A 
ATOM     20  C   UNL     1      -3.332  10.655  15.587  0.00  0.00    +0.000 A 
ATOM     21  C   UNL     1      -3.365  10.137  14.205  0.00  0.00    +0.000 C 
ATOM     22  O   UNL     1      -2.198  10.402  16.300  0.00  0.00    +0.000 OA
ENDBRANCH   3  17
BRANCH   7  23
ATOM     23  C   UNL     1       1.187   9.725  21.717  0.00  0.00    +0.000 C 
ATOM     24  N   UNL     1       1.776   9.487  22.690  0.00  0.00    +0.000 NA
ENDBRANCH   7  23
TORSDOF 3
ENDMDL
MODEL 9
REMARK VINA RESULT:      -7.4      3.681      6.266
REMARK  Name = 
REMARK  5 active torsions:
REMARK  status: ('A' for Active; 'I' for Inactive)
REMARK    1  A    between atoms: C_1  and  C_2
REMARK    2  A    between atoms: C_5  and  C_6
REMARK    3  A    between atoms: C_8  and  C_9
REMARK    4  A    between atoms: C_12  and  C_13
REMARK    5  A    between atoms: C_18  and  C_19
REMARK                            x       y       z     vdW  Elec       q    Type
REMARK                         _______ _______ _______ _____ _____    ______ ____
ROOT
ATOM      1  C   UNL     1       6.161   5.366  17.240  0.00  0.00    +0.000 A 
ATOM      2  C   UNL     1       5.135   4.851  18.053  0.00  0.00    +0.000 A 
ATOM      3  C   UNL     1       4.355   3.786  17.617  0.00  0.00    +0.000 A 
ATOM      4  N   UNL     1       4.593   3.139  16.453  0.00  0.00    +0.000 NA
ATOM      5  C   UNL     1       5.580   3.600  15.667  0.00  0.00    +0.000 A 
ATOM      6  N   UNL     1       5.717   2.921  14.457  0.00  0.00    +0.000 N 
ATOM      7  C   UNL     1       6.351   4.726  15.992  0.00  0.00    +0.000 A 
ATOM      8  H   UNL     1       5.107   2.108  14.474  0.00  0.00    +0.000 HD
ATOM      9  H   UNL     1       6.676   2.678  14.222  0.00  0.00    +0.000 HD
ENDROOT
BRANCH   1  14
ATOM     10  C   UNL     1       9.290  10.018  18.886  0.00  0.00    +0.000 C 
ATOM     11  C   UNL     1       8.461   8.831  18.503  0.00  0.00    +0.000 A 
ATOM     12  C   UNL     1       8.657   7.591  19.110  0.00  0.00    +0.000 A 
ATOM     13  C   UNL     1       7.885   6.484  18.737  0.00  0.00    +0.000 A 
ATOM     14  C   UNL     1       6.934   6.555  17.706  0.00  0.00    +0.000 A 
ATOM     15  C   UNL     1       6.738   7.824  17.122  0.00  0.00    +0.000 A 
ATOM     16  C   UNL     1       7.475   8.945  17.523  0.00  0.00    +0.000 A 
ENDBRANCH   1  14
BRANCH   3  17
ATOM     17  C   UNL     1       3.168   3.343  18.338  0.00  0.00    +0.000 A 
ATOM     18  C   UNL     1       1.889   2.994  17.953  0.00  0.00    +0.000 A 
ATOM     19  C   UNL     1       1.155   2.752  19.141  0.00  0.00    +0.000 A 
ATOM     20  C   UNL     1       2.027   2.968  20.184  0.00  0.00    +0.000 A 
ATOM     21  C   UNL     1       1.887   2.923  21.653  0.00  0.00    +0.000 C 
ATOM     22  O   UNL     1       3.256   3.310  19.704  0.00  0.00    +0.000 OA
ENDBRANCH   3  17
BRANCH   7  23
ATOM     23  C   UNL     1       7.292   5.190  15.016  0.00  0.00    +0.000 C 
ATOM     24  N   UNL     1       8.024   5.546  14.186  0.00  0.00    +0.000 NA
ENDBRANCH   7  23
TORSDOF 3
ENDMDL
