MODEL 1
REMARK VINA RESULT:      -7.7      0.000      0.000
REMARK  Name = 
REMARK  3 active torsions:
REMARK  status: ('A' for Active; 'I' for Inactive)
REMARK    1  A    between atoms: C_1  and  C_2
REMARK    2  A    between atoms: C_4  and  C_5
REMARK    3  A    between atoms: N_11  and  C_12
REMARK                            x       y       z     vdW  Elec       q    Type
REMARK                         _______ _______ _______ _____ _____    ______ ____
ROOT
ATOM      1  C   UNL     1       0.014  13.528  18.037  0.00  0.00    +0.000 C 
ATOM      2  C   UNL     1      -0.053  12.530  19.132  0.00  0.00    +0.000 A 
ATOM      3  C   UNL     1      -0.794  12.598  20.322  0.00  0.00    +0.000 A 
ATOM      4  C   UNL     1      -0.506  11.429  21.006  0.00  0.00    +0.000 A 
ATOM      5  C   UNL     1      -0.968  10.981  22.342  0.00  0.00    +0.000 C 
ATOM      6  N   UNL     1       0.348  10.702  20.183  0.00  0.00    +0.000 N 
ATOM      7  C   UNL     1       0.864   9.388  20.406  0.00  0.00    +0.000 A 
ATOM      8  N   UNL     1       0.480   8.702  21.499  0.00  0.00    +0.000 NA
ATOM      9  N   UNL     1       0.945   7.431  21.692  0.00  0.00    +0.000 NA
ATOM     10  C   UNL     1       1.779   6.885  20.792  0.00  0.00    +0.000 A 
ATOM     11  N   UNL     1       2.171   5.577  21.001  0.00  0.00    +0.000 N 
ATOM     12  N   UNL     1       2.186   7.592  19.723  0.00  0.00    +0.000 NA
ATOM     13  N   UNL     1       1.711   8.857  19.505  0.00  0.00    +0.000 NA
ATOM     14  N   UNL     1       0.652  11.400  19.051  0.00  0.00    +0.000 NA
ATOM     15  H   UNL     1       1.672   5.182  21.788  0.00  0.00    +0.000 HD
ENDROOT
BRANCH  11  16
ATOM     16  C   UNL     1       2.511   4.691  19.891  0.00  0.00    +0.000 C 
ATOM     17  C   UNL     1       3.998   4.885  19.518  0.00  0.00    +0.000 C 
ATOM     18  C   UNL     1       4.402   3.912  18.401  0.00  0.00    +0.000 C 
ATOM     19  C   UNL     1       4.208   2.467  18.891  0.00  0.00    +0.000 C 
ATOM     20  C   UNL     1       2.735   2.232  19.265  0.00  0.00    +0.000 C 
ATOM     21  C   UNL     1       1.862   2.463  18.021  0.00  0.00    +0.000 C 
ATOM     22  C   UNL     1       2.035   3.903  17.523  0.00  0.00    +0.000 C 
ATOM     23  C   UNL     1       3.511   4.162  17.173  0.00  0.00    +0.000 C 
ATOM     24  C   UNL     1       1.608   4.868  18.640  0.00  0.00    +0.000 C 
ATOM     25  C   UNL     1       2.331   3.223  20.372  0.00  0.00    +0.000 C 
ENDBRANCH  11  16
TORSDOF 1
ENDMDL
MODEL 2
REMARK VINA RESULT:      -7.3      2.115      3.778
REMARK  Name = 
REMARK  3 active torsions:
REMARK  status: ('A' for Active; 'I' for Inactive)
REMARK    1  A    between atoms: C_1  and  C_2
REMARK    2  A    between atoms: C_4  and  C_5
REMARK    3  A    between atoms: N_11  and  C_12
REMARK                            x       y       z     vdW  Elec       q    Type
REMARK                         _______ _______ _______ _____ _____    ______ ____
ROOT
ATOM      1  C   UNL     1      -1.158  10.547  23.377  0.00  0.00    +0.000 C 
ATOM      2  C   UNL     1      -0.639  10.696  21.995  0.00  0.00    +0.000 A 
ATOM      3  C   UNL     1      -0.777  11.794  21.133  0.00  0.00    +0.000 A 
ATOM      4  C   UNL     1      -0.127  11.432  19.964  0.00  0.00    +0.000 A 
ATOM      5  C   UNL     1       0.009  12.181  18.692  0.00  0.00    +0.000 C 
ATOM      6  N   UNL     1       0.404  10.168  20.195  0.00  0.00    +0.000 N 
ATOM      7  C   UNL     1       1.233   9.398  19.322  0.00  0.00    +0.000 A 
ATOM      8  N   UNL     1       1.619   9.921  18.143  0.00  0.00    +0.000 NA
ATOM      9  N   UNL     1       2.442   9.198  17.325  0.00  0.00    +0.000 NA
ATOM     10  C   UNL     1       2.853   7.978  17.706  0.00  0.00    +0.000 A 
ATOM     11  N   UNL     1       3.732   7.315  16.873  0.00  0.00    +0.000 N 
ATOM     12  N   UNL     1       2.432   7.450  18.869  0.00  0.00    +0.000 NA
ATOM     13  N   UNL     1       1.626   8.170  19.708  0.00  0.00    +0.000 NA
ATOM     14  N   UNL     1       0.054   9.706  21.430  0.00  0.00    +0.000 NA
ATOM     15  H   UNL     1       4.019   7.918  16.111  0.00  0.00    +0.000 HD
ENDROOT
BRANCH  11  16
ATOM     16  C   UNL     1       4.706   6.358  17.390  0.00  0.00    +0.000 C 
ATOM     17  C   UNL     1       4.724   5.106  16.484  0.00  0.00    +0.000 C 
ATOM     18  C   UNL     1       5.793   4.112  16.963  0.00  0.00    +0.000 C 
ATOM     19  C   UNL     1       7.176   4.782  16.896  0.00  0.00    +0.000 C 
ATOM     20  C   UNL     1       7.200   6.030  17.794  0.00  0.00    +0.000 C 
ATOM     21  C   UNL     1       6.916   5.607  19.244  0.00  0.00    +0.000 C 
ATOM     22  C   UNL     1       5.536   4.945  19.332  0.00  0.00    +0.000 C 
ATOM     23  C   UNL     1       5.487   3.710  18.415  0.00  0.00    +0.000 C 
ATOM     24  C   UNL     1       4.472   5.954  18.872  0.00  0.00    +0.000 C 
ATOM     25  C   UNL     1       6.114   7.014  17.320  0.00  0.00    +0.000 C 
ENDBRANCH  11  16
TORSDOF 1
ENDMDL
MODEL 3
REMARK VINA RESULT:      -7.2      0.140      1.538
REMARK  Name = 
REMARK  3 active torsions:
REMARK  status: ('A' for Active; 'I' for Inactive)
REMARK    1  A    between atoms: C_1  and  C_2
REMARK    2  A    between atoms: C_4  and  C_5
REMARK    3  A    between atoms: N_11  and  C_12
REMARK                            x       y       z     vdW  Elec       q    Type
REMARK                         _______ _______ _______ _____ _____    ______ ____
ROOT
ATOM      1  C   UNL     1       0.034  13.545  17.963  0.00  0.00    +0.000 C 
ATOM      2  C   UNL     1      -0.036  12.566  19.075  0.00  0.00    +0.000 A 
ATOM      3  C   UNL     1      -0.775  12.657  20.264  0.00  0.00    +0.000 A 
ATOM      4  C   UNL     1      -0.490  11.498  20.968  0.00  0.00    +0.000 A 
ATOM      5  C   UNL     1      -0.952  11.075  22.311  0.00  0.00    +0.000 C 
ATOM      6  N   UNL     1       0.359  10.754  20.156  0.00  0.00    +0.000 N 
ATOM      7  C   UNL     1       0.870   9.441  20.399  0.00  0.00    +0.000 A 
ATOM      8  N   UNL     1       0.485   8.776  21.505  0.00  0.00    +0.000 NA
ATOM      9  N   UNL     1       0.945   7.506  21.718  0.00  0.00    +0.000 NA
ATOM     10  C   UNL     1       1.775   6.942  20.827  0.00  0.00    +0.000 A 
ATOM     11  N   UNL     1       2.163   5.636  21.057  0.00  0.00    +0.000 N 
ATOM     12  N   UNL     1       2.184   7.629  19.745  0.00  0.00    +0.000 NA
ATOM     13  N   UNL     1       1.713   8.892  19.507  0.00  0.00    +0.000 NA
ATOM     14  N   UNL     1       0.665  11.431  19.011  0.00  0.00    +0.000 NA
ATOM     15  H   UNL     1       1.663   5.256  21.852  0.00  0.00    +0.000 HD
ENDROOT
BRANCH  11  16
ATOM     16  C   UNL     1       2.497   4.730  19.961  0.00  0.00    +0.000 C 
ATOM     17  C   UNL     1       1.623   5.070  18.733  0.00  0.00    +0.000 C 
ATOM     18  C   UNL     1       2.005   4.180  17.540  0.00  0.00    +0.000 C 
ATOM     19  C   UNL     1       3.478   4.427  17.174  0.00  0.00    +0.000 C 
ATOM     20  C   UNL     1       4.382   4.091  18.372  0.00  0.00    +0.000 C 
ATOM     21  C   UNL     1       4.196   2.610  18.737  0.00  0.00    +0.000 C 
ATOM     22  C   UNL     1       2.733   2.346  19.116  0.00  0.00    +0.000 C 
ATOM     23  C   UNL     1       1.814   2.706  17.935  0.00  0.00    +0.000 C 
ATOM     24  C   UNL     1       2.368   3.225  20.322  0.00  0.00    +0.000 C 
ATOM     25  C   UNL     1       3.981   4.974  19.569  0.00  0.00    +0.000 C 
ENDBRANCH  11  16
TORSDOF 1
ENDMDL
MODEL 4
REMARK VINA RESULT:      -7.2      2.129      3.746
REMARK  Name = 
REMARK  3 active torsions:
REMARK  status: ('A' for Active; 'I' for Inactive)
REMARK    1  A    between atoms: C_1  and  C_2
REMARK    2  A    between atoms: C_4  and  C_5
REMARK    3  A    between atoms: N_11  and  C_12
REMARK                            x       y       z     vdW  Elec       q    Type
REMARK                         _______ _______ _______ _____ _____    ______ ____
ROOT
ATOM      1  C   UNL     1      -1.079  10.504  23.373  0.00  0.00    +0.000 C 
ATOM      2  C   UNL     1      -0.596  10.649  21.978  0.00  0.00    +0.000 A 
ATOM      3  C   UNL     1      -0.791  11.728  21.102  0.00  0.00    +0.000 A 
ATOM      4  C   UNL     1      -0.153  11.370  19.925  0.00  0.00    +0.000 A 
ATOM      5  C   UNL     1      -0.070  12.103  18.639  0.00  0.00    +0.000 C 
ATOM      6  N   UNL     1       0.429  10.130  20.165  0.00  0.00    +0.000 N 
ATOM      7  C   UNL     1       1.268   9.377  19.286  0.00  0.00    +0.000 A 
ATOM      8  N   UNL     1       1.609   9.894  18.091  0.00  0.00    +0.000 NA
ATOM      9  N   UNL     1       2.441   9.188  17.267  0.00  0.00    +0.000 NA
ATOM     10  C   UNL     1       2.904   7.990  17.658  0.00  0.00    +0.000 A 
ATOM     11  N   UNL     1       3.790   7.346  16.817  0.00  0.00    +0.000 N 
ATOM     12  N   UNL     1       2.527   7.465  18.838  0.00  0.00    +0.000 NA
ATOM     13  N   UNL     1       1.713   8.170  19.683  0.00  0.00    +0.000 NA
ATOM     14  N   UNL     1       0.122   9.675  21.414  0.00  0.00    +0.000 NA
ATOM     15  H   UNL     1       4.038   7.946  16.041  0.00  0.00    +0.000 HD
ENDROOT
BRANCH  11  16
ATOM     16  C   UNL     1       4.808   6.433  17.329  0.00  0.00    +0.000 C 
ATOM     17  C   UNL     1       4.399   5.948  18.738  0.00  0.00    +0.000 C 
ATOM     18  C   UNL     1       5.416   4.928  19.272  0.00  0.00    +0.000 C 
ATOM     19  C   UNL     1       5.456   3.712  18.332  0.00  0.00    +0.000 C 
ATOM     20  C   UNL     1       5.869   4.153  16.917  0.00  0.00    +0.000 C 
ATOM     21  C   UNL     1       7.268   4.786  16.981  0.00  0.00    +0.000 C 
ATOM     22  C   UNL     1       7.245   6.008  17.907  0.00  0.00    +0.000 C 
ATOM     23  C   UNL     1       6.806   5.586  19.320  0.00  0.00    +0.000 C 
ATOM     24  C   UNL     1       6.241   7.031  17.353  0.00  0.00    +0.000 C 
ATOM     25  C   UNL     1       4.855   5.189  16.397  0.00  0.00    +0.000 C 
ENDBRANCH  11  16
TORSDOF 1
ENDMDL
MODEL 5
REMARK VINA RESULT:      -7.1      0.215      1.580
REMARK  Name = 
REMARK  3 active torsions:
REMARK  status: ('A' for Active; 'I' for Inactive)
REMARK    1  A    between atoms: C_1  and  C_2
REMARK    2  A    between atoms: C_4  and  C_5
REMARK    3  A    between atoms: N_11  and  C_12
REMARK                            x       y       z     vdW  Elec       q    Type
REMARK                         _______ _______ _______ _____ _____    ______ ____
ROOT
ATOM      1  C   UNL     1      -0.074  13.549  18.324  0.00  0.00    +0.000 C 
ATOM      2  C   UNL     1      -0.152  12.515  19.385  0.00  0.00    +0.000 A 
ATOM      3  C   UNL     1      -0.932  12.529  20.552  0.00  0.00    +0.000 A 
ATOM      4  C   UNL     1      -0.639  11.344  21.208  0.00  0.00    +0.000 A 
ATOM      5  C   UNL     1      -1.133  10.844  22.513  0.00  0.00    +0.000 C 
ATOM      6  N   UNL     1       0.255  10.662  20.389  0.00  0.00    +0.000 N 
ATOM      7  C   UNL     1       0.792   9.352  20.586  0.00  0.00    +0.000 A 
ATOM      8  N   UNL     1       0.389   8.624  21.645  0.00  0.00    +0.000 NA
ATOM      9  N   UNL     1       0.876   7.357  21.812  0.00  0.00    +0.000 NA
ATOM     10  C   UNL     1       1.748   6.858  20.922  0.00  0.00    +0.000 A 
ATOM     11  N   UNL     1       2.162   5.552  21.102  0.00  0.00    +0.000 N 
ATOM     12  N   UNL     1       2.173   7.607  19.889  0.00  0.00    +0.000 NA
ATOM     13  N   UNL     1       1.678   8.869  19.696  0.00  0.00    +0.000 NA
ATOM     14  N   UNL     1       0.579  11.402  19.290  0.00  0.00    +0.000 NA
ATOM     15  H   UNL     1       1.648   5.121  21.860  0.00  0.00    +0.000 HD
ENDROOT
BRANCH  11  16
ATOM     16  C   UNL     1       2.555   4.710  19.976  0.00  0.00    +0.000 C 
ATOM     17  C   UNL     1       2.256   3.232  20.314  0.00  0.00    +0.000 C 
ATOM     18  C   UNL     1       2.591   2.329  19.118  0.00  0.00    +0.000 C 
ATOM     19  C   UNL     1       1.725   2.738  17.915  0.00  0.00    +0.000 C 
ATOM     20  C   UNL     1       2.000   4.204  17.541  0.00  0.00    +0.000 C 
ATOM     21  C   UNL     1       3.483   4.352  17.166  0.00  0.00    +0.000 C 
ATOM     22  C   UNL     1       4.364   3.958  18.358  0.00  0.00    +0.000 C 
ATOM     23  C   UNL     1       4.077   2.501  18.761  0.00  0.00    +0.000 C 
ATOM     24  C   UNL     1       4.036   4.881  19.542  0.00  0.00    +0.000 C 
ATOM     25  C   UNL     1       1.680   5.101  18.751  0.00  0.00    +0.000 C 
ENDBRANCH  11  16
TORSDOF 1
ENDMDL
MODEL 6
REMARK VINA RESULT:      -7.1      9.073     10.430
REMARK  Name = 
REMARK  3 active torsions:
REMARK  status: ('A' for Active; 'I' for Inactive)
REMARK    1  A    between atoms: C_1  and  C_2
REMARK    2  A    between atoms: C_4  and  C_5
REMARK    3  A    between atoms: N_11  and  C_12
REMARK                            x       y       z     vdW  Elec       q    Type
REMARK                         _______ _______ _______ _____ _____    ______ ____
ROOT
ATOM      1  C   UNL     1       4.027   9.969  26.782  0.00  0.00    +0.000 C 
ATOM      2  C   UNL     1       4.971  11.095  26.578  0.00  0.00    +0.000 A 
ATOM      3  C   UNL     1       5.449  12.007  27.532  0.00  0.00    +0.000 A 
ATOM      4  C   UNL     1       6.290  12.862  26.838  0.00  0.00    +0.000 A 
ATOM      5  C   UNL     1       7.037  14.046  27.324  0.00  0.00    +0.000 C 
ATOM      6  N   UNL     1       6.312  12.400  25.527  0.00  0.00    +0.000 N 
ATOM      7  C   UNL     1       7.098  12.895  24.441  0.00  0.00    +0.000 A 
ATOM      8  N   UNL     1       7.972  13.896  24.658  0.00  0.00    +0.000 NA
ATOM      9  N   UNL     1       8.750  14.345  23.627  0.00  0.00    +0.000 NA
ATOM     10  C   UNL     1       8.630  13.785  22.413  0.00  0.00    +0.000 A 
ATOM     11  N   UNL     1       9.481  14.231  21.421  0.00  0.00    +0.000 N 
ATOM     12  N   UNL     1       7.728  12.811  22.197  0.00  0.00    +0.000 NA
ATOM     13  N   UNL     1       6.958  12.336  23.225  0.00  0.00    +0.000 NA
ATOM     14  N   UNL     1       5.471  11.337  25.365  0.00  0.00    +0.000 NA
ATOM     15  H   UNL     1      10.160  14.878  21.804  0.00  0.00    +0.000 HD
ENDROOT
BRANCH  11  16
ATOM     16  C   UNL     1       9.905  13.364  20.326  0.00  0.00    +0.000 C 
ATOM     17  C   UNL     1       8.842  13.399  19.204  0.00  0.00    +0.000 C 
ATOM     18  C   UNL     1       9.297  12.552  18.007  0.00  0.00    +0.000 C 
ATOM     19  C   UNL     1      10.611  13.124  17.450  0.00  0.00    +0.000 C 
ATOM     20  C   UNL     1      11.699  13.099  18.536  0.00  0.00    +0.000 C 
ATOM     21  C   UNL     1      11.931  11.645  18.975  0.00  0.00    +0.000 C 
ATOM     22  C   UNL     1      10.633  11.058  19.543  0.00  0.00    +0.000 C 
ATOM     23  C   UNL     1       9.526  11.105  18.475  0.00  0.00    +0.000 C 
ATOM     24  C   UNL     1      10.198  11.900  20.754  0.00  0.00    +0.000 C 
ATOM     25  C   UNL     1      11.228  13.935  19.741  0.00  0.00    +0.000 C 
ENDBRANCH  11  16
TORSDOF 1
ENDMDL
MODEL 7
REMARK VINA RESULT:      -7.0      1.739      1.847
REMARK  Name = 
REMARK  3 active torsions:
REMARK  status: ('A' for Active; 'I' for Inactive)
REMARK    1  A    between atoms: C_1  and  C_2
REMARK    2  A    between atoms: C_4  and  C_5
REMARK    3  A    between atoms: N_11  and  C_12
REMARK                            x       y       z     vdW  Elec       q    Type
REMARK                         _______ _______ _______ _____ _____    ______ ____
ROOT
ATOM      1  C   UNL     1      -3.100  11.473  15.955  0.00  0.00    +0.000 C 
ATOM      2  C   UNL     1      -2.320  11.234  17.195  0.00  0.00    +0.000 A 
ATOM      3  C   UNL     1      -2.479  11.846  18.448  0.00  0.00    +0.000 A 
ATOM      4  C   UNL     1      -1.505  11.286  19.259  0.00  0.00    +0.000 A 
ATOM      5  C   UNL     1      -1.172  11.585  20.673  0.00  0.00    +0.000 C 
ATOM      6  N   UNL     1      -0.848  10.343  18.477  0.00  0.00    +0.000 N 
ATOM      7  C   UNL     1       0.183   9.440  18.882  0.00  0.00    +0.000 A 
ATOM      8  N   UNL     1       0.577   9.419  20.170  0.00  0.00    +0.000 NA
ATOM      9  N   UNL     1       1.537   8.530  20.564  0.00  0.00    +0.000 NA
ATOM     10  C   UNL     1       2.077   7.692  19.664  0.00  0.00    +0.000 A 
ATOM     11  N   UNL     1       2.998   6.772  20.125  0.00  0.00    +0.000 N 
ATOM     12  N   UNL     1       1.704   7.746  18.373  0.00  0.00    +0.000 NA
ATOM     13  N   UNL     1       0.727   8.616  17.968  0.00  0.00    +0.000 NA
ATOM     14  N   UNL     1      -1.328  10.342  17.200  0.00  0.00    +0.000 NA
ATOM     15  H   UNL     1       3.059   6.810  21.134  0.00  0.00    +0.000 HD
ENDROOT
BRANCH  11  16
ATOM     16  C   UNL     1       3.177   5.475  19.477  0.00  0.00    +0.000 C 
ATOM     17  C   UNL     1       4.684   5.221  19.249  0.00  0.00    +0.000 C 
ATOM     18  C   UNL     1       4.907   3.831  18.636  0.00  0.00    +0.000 C 
ATOM     19  C   UNL     1       4.373   2.759  19.600  0.00  0.00    +0.000 C 
ATOM     20  C   UNL     1       2.870   2.973  19.846  0.00  0.00    +0.000 C 
ATOM     21  C   UNL     1       2.125   2.861  18.507  0.00  0.00    +0.000 C 
ATOM     22  C   UNL     1       2.638   3.930  17.534  0.00  0.00    +0.000 C 
ATOM     23  C   UNL     1       4.148   3.745  17.301  0.00  0.00    +0.000 C 
ATOM     24  C   UNL     1       2.391   5.317  18.147  0.00  0.00    +0.000 C 
ATOM     25  C   UNL     1       2.652   4.376  20.444  0.00  0.00    +0.000 C 
ENDBRANCH  11  16
TORSDOF 1
ENDMDL
MODEL 8
REMARK VINA RESULT:      -7.0      1.396      8.116
REMARK  Name = 
REMARK  3 active torsions:
REMARK  status: ('A' for Active; 'I' for Inactive)
REMARK    1  A    between atoms: C_1  and  C_2
REMARK    2  A    between atoms: C_4  and  C_5
REMARK    3  A    between atoms: N_11  and  C_12
REMARK                            x       y       z     vdW  Elec       q    Type
REMARK                         _______ _______ _______ _____ _____    ______ ____
ROOT
ATOM      1  C   UNL     1       1.834   2.518  21.892  0.00  0.00    +0.000 C 
ATOM      2  C   UNL     1       2.163   3.384  20.733  0.00  0.00    +0.000 A 
ATOM      3  C   UNL     1       2.657   2.999  19.477  0.00  0.00    +0.000 A 
ATOM      4  C   UNL     1       2.806   4.176  18.760  0.00  0.00    +0.000 A 
ATOM      5  C   UNL     1       3.334   4.384  17.391  0.00  0.00    +0.000 C 
ATOM      6  N   UNL     1       2.354   5.193  19.593  0.00  0.00    +0.000 N 
ATOM      7  C   UNL     1       2.227   6.583  19.283  0.00  0.00    +0.000 A 
ATOM      8  N   UNL     1       2.518   7.013  18.041  0.00  0.00    +0.000 NA
ATOM      9  N   UNL     1       2.361   8.336  17.734  0.00  0.00    +0.000 NA
ATOM     10  C   UNL     1       1.921   9.188  18.674  0.00  0.00    +0.000 A 
ATOM     11  N   UNL     1       1.720  10.501  18.297  0.00  0.00    +0.000 N 
ATOM     12  N   UNL     1       1.668   8.755  19.922  0.00  0.00    +0.000 NA
ATOM     13  N   UNL     1       1.799   7.429  20.237  0.00  0.00    +0.000 NA
ATOM     14  N   UNL     1       1.996   4.706  20.817  0.00  0.00    +0.000 NA
ATOM     15  H   UNL     1       1.853  10.605  17.299  0.00  0.00    +0.000 HD
ENDROOT
BRANCH  11  16
ATOM     16  C   UNL     1       0.716  11.340  18.944  0.00  0.00    +0.000 C 
ATOM     17  C   UNL     1      -0.615  10.560  19.044  0.00  0.00    +0.000 C 
ATOM     18  C   UNL     1      -1.670  11.393  19.788  0.00  0.00    +0.000 C 
ATOM     19  C   UNL     1      -1.172  11.689  21.212  0.00  0.00    +0.000 C 
ATOM     20  C   UNL     1       0.150  12.474  21.155  0.00  0.00    +0.000 C 
ATOM     21  C   UNL     1      -0.090  13.801  20.420  0.00  0.00    +0.000 C 
ATOM     22  C   UNL     1      -0.579  13.526  18.992  0.00  0.00    +0.000 C 
ATOM     23  C   UNL     1      -1.887  12.716  19.034  0.00  0.00    +0.000 C 
ATOM     24  C   UNL     1       0.493  12.712  18.251  0.00  0.00    +0.000 C 
ATOM     25  C   UNL     1       1.197  11.641  20.392  0.00  0.00    +0.000 C 
ENDBRANCH  11  16
TORSDOF 1
ENDMDL
MODEL 9
REMARK VINA RESULT:      -7.0      4.907      8.498
REMARK  Name = 
REMARK  3 active torsions:
REMARK  status: ('A' for Active; 'I' for Inactive)
REMARK    1  A    between atoms: C_1  and  C_2
REMARK    2  A    between atoms: C_4  and  C_5
REMARK    3  A    between atoms: N_11  and  C_12
REMARK                            x       y       z     vdW  Elec       q    Type
REMARK                         _______ _______ _______ _____ _____    ______ ____
ROOT
ATOM      1  C   UNL     1       6.531   1.654  10.690  0.00  0.00    +0.000 C 
ATOM      2  C   UNL     1       6.747   2.765  11.651  0.00  0.00    +0.000 A 
ATOM      3  C   UNL     1       7.413   3.981  11.433  0.00  0.00    +0.000 A 
ATOM      4  C   UNL     1       7.347   4.660  12.638  0.00  0.00    +0.000 A 
ATOM      5  C   UNL     1       7.921   5.976  13.010  0.00  0.00    +0.000 C 
ATOM      6  N   UNL     1       6.612   3.851  13.497  0.00  0.00    +0.000 N 
ATOM      7  C   UNL     1       6.199   4.145  14.833  0.00  0.00    +0.000 A 
ATOM      8  N   UNL     1       6.483   5.350  15.364  0.00  0.00    +0.000 NA
ATOM      9  N   UNL     1       6.055   5.644  16.628  0.00  0.00    +0.000 NA
ATOM     10  C   UNL     1       5.360   4.730  17.324  0.00  0.00    +0.000 A 
ATOM     11  N   UNL     1       4.898   5.098  18.573  0.00  0.00    +0.000 N 
ATOM     12  N   UNL     1       5.114   3.516  16.800  0.00  0.00    +0.000 NA
ATOM     13  N   UNL     1       5.517   3.215  15.526  0.00  0.00    +0.000 NA
ATOM     14  N   UNL     1       6.278   2.671  12.897  0.00  0.00    +0.000 NA
ATOM     15  H   UNL     1       5.082   6.080  18.741  0.00  0.00    +0.000 HD
ENDROOT
BRANCH  11  16
ATOM     16  C   UNL     1       3.681   4.524  19.141  0.00  0.00    +0.000 C 
ATOM     17  C   UNL     1       4.009   3.148  19.765  0.00  0.00    +0.000 C 
ATOM     18  C   UNL     1       2.762   2.553  20.435  0.00  0.00    +0.000 C 
ATOM     19  C   UNL     1       2.289   3.495  21.555  0.00  0.00    +0.000 C 
ATOM     20  C   UNL     1       1.945   4.876  20.971  0.00  0.00    +0.000 C 
ATOM     21  C   UNL     1       0.817   4.714  19.940  0.00  0.00    +0.000 C 
ATOM     22  C   UNL     1       1.274   3.784  18.809  0.00  0.00    +0.000 C 
ATOM     23  C   UNL     1       1.649   2.406  19.384  0.00  0.00    +0.000 C 
ATOM     24  C   UNL     1       2.508   4.399  18.131  0.00  0.00    +0.000 C 
ATOM     25  C   UNL     1       3.194   5.458  20.284  0.00  0.00    +0.000 C 
ENDBRANCH  11  16
TORSDOF 1
ENDMDL
