MODEL 1
REMARK VINA RESULT:      -7.6      0.000      0.000
REMARK  Name = 
REMARK  7 active torsions:
REMARK  status: ('A' for Active; 'I' for Inactive)
REMARK    1  A    between atoms: C_1  and  O_2
REMARK    2  A    between atoms: O_2  and  C_3
REMARK    3  A    between atoms: N_13  and  C_14
REMARK    4  A    between atoms: C_14  and  C_15
REMARK    5  A    between atoms: C_15  and  C_16
REMARK    6  A    between atoms: C_16  and  N_17
REMARK    7  A    between atoms: N_20  and  C_21
REMARK                            x       y       z     vdW  Elec       q    Type
REMARK                         _______ _______ _______ _____ _____    ______ ____
ROOT
ATOM      1  C   UNL     1       1.269   6.423  20.459  0.00  0.00    +0.000 C 
ENDROOT
BRANCH   1   2
ATOM      2  C   UNL     1       2.025   7.747  20.590  0.00  0.00    +0.000 C 
BRANCH   2  13
ATOM      3  C   UNL     1      -1.357  11.199  21.631  0.00  0.00    +0.000 A 
ATOM      4  C   UNL     1      -1.216  10.937  22.994  0.00  0.00    +0.000 A 
ATOM      5  C   UNL     1      -0.258  10.032  23.436  0.00  0.00    +0.000 A 
ATOM      6  C   UNL     1       0.547   9.367  22.516  0.00  0.00    +0.000 A 
ATOM      7  C   UNL     1       0.407   9.589  21.138  0.00  0.00    +0.000 A 
ATOM      8  C   UNL     1      -0.554  10.518  20.695  0.00  0.00    +0.000 A 
ATOM      9  C   UNL     1      -0.755  10.696  19.213  0.00  0.00    +0.000 C 
ATOM     10  C   UNL     1       0.563  10.557  18.485  0.00  0.00    +0.000 C 
ATOM     11  C   UNL     1       1.251   9.263  18.837  0.00  0.00    +0.000 C 
ATOM     12  O   UNL     1       1.910   8.663  17.985  0.00  0.00    +0.000 OA
ATOM     13  N   UNL     1       1.198   8.883  20.179  0.00  0.00    +0.000 N 
BRANCH   3  15
ATOM     14  C   UNL     1      -2.108  13.434  21.527  0.00  0.00    +0.000 C 
ATOM     15  O   UNL     1      -2.289  12.075  21.134  0.00  0.00    +0.000 OA
ENDBRANCH   3  15
ENDBRANCH   2  13
ENDBRANCH   1   2
BRANCH   1  16
ATOM     16  C   UNL     1       2.166   5.212  20.737  0.00  0.00    +0.000 C 
BRANCH  16  17
ATOM     17  N   UNL     1       2.189   4.222  19.649  0.00  0.00    +0.000 NA
ATOM     18  C   UNL     1       2.066   4.838  18.304  0.00  0.00    +0.000 C 
ATOM     19  C   UNL     1       3.263   5.731  17.913  0.00  0.00    +0.000 C 
ATOM     20  N   UNL     1       4.525   4.975  18.003  0.00  0.00    +0.000 N 
ATOM     21  C   UNL     1       4.728   4.221  19.254  0.00  0.00    +0.000 C 
ATOM     22  C   UNL     1       3.451   3.443  19.663  0.00  0.00    +0.000 C 
BRANCH  20  23
ATOM     23  C   UNL     1       5.373   4.842  16.914  0.00  0.00    +0.000 A 
ATOM     24  C   UNL     1       4.898   4.221  15.741  0.00  0.00    +0.000 A 
ATOM     25  C   UNL     1       5.678   4.077  14.588  0.00  0.00    +0.000 A 
ATOM     26  C   UNL     1       6.987   4.532  14.579  0.00  0.00    +0.000 A 
ATOM     27  C   UNL     1       7.507   5.132  15.721  0.00  0.00    +0.000 A 
ATOM     28  C   UNL     1       6.713   5.297  16.870  0.00  0.00    +0.000 A 
ATOM     29 CL   UNL     1       7.461   6.186  18.162  0.00  0.00    +0.000 Cl
ENDBRANCH  20  23
ENDBRANCH  16  17
ENDBRANCH   1  16
TORSDOF 6
ENDMDL
MODEL 2
REMARK VINA RESULT:      -7.6      1.365      2.401
REMARK  Name = 
REMARK  7 active torsions:
REMARK  status: ('A' for Active; 'I' for Inactive)
REMARK    1  A    between atoms: C_1  and  O_2
REMARK    2  A    between atoms: O_2  and  C_3
REMARK    3  A    between atoms: N_13  and  C_14
REMARK    4  A    between atoms: C_14  and  C_15
REMARK    5  A    between atoms: C_15  and  C_16
REMARK    6  A    between atoms: C_16  and  N_17
REMARK    7  A    between atoms: N_20  and  C_21
REMARK                            x       y       z     vdW  Elec       q    Type
REMARK                         _______ _______ _______ _____ _____    ______ ____
ROOT
ATOM      1  C   UNL     1       1.070   7.162  20.737  0.00  0.00    +0.000 C 
ENDROOT
BRANCH   1   2
ATOM      2  C   UNL     1       1.523   8.607  20.513  0.00  0.00    +0.000 C 
BRANCH   2  13
ATOM      3  C   UNL     1      -2.013  11.937  19.595  0.00  0.00    +0.000 A 
ATOM      4  C   UNL     1      -2.068  11.522  18.263  0.00  0.00    +0.000 A 
ATOM      5  C   UNL     1      -1.304  10.443  17.835  0.00  0.00    +0.000 A 
ATOM      6  C   UNL     1      -0.462   9.789  18.731  0.00  0.00    +0.000 A 
ATOM      7  C   UNL     1      -0.365  10.202  20.068  0.00  0.00    +0.000 A 
ATOM      8  C   UNL     1      -1.153  11.285  20.502  0.00  0.00    +0.000 A 
ATOM      9  C   UNL     1      -0.990  11.776  21.916  0.00  0.00    +0.000 C 
ATOM     10  C   UNL     1      -0.714  10.615  22.845  0.00  0.00    +0.000 C 
ATOM     11  C   UNL     1       0.455   9.793  22.364  0.00  0.00    +0.000 C 
ATOM     12  O   UNL     1       1.220   9.273  23.179  0.00  0.00    +0.000 OA
ATOM     13  N   UNL     1       0.524   9.566  20.988  0.00  0.00    +0.000 N 
BRANCH   3  15
ATOM     14  C   UNL     1      -4.142  12.772  20.177  0.00  0.00    +0.000 C 
ATOM     15  O   UNL     1      -2.738  12.998  20.075  0.00  0.00    +0.000 OA
ENDBRANCH   3  15
ENDBRANCH   2  13
ENDBRANCH   1   2
BRANCH   1  16
ATOM     16  C   UNL     1       2.228   6.166  20.617  0.00  0.00    +0.000 C 
BRANCH  16  17
ATOM     17  N   UNL     1       2.073   5.198  19.520  0.00  0.00    +0.000 NA
ATOM     18  C   UNL     1       2.113   5.834  18.179  0.00  0.00    +0.000 C 
ATOM     19  C   UNL     1       3.476   6.463  17.824  0.00  0.00    +0.000 C 
ATOM     20  N   UNL     1       4.553   5.462  17.935  0.00  0.00    +0.000 N 
ATOM     21  C   UNL     1       4.567   4.676  19.183  0.00  0.00    +0.000 C 
ATOM     22  C   UNL     1       3.147   4.176  19.554  0.00  0.00    +0.000 C 
BRANCH  20  23
ATOM     23  C   UNL     1       5.382   5.163  16.865  0.00  0.00    +0.000 A 
ATOM     24  C   UNL     1       4.884   4.380  15.804  0.00  0.00    +0.000 A 
ATOM     25  C   UNL     1       5.644   4.061  14.673  0.00  0.00    +0.000 A 
ATOM     26  C   UNL     1       6.955   4.499  14.575  0.00  0.00    +0.000 A 
ATOM     27  C   UNL     1       7.497   5.257  15.608  0.00  0.00    +0.000 A 
ATOM     28  C   UNL     1       6.723   5.596  16.732  0.00  0.00    +0.000 A 
ATOM     29 CL   UNL     1       7.498   6.661  17.866  0.00  0.00    +0.000 Cl
ENDBRANCH  20  23
ENDBRANCH  16  17
ENDBRANCH   1  16
TORSDOF 6
ENDMDL
MODEL 3
REMARK VINA RESULT:      -7.4      3.599      9.470
REMARK  Name = 
REMARK  7 active torsions:
REMARK  status: ('A' for Active; 'I' for Inactive)
REMARK    1  A    between atoms: C_1  and  O_2
REMARK    2  A    between atoms: O_2  and  C_3
REMARK    3  A    between atoms: N_13  and  C_14
REMARK    4  A    between atoms: C_14  and  C_15
REMARK    5  A    between atoms: C_15  and  C_16
REMARK    6  A    between atoms: C_16  and  N_17
REMARK    7  A    between atoms: N_20  and  C_21
REMARK                            x       y       z     vdW  Elec       q    Type
REMARK                         _______ _______ _______ _____ _____    ______ ____
ROOT
ATOM      1  C   UNL     1       1.551   8.959  18.079  0.00  0.00    +0.000 C 
ENDROOT
BRANCH   1   2
ATOM      2  C   UNL     1       2.745   8.352  18.819  0.00  0.00    +0.000 C 
BRANCH   2  13
ATOM      3  C   UNL     1       3.257   3.578  17.643  0.00  0.00    +0.000 A 
ATOM      4  C   UNL     1       4.186   3.913  16.656  0.00  0.00    +0.000 A 
ATOM      5  C   UNL     1       4.599   5.231  16.505  0.00  0.00    +0.000 A 
ATOM      6  C   UNL     1       4.069   6.224  17.323  0.00  0.00    +0.000 A 
ATOM      7  C   UNL     1       3.113   5.921  18.303  0.00  0.00    +0.000 A 
ATOM      8  C   UNL     1       2.708   4.582  18.465  0.00  0.00    +0.000 A 
ATOM      9  C   UNL     1       1.625   4.271  19.464  0.00  0.00    +0.000 C 
ATOM     10  C   UNL     1       1.745   5.181  20.666  0.00  0.00    +0.000 C 
ATOM     11  C   UNL     1       1.773   6.631  20.256  0.00  0.00    +0.000 C 
ATOM     12  O   UNL     1       1.244   7.484  20.972  0.00  0.00    +0.000 OA
ATOM     13  N   UNL     1       2.529   6.936  19.123  0.00  0.00    +0.000 N 
BRANCH   3  15
ATOM     14  C   UNL     1       3.707   1.438  18.531  0.00  0.00    +0.000 C 
ATOM     15  O   UNL     1       2.805   2.297  17.836  0.00  0.00    +0.000 OA
ENDBRANCH   3  15
ENDBRANCH   2  13
ENDBRANCH   1   2
BRANCH   1  16
ATOM     16  C   UNL     1       1.427  10.468  18.317  0.00  0.00    +0.000 C 
BRANCH  16  17
ATOM     17  N   UNL     1       0.569  10.824  19.458  0.00  0.00    +0.000 NA
ATOM     18  C   UNL     1      -0.007  12.187  19.344  0.00  0.00    +0.000 C 
ATOM     19  C   UNL     1      -0.995  12.355  18.171  0.00  0.00    +0.000 C 
ATOM     20  N   UNL     1      -2.080  11.361  18.262  0.00  0.00    +0.000 N 
ATOM     21  C   UNL     1      -1.650   9.967  18.484  0.00  0.00    +0.000 C 
ATOM     22  C   UNL     1      -0.566   9.877  19.588  0.00  0.00    +0.000 C 
BRANCH  20  23
ATOM     23  C   UNL     1      -3.412  11.740  18.311  0.00  0.00    +0.000 A 
ATOM     24  C   UNL     1      -3.915  12.344  19.482  0.00  0.00    +0.000 A 
ATOM     25  C   UNL     1      -5.237  12.785  19.602  0.00  0.00    +0.000 A 
ATOM     26  C   UNL     1      -6.122  12.610  18.549  0.00  0.00    +0.000 A 
ATOM     27  C   UNL     1      -5.677  11.999  17.382  0.00  0.00    +0.000 A 
ATOM     28  C   UNL     1      -4.341  11.579  17.255  0.00  0.00    +0.000 A 
ATOM     29 CL   UNL     1      -3.908  10.961  15.690  0.00  0.00    +0.000 Cl
ENDBRANCH  20  23
ENDBRANCH  16  17
ENDBRANCH   1  16
TORSDOF 6
ENDMDL
MODEL 4
REMARK VINA RESULT:      -7.4      1.694      2.770
REMARK  Name = 
REMARK  7 active torsions:
REMARK  status: ('A' for Active; 'I' for Inactive)
REMARK    1  A    between atoms: C_1  and  O_2
REMARK    2  A    between atoms: O_2  and  C_3
REMARK    3  A    between atoms: N_13  and  C_14
REMARK    4  A    between atoms: C_14  and  C_15
REMARK    5  A    between atoms: C_15  and  C_16
REMARK    6  A    between atoms: C_16  and  N_17
REMARK    7  A    between atoms: N_20  and  C_21
REMARK                            x       y       z     vdW  Elec       q    Type
REMARK                         _______ _______ _______ _____ _____    ______ ____
ROOT
ATOM      1  C   UNL     1       1.523   8.374  20.514  0.00  0.00    +0.000 C 
ENDROOT
BRANCH   1   2
ATOM      2  C   UNL     1       0.178   8.406  21.244  0.00  0.00    +0.000 C 
BRANCH   2  13
ATOM      3  C   UNL     1      -1.225  12.828  19.536  0.00  0.00    +0.000 A 
ATOM      4  C   UNL     1      -1.358  12.297  18.251  0.00  0.00    +0.000 A 
ATOM      5  C   UNL     1      -1.174  10.937  18.035  0.00  0.00    +0.000 A 
ATOM      6  C   UNL     1      -0.832  10.104  19.096  0.00  0.00    +0.000 A 
ATOM      7  C   UNL     1      -0.663  10.614  20.392  0.00  0.00    +0.000 A 
ATOM      8  C   UNL     1      -0.866  11.990  20.611  0.00  0.00    +0.000 A 
ATOM      9  C   UNL     1      -0.608  12.548  21.985  0.00  0.00    +0.000 C 
ATOM     10  C   UNL     1      -1.006  11.542  23.042  0.00  0.00    +0.000 C 
ATOM     11  C   UNL     1      -0.341  10.210  22.809  0.00  0.00    +0.000 C 
ATOM     12  O   UNL     1       0.006   9.518  23.769  0.00  0.00    +0.000 OA
ATOM     13  N   UNL     1      -0.273   9.779  21.484  0.00  0.00    +0.000 N 
BRANCH   3  15
ATOM     14  C   UNL     1      -0.424  15.023  19.206  0.00  0.00    +0.000 C 
ATOM     15  O   UNL     1      -1.387  14.162  19.810  0.00  0.00    +0.000 OA
ENDBRANCH   3  15
ENDBRANCH   2  13
ENDBRANCH   1   2
BRANCH   1  16
ATOM     16  C   UNL     1       2.252   7.039  20.700  0.00  0.00    +0.000 C 
BRANCH  16  17
ATOM     17  N   UNL     1       1.983   6.057  19.638  0.00  0.00    +0.000 NA
ATOM     18  C   UNL     1       2.150   6.620  18.275  0.00  0.00    +0.000 C 
ATOM     19  C   UNL     1       3.599   7.026  17.938  0.00  0.00    +0.000 C 
ATOM     20  N   UNL     1       4.513   5.884  18.121  0.00  0.00    +0.000 N 
ATOM     21  C   UNL     1       4.380   5.160  19.400  0.00  0.00    +0.000 C 
ATOM     22  C   UNL     1       2.893   4.891  19.747  0.00  0.00    +0.000 C 
BRANCH  20  23
ATOM     23  C   UNL     1       5.315   5.420  17.090  0.00  0.00    +0.000 A 
ATOM     24  C   UNL     1       4.788   4.489  16.172  0.00  0.00    +0.000 A 
ATOM     25  C   UNL     1       5.519   3.997  15.085  0.00  0.00    +0.000 A 
ATOM     26  C   UNL     1       6.830   4.404  14.892  0.00  0.00    +0.000 A 
ATOM     27  C   UNL     1       7.400   5.305  15.785  0.00  0.00    +0.000 A 
ATOM     28  C   UNL     1       6.655   5.816  16.863  0.00  0.00    +0.000 A 
ATOM     29 CL   UNL     1       7.462   7.034  17.805  0.00  0.00    +0.000 Cl
ENDBRANCH  20  23
ENDBRANCH  16  17
ENDBRANCH   1  16
TORSDOF 6
ENDMDL
MODEL 5
REMARK VINA RESULT:      -7.3      2.102      3.360
REMARK  Name = 
REMARK  7 active torsions:
REMARK  status: ('A' for Active; 'I' for Inactive)
REMARK    1  A    between atoms: C_1  and  O_2
REMARK    2  A    between atoms: O_2  and  C_3
REMARK    3  A    between atoms: N_13  and  C_14
REMARK    4  A    between atoms: C_14  and  C_15
REMARK    5  A    between atoms: C_15  and  C_16
REMARK    6  A    between atoms: C_16  and  N_17
REMARK    7  A    between atoms: N_20  and  C_21
REMARK                            x       y       z     vdW  Elec       q    Type
REMARK                         _______ _______ _______ _____ _____    ______ ____
ROOT
ATOM      1  C   UNL     1       0.889   8.889  20.638  0.00  0.00    +0.000 C 
ENDROOT
BRANCH   1   2
ATOM      2  C   UNL     1       0.853  10.178  19.813  0.00  0.00    +0.000 C 
BRANCH   2  13
ATOM      3  C   UNL     1      -3.509  11.483  17.888  0.00  0.00    +0.000 A 
ATOM      4  C   UNL     1      -3.329  10.573  16.845  0.00  0.00    +0.000 A 
ATOM      5  C   UNL     1      -2.223   9.732  16.834  0.00  0.00    +0.000 A 
ATOM      6  C   UNL     1      -1.279   9.812  17.854  0.00  0.00    +0.000 A 
ATOM      7  C   UNL     1      -1.419  10.736  18.899  0.00  0.00    +0.000 A 
ATOM      8  C   UNL     1      -2.549  11.577  18.915  0.00  0.00    +0.000 A 
ATOM      9  C   UNL     1      -2.658  12.620  19.995  0.00  0.00    +0.000 C 
ATOM     10  C   UNL     1      -2.081  12.096  21.291  0.00  0.00    +0.000 C 
ATOM     11  C   UNL     1      -0.676  11.586  21.099  0.00  0.00    +0.000 C 
ATOM     12  O   UNL     1       0.158  11.723  21.997  0.00  0.00    +0.000 OA
ATOM     13  N   UNL     1      -0.438  10.859  19.932  0.00  0.00    +0.000 N 
BRANCH   3  15
ATOM     14  C   UNL     1      -5.854  11.715  18.010  0.00  0.00    +0.000 C 
ATOM     15  O   UNL     1      -4.576  12.343  17.949  0.00  0.00    +0.000 OA
ENDBRANCH   3  15
ENDBRANCH   2  13
ENDBRANCH   1   2
BRANCH   1  16
ATOM     16  C   UNL     1       2.081   7.999  20.272  0.00  0.00    +0.000 C 
BRANCH  16  17
ATOM     17  N   UNL     1       1.771   6.967  19.271  0.00  0.00    +0.000 NA
ATOM     18  C   UNL     1       2.144   7.369  17.891  0.00  0.00    +0.000 C 
ATOM     19  C   UNL     1       3.662   7.538  17.676  0.00  0.00    +0.000 C 
ATOM     20  N   UNL     1       4.379   6.304  18.047  0.00  0.00    +0.000 N 
ATOM     21  C   UNL     1       4.023   5.731  19.359  0.00  0.00    +0.000 C 
ATOM     22  C   UNL     1       2.487   5.702  19.569  0.00  0.00    +0.000 C 
BRANCH  20  23
ATOM     23  C   UNL     1       5.196   5.638  17.147  0.00  0.00    +0.000 A 
ATOM     24  C   UNL     1       4.693   4.517  16.457  0.00  0.00    +0.000 A 
ATOM     25  C   UNL     1       5.440   3.810  15.508  0.00  0.00    +0.000 A 
ATOM     26  C   UNL     1       6.745   4.189  15.234  0.00  0.00    +0.000 A 
ATOM     27  C   UNL     1       7.292   5.277  15.907  0.00  0.00    +0.000 A 
ATOM     28  C   UNL     1       6.530   6.000  16.842  0.00  0.00    +0.000 A 
ATOM     29 CL   UNL     1       7.309   7.411  17.493  0.00  0.00    +0.000 Cl
ENDBRANCH  20  23
ENDBRANCH  16  17
ENDBRANCH   1  16
TORSDOF 6
ENDMDL
MODEL 6
REMARK VINA RESULT:      -7.2      3.174      9.332
REMARK  Name = 
REMARK  7 active torsions:
REMARK  status: ('A' for Active; 'I' for Inactive)
REMARK    1  A    between atoms: C_1  and  O_2
REMARK    2  A    between atoms: O_2  and  C_3
REMARK    3  A    between atoms: N_13  and  C_14
REMARK    4  A    between atoms: C_14  and  C_15
REMARK    5  A    between atoms: C_15  and  C_16
REMARK    6  A    between atoms: C_16  and  N_17
REMARK    7  A    between atoms: N_20  and  C_21
REMARK                            x       y       z     vdW  Elec       q    Type
REMARK                         _______ _______ _______ _____ _____    ______ ____
ROOT
ATOM      1  C   UNL     1       1.780   5.884  20.753  0.00  0.00    +0.000 C 
ENDROOT
BRANCH   1   2
ATOM      2  C   UNL     1       1.278   4.976  19.628  0.00  0.00    +0.000 C 
BRANCH   2  13
ATOM      3  C   UNL     1       5.104   4.544  16.528  0.00  0.00    +0.000 A 
ATOM      4  C   UNL     1       5.115   5.927  16.337  0.00  0.00    +0.000 A 
ATOM      5  C   UNL     1       4.252   6.739  17.063  0.00  0.00    +0.000 A 
ATOM      6  C   UNL     1       3.357   6.172  17.965  0.00  0.00    +0.000 A 
ATOM      7  C   UNL     1       3.304   4.783  18.157  0.00  0.00    +0.000 A 
ATOM      8  C   UNL     1       4.191   3.964  17.432  0.00  0.00    +0.000 A 
ATOM      9  C   UNL     1       4.080   2.470  17.581  0.00  0.00    +0.000 C 
ATOM     10  C   UNL     1       3.701   2.112  19.000  0.00  0.00    +0.000 C 
ATOM     11  C   UNL     1       2.459   2.845  19.438  0.00  0.00    +0.000 C 
ATOM     12  O   UNL     1       1.653   2.296  20.193  0.00  0.00    +0.000 OA
ATOM     13  N   UNL     1       2.364   4.182  19.050  0.00  0.00    +0.000 N 
BRANCH   3  15
ATOM     14  C   UNL     1       6.084   3.996  14.453  0.00  0.00    +0.000 C 
ATOM     15  O   UNL     1       5.926   3.691  15.837  0.00  0.00    +0.000 OA
ENDBRANCH   3  15
ENDBRANCH   2  13
ENDBRANCH   1   2
BRANCH   1  16
ATOM     16  C   UNL     1       0.866   7.094  20.975  0.00  0.00    +0.000 C 
BRANCH  16  17
ATOM     17  N   UNL     1       1.573   8.384  20.983  0.00  0.00    +0.000 NA
ATOM     18  C   UNL     1       0.952   9.389  20.086  0.00  0.00    +0.000 C 
ATOM     19  C   UNL     1      -0.463   9.828  20.519  0.00  0.00    +0.000 C 
ATOM     20  N   UNL     1      -0.446  10.337  21.902  0.00  0.00    +0.000 N 
ATOM     21  C   UNL     1       0.239   9.480  22.888  0.00  0.00    +0.000 C 
ATOM     22  C   UNL     1       1.599   8.968  22.347  0.00  0.00    +0.000 C 
BRANCH  20  23
ATOM     23  C   UNL     1      -0.890  11.613  22.214  0.00  0.00    +0.000 A 
ATOM     24  C   UNL     1      -2.052  11.767  22.997  0.00  0.00    +0.000 A 
ATOM     25  C   UNL     1      -2.547  13.018  23.383  0.00  0.00    +0.000 A 
ATOM     26  C   UNL     1      -1.902  14.173  22.972  0.00  0.00    +0.000 A 
ATOM     27  C   UNL     1      -0.763  14.071  22.180  0.00  0.00    +0.000 A 
ATOM     28  C   UNL     1      -0.254  12.812  21.813  0.00  0.00    +0.000 A 
ATOM     29 CL   UNL     1       1.249  12.851  20.941  0.00  0.00    +0.000 Cl
ENDBRANCH  20  23
ENDBRANCH  16  17
ENDBRANCH   1  16
TORSDOF 6
ENDMDL
MODEL 7
REMARK VINA RESULT:      -7.2      3.211      9.557
REMARK  Name = 
REMARK  7 active torsions:
REMARK  status: ('A' for Active; 'I' for Inactive)
REMARK    1  A    between atoms: C_1  and  O_2
REMARK    2  A    between atoms: O_2  and  C_3
REMARK    3  A    between atoms: N_13  and  C_14
REMARK    4  A    between atoms: C_14  and  C_15
REMARK    5  A    between atoms: C_15  and  C_16
REMARK    6  A    between atoms: C_16  and  N_17
REMARK    7  A    between atoms: N_20  and  C_21
REMARK                            x       y       z     vdW  Elec       q    Type
REMARK                         _______ _______ _______ _____ _____    ______ ____
ROOT
ATOM      1  C   UNL     1       1.535   8.640  17.955  0.00  0.00    +0.000 C 
ENDROOT
BRANCH   1   2
ATOM      2  C   UNL     1       2.663   8.112  18.844  0.00  0.00    +0.000 C 
BRANCH   2  13
ATOM      3  C   UNL     1       3.329   3.358  17.662  0.00  0.00    +0.000 A 
ATOM      4  C   UNL     1       4.247   3.725  16.676  0.00  0.00    +0.000 A 
ATOM      5  C   UNL     1       4.619   5.056  16.527  0.00  0.00    +0.000 A 
ATOM      6  C   UNL     1       4.056   6.030  17.346  0.00  0.00    +0.000 A 
ATOM      7  C   UNL     1       3.109   5.695  18.325  0.00  0.00    +0.000 A 
ATOM      8  C   UNL     1       2.746   4.343  18.484  0.00  0.00    +0.000 A 
ATOM      9  C   UNL     1       1.673   3.996  19.481  0.00  0.00    +0.000 C 
ATOM     10  C   UNL     1       1.763   4.907  20.685  0.00  0.00    +0.000 C 
ATOM     11  C   UNL     1       1.745   6.359  20.277  0.00  0.00    +0.000 C 
ATOM     12  O   UNL     1       1.187   7.193  20.994  0.00  0.00    +0.000 OA
ATOM     13  N   UNL     1       2.492   6.689  19.146  0.00  0.00    +0.000 N 
BRANCH   3  15
ATOM     14  C   UNL     1       3.812   1.254  18.613  0.00  0.00    +0.000 C 
ATOM     15  O   UNL     1       2.918   2.064  17.852  0.00  0.00    +0.000 OA
ENDBRANCH   3  15
ENDBRANCH   2  13
ENDBRANCH   1   2
BRANCH   1  16
ATOM     16  C   UNL     1       1.164  10.089  18.286  0.00  0.00    +0.000 C 
BRANCH  16  17
ATOM     17  N   UNL     1      -0.110  10.231  19.007  0.00  0.00    +0.000 NA
ATOM     18  C   UNL     1       0.040  10.104  20.478  0.00  0.00    +0.000 C 
ATOM     19  C   UNL     1       0.868  11.235  21.123  0.00  0.00    +0.000 C 
ATOM     20  N   UNL     1       0.294  12.551  20.792  0.00  0.00    +0.000 N 
ATOM     21  C   UNL     1      -0.008  12.774  19.365  0.00  0.00    +0.000 C 
ATOM     22  C   UNL     1      -0.730  11.552  18.740  0.00  0.00    +0.000 C 
BRANCH  20  23
ATOM     23  C   UNL     1      -0.098  13.444  21.778  0.00  0.00    +0.000 A 
ATOM     24  C   UNL     1       0.499  14.720  21.829  0.00  0.00    +0.000 A 
ATOM     25  C   UNL     1       0.137  15.691  22.770  0.00  0.00    +0.000 A 
ATOM     26  C   UNL     1      -0.827  15.404  23.723  0.00  0.00    +0.000 A 
ATOM     27  C   UNL     1      -1.428  14.149  23.725  0.00  0.00    +0.000 A 
ATOM     28  C   UNL     1      -1.081  13.184  22.763  0.00  0.00    +0.000 A 
ATOM     29 CL   UNL     1      -2.018  11.722  22.814  0.00  0.00    +0.000 Cl
ENDBRANCH  20  23
ENDBRANCH  16  17
ENDBRANCH   1  16
TORSDOF 6
ENDMDL
MODEL 8
REMARK VINA RESULT:      -7.2      3.034      9.565
REMARK  Name = 
REMARK  7 active torsions:
REMARK  status: ('A' for Active; 'I' for Inactive)
REMARK    1  A    between atoms: C_1  and  O_2
REMARK    2  A    between atoms: O_2  and  C_3
REMARK    3  A    between atoms: N_13  and  C_14
REMARK    4  A    between atoms: C_14  and  C_15
REMARK    5  A    between atoms: C_15  and  C_16
REMARK    6  A    between atoms: C_16  and  N_17
REMARK    7  A    between atoms: N_20  and  C_21
REMARK                            x       y       z     vdW  Elec       q    Type
REMARK                         _______ _______ _______ _____ _____    ______ ____
ROOT
ATOM      1  C   UNL     1       1.556   8.869  17.990  0.00  0.00    +0.000 C 
ENDROOT
BRANCH   1   2
ATOM      2  C   UNL     1       2.564   8.337  19.011  0.00  0.00    +0.000 C 
BRANCH   2  13
ATOM      3  C   UNL     1       3.217   3.618  17.693  0.00  0.00    +0.000 A 
ATOM      4  C   UNL     1       4.162   4.007  16.742  0.00  0.00    +0.000 A 
ATOM      5  C   UNL     1       4.548   5.338  16.644  0.00  0.00    +0.000 A 
ATOM      6  C   UNL     1       3.974   6.291  17.480  0.00  0.00    +0.000 A 
ATOM      7  C   UNL     1       3.002   5.934  18.426  0.00  0.00    +0.000 A 
ATOM      8  C   UNL     1       2.624   4.581  18.533  0.00  0.00    +0.000 A 
ATOM      9  C   UNL     1       1.525   4.213  19.493  0.00  0.00    +0.000 C 
ATOM     10  C   UNL     1       1.593   5.084  20.727  0.00  0.00    +0.000 C 
ATOM     11  C   UNL     1       1.598   6.548  20.366  0.00  0.00    +0.000 C 
ATOM     12  O   UNL     1       1.030   7.364  21.095  0.00  0.00    +0.000 OA
ATOM     13  N   UNL     1       2.374   6.907  19.263  0.00  0.00    +0.000 N 
BRANCH   3  15
ATOM     14  C   UNL     1       3.722   1.446  18.466  0.00  0.00    +0.000 C 
ATOM     15  O   UNL     1       2.791   2.321  17.832  0.00  0.00    +0.000 OA
ENDBRANCH   3  15
ENDBRANCH   2  13
ENDBRANCH   1   2
BRANCH   1  16
ATOM     16  C   UNL     1       0.437   9.683  18.650  0.00  0.00    +0.000 C 
BRANCH  16  17
ATOM     17  N   UNL     1       0.854  11.022  19.094  0.00  0.00    +0.000 NA
ATOM     18  C   UNL     1      -0.213  12.041  18.937  0.00  0.00    +0.000 C 
ATOM     19  C   UNL     1      -1.444  11.804  19.838  0.00  0.00    +0.000 C 
ATOM     20  N   UNL     1      -1.042  11.716  21.253  0.00  0.00    +0.000 N 
ATOM     21  C   UNL     1       0.089  10.812  21.539  0.00  0.00    +0.000 C 
ATOM     22  C   UNL     1       1.245  11.011  20.525  0.00  0.00    +0.000 C 
BRANCH  20  23
ATOM     23  C   UNL     1      -1.575  12.560  22.215  0.00  0.00    +0.000 A 
ATOM     24  C   UNL     1      -2.785  12.209  22.846  0.00  0.00    +0.000 A 
ATOM     25  C   UNL     1      -3.372  12.987  23.850  0.00  0.00    +0.000 A 
ATOM     26  C   UNL     1      -2.774  14.174  24.243  0.00  0.00    +0.000 A 
ATOM     27  C   UNL     1      -1.589  14.572  23.633  0.00  0.00    +0.000 A 
ATOM     28  C   UNL     1      -0.989  13.776  22.642  0.00  0.00    +0.000 A 
ATOM     29 CL   UNL     1       0.555  14.341  22.078  0.00  0.00    +0.000 Cl
ENDBRANCH  20  23
ENDBRANCH  16  17
ENDBRANCH   1  16
TORSDOF 6
ENDMDL
MODEL 9
REMARK VINA RESULT:      -7.2      3.013      9.633
REMARK  Name = 
REMARK  7 active torsions:
REMARK  status: ('A' for Active; 'I' for Inactive)
REMARK    1  A    between atoms: C_1  and  O_2
REMARK    2  A    between atoms: O_2  and  C_3
REMARK    3  A    between atoms: N_13  and  C_14
REMARK    4  A    between atoms: C_14  and  C_15
REMARK    5  A    between atoms: C_15  and  C_16
REMARK    6  A    between atoms: C_16  and  N_17
REMARK    7  A    between atoms: N_20  and  C_21
REMARK                            x       y       z     vdW  Elec       q    Type
REMARK                         _______ _______ _______ _____ _____    ______ ____
ROOT
ATOM      1  C   UNL     1       2.039   8.001  17.989  0.00  0.00    +0.000 C 
ENDROOT
BRANCH   1   2
ATOM      2  C   UNL     1       2.679   7.052  19.005  0.00  0.00    +0.000 C 
BRANCH   2  13
ATOM      3  C   UNL     1       5.918   4.645  16.150  0.00  0.00    +0.000 A 
ATOM      4  C   UNL     1       6.790   5.733  16.210  0.00  0.00    +0.000 A 
ATOM      5  C   UNL     1       6.486   6.830  17.008  0.00  0.00    +0.000 A 
ATOM      6  C   UNL     1       5.297   6.855  17.730  0.00  0.00    +0.000 A 
ATOM      7  C   UNL     1       4.388   5.788  17.667  0.00  0.00    +0.000 A 
ATOM      8  C   UNL     1       4.707   4.672  16.870  0.00  0.00    +0.000 A 
ATOM      9  C   UNL     1       3.695   3.564  16.742  0.00  0.00    +0.000 C 
ATOM     10  C   UNL     1       2.950   3.381  18.045  0.00  0.00    +0.000 C 
ATOM     11  C   UNL     1       2.350   4.680  18.520  0.00  0.00    +0.000 C 
ATOM     12  O   UNL     1       1.265   4.679  19.107  0.00  0.00    +0.000 OA
ATOM     13  N   UNL     1       3.144   5.817  18.371  0.00  0.00    +0.000 N 
BRANCH   3  15
ATOM     14  C   UNL     1       6.212   3.785  13.973  0.00  0.00    +0.000 C 
ATOM     15  O   UNL     1       6.160   3.539  15.376  0.00  0.00    +0.000 OA
ENDBRANCH   3  15
ENDBRANCH   2  13
ENDBRANCH   1   2
BRANCH   1  16
ATOM     16  C   UNL     1       1.630   9.337  18.620  0.00  0.00    +0.000 C 
BRANCH  16  17
ATOM     17  N   UNL     1       0.266   9.345  19.171  0.00  0.00    +0.000 NA
ATOM     18  C   UNL     1       0.241   9.268  20.653  0.00  0.00    +0.000 C 
ATOM     19  C   UNL     1       0.848  10.501  21.355  0.00  0.00    +0.000 C 
ATOM     20  N   UNL     1       0.176  11.735  20.908  0.00  0.00    +0.000 N 
ATOM     21  C   UNL     1       0.036  11.890  19.448  0.00  0.00    +0.000 C 
ATOM     22  C   UNL     1      -0.459  10.580  18.782  0.00  0.00    +0.000 C 
BRANCH  20  23
ATOM     23  C   UNL     1      -0.435  12.597  21.805  0.00  0.00    +0.000 A 
ATOM     24  C   UNL     1      -1.603  12.182  22.475  0.00  0.00    +0.000 A 
ATOM     25  C   UNL     1      -2.262  12.978  23.419  0.00  0.00    +0.000 A 
ATOM     26  C   UNL     1      -1.782  14.246  23.708  0.00  0.00    +0.000 A 
ATOM     27  C   UNL     1      -0.644  14.707  23.056  0.00  0.00    +0.000 A 
ATOM     28  C   UNL     1       0.030  13.896  22.126  0.00  0.00    +0.000 A 
ATOM     29 CL   UNL     1       1.509  14.561  21.502  0.00  0.00    +0.000 Cl
ENDBRANCH  20  23
ENDBRANCH  16  17
ENDBRANCH   1  16
TORSDOF 6
ENDMDL
