MODEL 1
REMARK VINA RESULT:      -7.2      0.000      0.000
REMARK  Name = 
REMARK  10 active torsions:
REMARK  status: ('A' for Active; 'I' for Inactive)
REMARK    1  A    between atoms: C_1  and  C_2
REMARK    2  A    between atoms: C_2  and  C_3
REMARK    3  A    between atoms: C_2  and  C_14
REMARK    4  A    between atoms: C_3  and  O_5
REMARK    5  A    between atoms: O_5  and  C_6
REMARK    6  A    between atoms: C_6  and  C_7
REMARK    7  A    between atoms: C_7  and  C_8
REMARK    8  A    between atoms: C_8  and  SE_9
REMARK    9  A    between atoms: SE_9  and  C_10
REMARK   10  A    between atoms: C_17  and  C_18
REMARK                            x       y       z     vdW  Elec       q    Type
REMARK                         _______ _______ _______ _____ _____    ______ ____
ROOT
ATOM      1  C   UNL     1       5.787   6.535  17.141  0.00  0.00    +0.000 C 
ATOM      2  C   UNL     1       4.536   5.823  17.669  0.00  0.00    +0.000 C 
ENDROOT
BRANCH   2   3
ATOM      3  C   UNL     1       3.548   6.810  18.263  0.00  0.00    +0.000 A 
ATOM      4  C   UNL     1       2.929   6.562  19.498  0.00  0.00    +0.000 A 
ATOM      5  C   UNL     1       2.019   7.471  20.031  0.00  0.00    +0.000 A 
ATOM      6  C   UNL     1       1.677   8.653  19.343  0.00  0.00    +0.000 A 
ATOM      7  C   UNL     1       2.297   8.896  18.093  0.00  0.00    +0.000 A 
ATOM      8  F   UNL     1       2.053  10.023  17.381  0.00  0.00    +0.000 F 
ATOM      9  C   UNL     1       3.226   7.988  17.572  0.00  0.00    +0.000 A 
BRANCH   6  10
ATOM     10  C   UNL     1       0.674   9.595  19.944  0.00  0.00    +0.000 A 
ATOM     11  C   UNL     1       0.728   9.912  21.321  0.00  0.00    +0.000 A 
ATOM     12  C   UNL     1      -0.202  10.781  21.897  0.00  0.00    +0.000 A 
ATOM     13  C   UNL     1      -1.211  11.339  21.117  0.00  0.00    +0.000 A 
ATOM     14  C   UNL     1      -1.289  11.037  19.758  0.00  0.00    +0.000 A 
ATOM     15  C   UNL     1      -0.354  10.178  19.171  0.00  0.00    +0.000 A 
ENDBRANCH   6  10
ENDBRANCH   2   3
BRANCH   2  16
ATOM     16  C   UNL     1       4.885   4.776  18.699  0.00  0.00    +0.000 C 
ATOM     17  O   UNL     1       5.905   4.906  19.363  0.00  0.00    +0.000 OA
BRANCH  16  18
ATOM     18  O   UNL     1       4.095   3.680  18.854  0.00  0.00    +0.000 OA
BRANCH  18  19
ATOM     19  C   UNL     1       3.776   2.788  17.844  0.00  0.00    +0.000 C 
BRANCH  19  20
ATOM     20  C   UNL     1       2.429   3.122  17.202  0.00  0.00    +0.000 C 
BRANCH  20  21
ATOM     21  C   UNL     1       1.355   3.484  18.225  0.00  0.00    +0.000 C 
BRANCH  21  22
ATOM     22 SE   UNL     1       1.215   2.027  19.524  0.00  0.00    +0.000 Se
BRANCH  22  23
ATOM     23  C   UNL     1       1.447   3.132  21.124  0.00  0.00    +0.000 C 
ATOM     24  F   UNL     1       0.822   2.573  22.222  0.00  0.00    +0.000 F 
ATOM     25  F   UNL     1       2.796   3.254  21.395  0.00  0.00    +0.000 F 
ATOM     26  F   UNL     1       0.904   4.380  20.891  0.00  0.00    +0.000 F 
ENDBRANCH  22  23
ENDBRANCH  21  22
ENDBRANCH  20  21
ENDBRANCH  19  20
ENDBRANCH  18  19
ENDBRANCH  16  18
ENDBRANCH   2  16
TORSDOF 9
ENDMDL
MODEL 2
REMARK VINA RESULT:      -7.2      3.269      4.488
REMARK  Name = 
REMARK  10 active torsions:
REMARK  status: ('A' for Active; 'I' for Inactive)
REMARK    1  A    between atoms: C_1  and  C_2
REMARK    2  A    between atoms: C_2  and  C_3
REMARK    3  A    between atoms: C_2  and  C_14
REMARK    4  A    between atoms: C_3  and  O_5
REMARK    5  A    between atoms: O_5  and  C_6
REMARK    6  A    between atoms: C_6  and  C_7
REMARK    7  A    between atoms: C_7  and  C_8
REMARK    8  A    between atoms: C_8  and  SE_9
REMARK    9  A    between atoms: SE_9  and  C_10
REMARK   10  A    between atoms: C_17  and  C_18
REMARK                            x       y       z     vdW  Elec       q    Type
REMARK                         _______ _______ _______ _____ _____    ______ ____
ROOT
ATOM      1  C   UNL     1       3.676   4.004  17.114  0.00  0.00    +0.000 C 
ATOM      2  C   UNL     1       3.503   3.935  18.636  0.00  0.00    +0.000 C 
ENDROOT
BRANCH   2   3
ATOM      3  C   UNL     1       2.868   5.202  19.178  0.00  0.00    +0.000 A 
ATOM      4  C   UNL     1       2.141   5.192  20.379  0.00  0.00    +0.000 A 
ATOM      5  C   UNL     1       1.558   6.358  20.865  0.00  0.00    +0.000 A 
ATOM      6  C   UNL     1       1.660   7.576  20.161  0.00  0.00    +0.000 A 
ATOM      7  C   UNL     1       2.387   7.581  18.947  0.00  0.00    +0.000 A 
ATOM      8  F   UNL     1       2.565   8.714  18.224  0.00  0.00    +0.000 F 
ATOM      9  C   UNL     1       2.989   6.409  18.474  0.00  0.00    +0.000 A 
BRANCH   6  10
ATOM     10  C   UNL     1       0.996   8.805  20.711  0.00  0.00    +0.000 A 
ATOM     11  C   UNL     1       0.698   8.900  22.090  0.00  0.00    +0.000 A 
ATOM     12  C   UNL     1       0.073  10.035  22.615  0.00  0.00    +0.000 A 
ATOM     13  C   UNL     1      -0.278  11.089  21.776  0.00  0.00    +0.000 A 
ATOM     14  C   UNL     1      -0.000  11.016  20.411  0.00  0.00    +0.000 A 
ATOM     15  C   UNL     1       0.636   9.890  19.880  0.00  0.00    +0.000 A 
ENDBRANCH   6  10
ENDBRANCH   2   3
BRANCH   2  16
ATOM     16  C   UNL     1       4.819   3.689  19.335  0.00  0.00    +0.000 C 
ATOM     17  O   UNL     1       5.093   2.559  19.715  0.00  0.00    +0.000 OA
BRANCH  16  18
ATOM     18  O   UNL     1       5.668   4.724  19.574  0.00  0.00    +0.000 OA
BRANCH  18  19
ATOM     19  C   UNL     1       6.825   4.979  18.857  0.00  0.00    +0.000 C 
BRANCH  19  20
ATOM     20  C   UNL     1       6.772   6.345  18.170  0.00  0.00    +0.000 C 
BRANCH  20  21
ATOM     21  C   UNL     1       6.638   6.243  16.652  0.00  0.00    +0.000 C 
BRANCH  21  22
ATOM     22 SE   UNL     1       7.181   4.446  16.098  0.00  0.00    +0.000 Se
BRANCH  22  23
ATOM     23  C   UNL     1       6.421   4.529  14.296  0.00  0.00    +0.000 C 
ATOM     24  F   UNL     1       6.188   3.267  13.783  0.00  0.00    +0.000 F 
ATOM     25  F   UNL     1       5.223   5.215  14.344  0.00  0.00    +0.000 F 
ATOM     26  F   UNL     1       7.303   5.191  13.465  0.00  0.00    +0.000 F 
ENDBRANCH  22  23
ENDBRANCH  21  22
ENDBRANCH  20  21
ENDBRANCH  19  20
ENDBRANCH  18  19
ENDBRANCH  16  18
ENDBRANCH   2  16
TORSDOF 9
ENDMDL
MODEL 3
REMARK VINA RESULT:      -7.2      1.494      2.270
REMARK  Name = 
REMARK  10 active torsions:
REMARK  status: ('A' for Active; 'I' for Inactive)
REMARK    1  A    between atoms: C_1  and  C_2
REMARK    2  A    between atoms: C_2  and  C_3
REMARK    3  A    between atoms: C_2  and  C_14
REMARK    4  A    between atoms: C_3  and  O_5
REMARK    5  A    between atoms: O_5  and  C_6
REMARK    6  A    between atoms: C_6  and  C_7
REMARK    7  A    between atoms: C_7  and  C_8
REMARK    8  A    between atoms: C_8  and  SE_9
REMARK    9  A    between atoms: SE_9  and  C_10
REMARK   10  A    between atoms: C_17  and  C_18
REMARK                            x       y       z     vdW  Elec       q    Type
REMARK                         _______ _______ _______ _____ _____    ______ ____
ROOT
ATOM      1  C   UNL     1       5.891   4.847  19.125  0.00  0.00    +0.000 C 
ATOM      2  C   UNL     1       5.286   5.442  17.848  0.00  0.00    +0.000 C 
ENDROOT
BRANCH   2   3
ATOM      3  C   UNL     1       4.151   6.397  18.168  0.00  0.00    +0.000 A 
ATOM      4  C   UNL     1       3.858   7.483  17.327  0.00  0.00    +0.000 A 
ATOM      5  C   UNL     1       2.818   8.357  17.632  0.00  0.00    +0.000 A 
ATOM      6  C   UNL     1       2.043   8.193  18.799  0.00  0.00    +0.000 A 
ATOM      7  C   UNL     1       2.346   7.101  19.648  0.00  0.00    +0.000 A 
ATOM      8  F   UNL     1       1.630   6.849  20.771  0.00  0.00    +0.000 F 
ATOM      9  C   UNL     1       3.379   6.215  19.325  0.00  0.00    +0.000 A 
BRANCH   6  10
ATOM     10  C   UNL     1       0.945   9.172  19.101  0.00  0.00    +0.000 A 
ATOM     11  C   UNL     1       0.099   9.637  18.067  0.00  0.00    +0.000 A 
ATOM     12  C   UNL     1      -0.922  10.554  18.331  0.00  0.00    +0.000 A 
ATOM     13  C   UNL     1      -1.111  11.035  19.624  0.00  0.00    +0.000 A 
ATOM     14  C   UNL     1      -0.285  10.595  20.659  0.00  0.00    +0.000 A 
ATOM     15  C   UNL     1       0.731   9.668  20.406  0.00  0.00    +0.000 A 
ENDBRANCH   6  10
ENDBRANCH   2   3
BRANCH   2  16
ATOM     16  C   UNL     1       4.792   4.366  16.912  0.00  0.00    +0.000 C 
ATOM     17  O   UNL     1       5.232   4.317  15.771  0.00  0.00    +0.000 OA
BRANCH  16  18
ATOM     18  O   UNL     1       3.838   3.488  17.323  0.00  0.00    +0.000 OA
BRANCH  18  19
ATOM     19  C   UNL     1       2.512   3.522  16.927  0.00  0.00    +0.000 C 
BRANCH  19  20
ATOM     20  C   UNL     1       1.568   3.232  18.095  0.00  0.00    +0.000 C 
BRANCH  20  21
ATOM     21  C   UNL     1       1.989   2.013  18.913  0.00  0.00    +0.000 C 
BRANCH  21  22
ATOM     22 SE   UNL     1       3.194   2.604  20.337  0.00  0.00    +0.000 Se
BRANCH  22  23
ATOM     23  C   UNL     1       1.813   3.365  21.496  0.00  0.00    +0.000 C 
ATOM     24  F   UNL     1       0.878   4.080  20.773  0.00  0.00    +0.000 F 
ATOM     25  F   UNL     1       1.170   2.340  22.162  0.00  0.00    +0.000 F 
ATOM     26  F   UNL     1       2.410   4.212  22.410  0.00  0.00    +0.000 F 
ENDBRANCH  22  23
ENDBRANCH  21  22
ENDBRANCH  20  21
ENDBRANCH  19  20
ENDBRANCH  18  19
ENDBRANCH  16  18
ENDBRANCH   2  16
TORSDOF 9
ENDMDL
MODEL 4
REMARK VINA RESULT:      -7.1      3.175      4.347
REMARK  Name = 
REMARK  10 active torsions:
REMARK  status: ('A' for Active; 'I' for Inactive)
REMARK    1  A    between atoms: C_1  and  C_2
REMARK    2  A    between atoms: C_2  and  C_3
REMARK    3  A    between atoms: C_2  and  C_14
REMARK    4  A    between atoms: C_3  and  O_5
REMARK    5  A    between atoms: O_5  and  C_6
REMARK    6  A    between atoms: C_6  and  C_7
REMARK    7  A    between atoms: C_7  and  C_8
REMARK    8  A    between atoms: C_8  and  SE_9
REMARK    9  A    between atoms: SE_9  and  C_10
REMARK   10  A    between atoms: C_17  and  C_18
REMARK                            x       y       z     vdW  Elec       q    Type
REMARK                         _______ _______ _______ _____ _____    ______ ____
ROOT
ATOM      1  C   UNL     1       2.021   4.583  20.594  0.00  0.00    +0.000 C 
ATOM      2  C   UNL     1       2.905   5.393  19.639  0.00  0.00    +0.000 C 
ENDROOT
BRANCH   2   3
ATOM      3  C   UNL     1       2.344   6.785  19.413  0.00  0.00    +0.000 A 
ATOM      4  C   UNL     1       2.480   7.429  18.174  0.00  0.00    +0.000 A 
ATOM      5  C   UNL     1       1.967   8.708  17.978  0.00  0.00    +0.000 A 
ATOM      6  C   UNL     1       1.316   9.402  19.019  0.00  0.00    +0.000 A 
ATOM      7  C   UNL     1       1.187   8.752  20.270  0.00  0.00    +0.000 A 
ATOM      8  F   UNL     1       0.544   9.331  21.314  0.00  0.00    +0.000 F 
ATOM      9  C   UNL     1       1.687   7.458  20.454  0.00  0.00    +0.000 A 
BRANCH   6  10
ATOM     10  C   UNL     1       0.797  10.789  18.771  0.00  0.00    +0.000 A 
ATOM     11  C   UNL     1       1.689  11.885  18.707  0.00  0.00    +0.000 A 
ATOM     12  C   UNL     1       1.220  13.182  18.484  0.00  0.00    +0.000 A 
ATOM     13  C   UNL     1      -0.144  13.416  18.335  0.00  0.00    +0.000 A 
ATOM     14  C   UNL     1      -1.044  12.352  18.400  0.00  0.00    +0.000 A 
ATOM     15  C   UNL     1      -0.583  11.048  18.610  0.00  0.00    +0.000 A 
ENDBRANCH   6  10
ENDBRANCH   2   3
BRANCH   2  16
ATOM     16  C   UNL     1       3.075   4.695  18.311  0.00  0.00    +0.000 C 
ATOM     17  O   UNL     1       2.124   4.100  17.822  0.00  0.00    +0.000 OA
BRANCH  16  18
ATOM     18  O   UNL     1       4.285   4.693  17.690  0.00  0.00    +0.000 OA
BRANCH  18  19
ATOM     19  C   UNL     1       4.543   4.100  16.466  0.00  0.00    +0.000 C 
BRANCH  19  20
ATOM     20  C   UNL     1       5.305   5.042  15.532  0.00  0.00    +0.000 C 
BRANCH  20  21
ATOM     21  C   UNL     1       6.740   5.298  15.987  0.00  0.00    +0.000 C 
BRANCH  21  22
ATOM     22 SE   UNL     1       6.743   6.823  17.213  0.00  0.00    +0.000 Se
BRANCH  22  23
ATOM     23  C   UNL     1       7.559   5.890  18.728  0.00  0.00    +0.000 C 
ATOM     24  F   UNL     1       8.554   6.647  19.315  0.00  0.00    +0.000 F 
ATOM     25  F   UNL     1       6.586   5.627  19.672  0.00  0.00    +0.000 F 
ATOM     26  F   UNL     1       8.108   4.703  18.282  0.00  0.00    +0.000 F 
ENDBRANCH  22  23
ENDBRANCH  21  22
ENDBRANCH  20  21
ENDBRANCH  19  20
ENDBRANCH  18  19
ENDBRANCH  16  18
ENDBRANCH   2  16
TORSDOF 9
ENDMDL
MODEL 5
REMARK VINA RESULT:      -7.1      3.012      4.188
REMARK  Name = 
REMARK  10 active torsions:
REMARK  status: ('A' for Active; 'I' for Inactive)
REMARK    1  A    between atoms: C_1  and  C_2
REMARK    2  A    between atoms: C_2  and  C_3
REMARK    3  A    between atoms: C_2  and  C_14
REMARK    4  A    between atoms: C_3  and  O_5
REMARK    5  A    between atoms: O_5  and  C_6
REMARK    6  A    between atoms: C_6  and  C_7
REMARK    7  A    between atoms: C_7  and  C_8
REMARK    8  A    between atoms: C_8  and  SE_9
REMARK    9  A    between atoms: SE_9  and  C_10
REMARK   10  A    between atoms: C_17  and  C_18
REMARK                            x       y       z     vdW  Elec       q    Type
REMARK                         _______ _______ _______ _____ _____    ______ ____
ROOT
ATOM      1  C   UNL     1       3.427   2.509  20.144  0.00  0.00    +0.000 C 
ATOM      2  C   UNL     1       3.892   3.651  19.235  0.00  0.00    +0.000 C 
ENDROOT
BRANCH   2   3
ATOM      3  C   UNL     1       3.178   4.948  19.568  0.00  0.00    +0.000 A 
ATOM      4  C   UNL     1       2.316   5.038  20.672  0.00  0.00    +0.000 A 
ATOM      5  C   UNL     1       1.661   6.231  20.967  0.00  0.00    +0.000 A 
ATOM      6  C   UNL     1       1.825   7.374  20.158  0.00  0.00    +0.000 A 
ATOM      7  C   UNL     1       2.688   7.278  19.040  0.00  0.00    +0.000 A 
ATOM      8  F   UNL     1       2.931   8.337  18.230  0.00  0.00    +0.000 F 
ATOM      9  C   UNL     1       3.360   6.082  18.762  0.00  0.00    +0.000 A 
BRANCH   6  10
ATOM     10  C   UNL     1       1.082   8.633  20.499  0.00  0.00    +0.000 A 
ATOM     11  C   UNL     1       0.680   9.525  19.478  0.00  0.00    +0.000 A 
ATOM     12  C   UNL     1      -0.006  10.704  19.780  0.00  0.00    +0.000 A 
ATOM     13  C   UNL     1      -0.292  11.025  21.105  0.00  0.00    +0.000 A 
ATOM     14  C   UNL     1       0.100  10.164  22.131  0.00  0.00    +0.000 A 
ATOM     15  C   UNL     1       0.775   8.975  21.835  0.00  0.00    +0.000 A 
ENDBRANCH   6  10
ENDBRANCH   2   3
BRANCH   2  16
ATOM     16  C   UNL     1       3.686   3.321  17.776  0.00  0.00    +0.000 C 
ATOM     17  O   UNL     1       2.608   2.875  17.410  0.00  0.00    +0.000 OA
BRANCH  16  18
ATOM     18  O   UNL     1       4.706   3.477  16.890  0.00  0.00    +0.000 OA
BRANCH  18  19
ATOM     19  C   UNL     1       4.666   4.301  15.778  0.00  0.00    +0.000 C 
BRANCH  19  20
ATOM     20  C   UNL     1       6.017   4.347  15.062  0.00  0.00    +0.000 C 
BRANCH  20  21
ATOM     21  C   UNL     1       7.178   4.671  16.000  0.00  0.00    +0.000 C 
BRANCH  21  22
ATOM     22 SE   UNL     1       6.772   6.339  16.939  0.00  0.00    +0.000 Se
BRANCH  22  23
ATOM     23  C   UNL     1       7.594   5.841  18.644  0.00  0.00    +0.000 C 
ATOM     24  F   UNL     1       8.301   4.658  18.541  0.00  0.00    +0.000 F 
ATOM     25  F   UNL     1       8.460   6.843  19.037  0.00  0.00    +0.000 F 
ATOM     26  F   UNL     1       6.602   5.685  19.593  0.00  0.00    +0.000 F 
ENDBRANCH  22  23
ENDBRANCH  21  22
ENDBRANCH  20  21
ENDBRANCH  19  20
ENDBRANCH  18  19
ENDBRANCH  16  18
ENDBRANCH   2  16
TORSDOF 9
ENDMDL
MODEL 6
REMARK VINA RESULT:      -7.1      4.007      8.037
REMARK  Name = 
REMARK  10 active torsions:
REMARK  status: ('A' for Active; 'I' for Inactive)
REMARK    1  A    between atoms: C_1  and  C_2
REMARK    2  A    between atoms: C_2  and  C_3
REMARK    3  A    between atoms: C_2  and  C_14
REMARK    4  A    between atoms: C_3  and  O_5
REMARK    5  A    between atoms: O_5  and  C_6
REMARK    6  A    between atoms: C_6  and  C_7
REMARK    7  A    between atoms: C_7  and  C_8
REMARK    8  A    between atoms: C_8  and  SE_9
REMARK    9  A    between atoms: SE_9  and  C_10
REMARK   10  A    between atoms: C_17  and  C_18
REMARK                            x       y       z     vdW  Elec       q    Type
REMARK                         _______ _______ _______ _____ _____    ______ ____
ROOT
ATOM      1  C   UNL     1      -0.182   9.423  22.395  0.00  0.00    +0.000 C 
ATOM      2  C   UNL     1      -0.083   9.882  20.935  0.00  0.00    +0.000 C 
ENDROOT
BRANCH   2   3
ATOM      3  C   UNL     1       0.845   8.986  20.136  0.00  0.00    +0.000 A 
ATOM      4  C   UNL     1       1.220   9.317  18.824  0.00  0.00    +0.000 A 
ATOM      5  C   UNL     1       2.067   8.486  18.097  0.00  0.00    +0.000 A 
ATOM      6  C   UNL     1       2.557   7.282  18.643  0.00  0.00    +0.000 A 
ATOM      7  C   UNL     1       2.170   6.948  19.964  0.00  0.00    +0.000 A 
ATOM      8  F   UNL     1       2.622   5.828  20.579  0.00  0.00    +0.000 F 
ATOM      9  C   UNL     1       1.335   7.798  20.697  0.00  0.00    +0.000 A 
BRANCH   6  10
ATOM     10  C   UNL     1       3.451   6.405  17.816  0.00  0.00    +0.000 A 
ATOM     11  C   UNL     1       4.520   6.966  17.079  0.00  0.00    +0.000 A 
ATOM     12  C   UNL     1       5.355   6.163  16.299  0.00  0.00    +0.000 A 
ATOM     13  C   UNL     1       5.135   4.790  16.225  0.00  0.00    +0.000 A 
ATOM     14  C   UNL     1       4.083   4.214  16.937  0.00  0.00    +0.000 A 
ATOM     15  C   UNL     1       3.250   5.009  17.731  0.00  0.00    +0.000 A 
ENDBRANCH   6  10
ENDBRANCH   2   3
BRANCH   2  16
ATOM     16  C   UNL     1       0.383  11.314  20.833  0.00  0.00    +0.000 C 
ATOM     17  O   UNL     1       1.349  11.678  21.491  0.00  0.00    +0.000 OA
BRANCH  16  18
ATOM     18  O   UNL     1      -0.291  12.198  20.049  0.00  0.00    +0.000 OA
BRANCH  18  19
ATOM     19  C   UNL     1      -1.594  12.612  20.267  0.00  0.00    +0.000 C 
BRANCH  19  20
ATOM     20  C   UNL     1      -2.525  12.159  19.141  0.00  0.00    +0.000 C 
BRANCH  20  21
ATOM     21  C   UNL     1      -1.774  11.561  17.952  0.00  0.00    +0.000 C 
BRANCH  21  22
ATOM     22 SE   UNL     1      -2.640   9.879  17.452  0.00  0.00    +0.000 Se
BRANCH  22  23
ATOM     23  C   UNL     1      -3.514  10.551  15.834  0.00  0.00    +0.000 C 
ATOM     24  F   UNL     1      -4.730  11.141  16.121  0.00  0.00    +0.000 F 
ATOM     25  F   UNL     1      -2.695  11.489  15.237  0.00  0.00    +0.000 F 
ATOM     26  F   UNL     1      -3.724   9.496  14.966  0.00  0.00    +0.000 F 
ENDBRANCH  22  23
ENDBRANCH  21  22
ENDBRANCH  20  21
ENDBRANCH  19  20
ENDBRANCH  18  19
ENDBRANCH  16  18
ENDBRANCH   2  16
TORSDOF 9
ENDMDL
MODEL 7
REMARK VINA RESULT:      -7.0      1.063      1.885
REMARK  Name = 
REMARK  10 active torsions:
REMARK  status: ('A' for Active; 'I' for Inactive)
REMARK    1  A    between atoms: C_1  and  C_2
REMARK    2  A    between atoms: C_2  and  C_3
REMARK    3  A    between atoms: C_2  and  C_14
REMARK    4  A    between atoms: C_3  and  O_5
REMARK    5  A    between atoms: O_5  and  C_6
REMARK    6  A    between atoms: C_6  and  C_7
REMARK    7  A    between atoms: C_7  and  C_8
REMARK    8  A    between atoms: C_8  and  SE_9
REMARK    9  A    between atoms: SE_9  and  C_10
REMARK   10  A    between atoms: C_17  and  C_18
REMARK                            x       y       z     vdW  Elec       q    Type
REMARK                         _______ _______ _______ _____ _____    ______ ____
ROOT
ATOM      1  C   UNL     1       5.227   6.685  16.756  0.00  0.00    +0.000 C 
ATOM      2  C   UNL     1       4.110   5.963  17.517  0.00  0.00    +0.000 C 
ENDROOT
BRANCH   2   3
ATOM      3  C   UNL     1       3.165   6.949  18.179  0.00  0.00    +0.000 A 
ATOM      4  C   UNL     1       2.883   8.191  17.588  0.00  0.00    +0.000 A 
ATOM      5  C   UNL     1       2.020   9.091  18.206  0.00  0.00    +0.000 A 
ATOM      6  C   UNL     1       1.421   8.796  19.448  0.00  0.00    +0.000 A 
ATOM      7  C   UNL     1       1.714   7.547  20.045  0.00  0.00    +0.000 A 
ATOM      8  F   UNL     1       1.155   7.167  21.220  0.00  0.00    +0.000 F 
ATOM      9  C   UNL     1       2.566   6.637  19.408  0.00  0.00    +0.000 A 
BRANCH   6  10
ATOM     10  C   UNL     1       0.514   9.806  20.089  0.00  0.00    +0.000 A 
ATOM     11  C   UNL     1      -0.501  10.437  19.333  0.00  0.00    +0.000 A 
ATOM     12  C   UNL     1      -1.349  11.384  19.915  0.00  0.00    +0.000 A 
ATOM     13  C   UNL     1      -1.193  11.731  21.254  0.00  0.00    +0.000 A 
ATOM     14  C   UNL     1      -0.194  11.127  22.019  0.00  0.00    +0.000 A 
ATOM     15  C   UNL     1       0.649  10.169  21.448  0.00  0.00    +0.000 A 
ENDBRANCH   6  10
ENDBRANCH   2   3
BRANCH   2  16
ATOM     16  C   UNL     1       4.664   5.018  18.556  0.00  0.00    +0.000 C 
ATOM     17  O   UNL     1       4.981   5.455  19.653  0.00  0.00    +0.000 OA
BRANCH  16  18
ATOM     18  O   UNL     1       4.848   3.704  18.256  0.00  0.00    +0.000 OA
BRANCH  18  19
ATOM     19  C   UNL     1       3.827   2.791  18.053  0.00  0.00    +0.000 C 
BRANCH  19  20
ATOM     20  C   UNL     1       2.641   3.424  17.324  0.00  0.00    +0.000 C 
BRANCH  20  21
ATOM     21  C   UNL     1       1.330   3.295  18.098  0.00  0.00    +0.000 C 
BRANCH  21  22
ATOM     22 SE   UNL     1       1.598   2.036  19.572  0.00  0.00    +0.000 Se
BRANCH  22  23
ATOM     23  C   UNL     1       1.452   3.350  21.016  0.00  0.00    +0.000 C 
ATOM     24  F   UNL     1       2.680   3.903  21.327  0.00  0.00    +0.000 F 
ATOM     25  F   UNL     1       0.598   4.361  20.620  0.00  0.00    +0.000 F 
ATOM     26  F   UNL     1       0.947   2.728  22.141  0.00  0.00    +0.000 F 
ENDBRANCH  22  23
ENDBRANCH  21  22
ENDBRANCH  20  21
ENDBRANCH  19  20
ENDBRANCH  18  19
ENDBRANCH  16  18
ENDBRANCH   2  16
TORSDOF 9
ENDMDL
MODEL 8
REMARK VINA RESULT:      -7.0      3.205      4.322
REMARK  Name = 
REMARK  10 active torsions:
REMARK  status: ('A' for Active; 'I' for Inactive)
REMARK    1  A    between atoms: C_1  and  C_2
REMARK    2  A    between atoms: C_2  and  C_3
REMARK    3  A    between atoms: C_2  and  C_14
REMARK    4  A    between atoms: C_3  and  O_5
REMARK    5  A    between atoms: O_5  and  C_6
REMARK    6  A    between atoms: C_6  and  C_7
REMARK    7  A    between atoms: C_7  and  C_8
REMARK    8  A    between atoms: C_8  and  SE_9
REMARK    9  A    between atoms: SE_9  and  C_10
REMARK   10  A    between atoms: C_17  and  C_18
REMARK                            x       y       z     vdW  Elec       q    Type
REMARK                         _______ _______ _______ _____ _____    ______ ____
ROOT
ATOM      1  C   UNL     1       2.367   4.885  20.985  0.00  0.00    +0.000 C 
ATOM      2  C   UNL     1       2.703   5.386  19.576  0.00  0.00    +0.000 C 
ENDROOT
BRANCH   2   3
ATOM      3  C   UNL     1       2.216   6.808  19.365  0.00  0.00    +0.000 A 
ATOM      4  C   UNL     1       2.373   7.452  18.127  0.00  0.00    +0.000 A 
ATOM      5  C   UNL     1       1.927   8.758  17.945  0.00  0.00    +0.000 A 
ATOM      6  C   UNL     1       1.327   9.480  18.997  0.00  0.00    +0.000 A 
ATOM      7  C   UNL     1       1.177   8.830  20.246  0.00  0.00    +0.000 A 
ATOM      8  F   UNL     1       0.579   9.436  21.300  0.00  0.00    +0.000 F 
ATOM      9  C   UNL     1       1.608   7.509  20.416  0.00  0.00    +0.000 A 
BRANCH   6  10
ATOM     10  C   UNL     1       0.881  10.894  18.763  0.00  0.00    +0.000 A 
ATOM     11  C   UNL     1       1.834  11.932  18.641  0.00  0.00    +0.000 A 
ATOM     12  C   UNL     1       1.434  13.255  18.430  0.00  0.00    +0.000 A 
ATOM     13  C   UNL     1       0.081  13.570  18.351  0.00  0.00    +0.000 A 
ATOM     14  C   UNL     1      -0.878  12.565  18.474  0.00  0.00    +0.000 A 
ATOM     15  C   UNL     1      -0.486  11.237  18.672  0.00  0.00    +0.000 A 
ENDBRANCH   6  10
ENDBRANCH   2   3
BRANCH   2  16
ATOM     16  C   UNL     1       2.119   4.488  18.512  0.00  0.00    +0.000 C 
ATOM     17  O   UNL     1       1.091   3.868  18.751  0.00  0.00    +0.000 OA
BRANCH  16  18
ATOM     18  O   UNL     1       2.754   4.339  17.319  0.00  0.00    +0.000 OA
BRANCH  18  19
ATOM     19  C   UNL     1       3.833   3.499  17.098  0.00  0.00    +0.000 C 
BRANCH  19  20
ATOM     20  C   UNL     1       5.143   4.126  17.577  0.00  0.00    +0.000 C 
BRANCH  20  21
ATOM     21  C   UNL     1       5.825   4.972  16.504  0.00  0.00    +0.000 C 
BRANCH  21  22
ATOM     22 SE   UNL     1       6.280   6.711  17.277  0.00  0.00    +0.000 Se
BRANCH  22  23
ATOM     23  C   UNL     1       7.562   6.040  18.596  0.00  0.00    +0.000 C 
ATOM     24  F   UNL     1       8.208   4.905  18.146  0.00  0.00    +0.000 F 
ATOM     25  F   UNL     1       8.506   7.018  18.844  0.00  0.00    +0.000 F 
ATOM     26  F   UNL     1       6.889   5.736  19.763  0.00  0.00    +0.000 F 
ENDBRANCH  22  23
ENDBRANCH  21  22
ENDBRANCH  20  21
ENDBRANCH  19  20
ENDBRANCH  18  19
ENDBRANCH  16  18
ENDBRANCH   2  16
TORSDOF 9
ENDMDL
MODEL 9
REMARK VINA RESULT:      -6.9      2.989      4.071
REMARK  Name = 
REMARK  10 active torsions:
REMARK  status: ('A' for Active; 'I' for Inactive)
REMARK    1  A    between atoms: C_1  and  C_2
REMARK    2  A    between atoms: C_2  and  C_3
REMARK    3  A    between atoms: C_2  and  C_14
REMARK    4  A    between atoms: C_3  and  O_5
REMARK    5  A    between atoms: O_5  and  C_6
REMARK    6  A    between atoms: C_6  and  C_7
REMARK    7  A    between atoms: C_7  and  C_8
REMARK    8  A    between atoms: C_8  and  SE_9
REMARK    9  A    between atoms: SE_9  and  C_10
REMARK   10  A    between atoms: C_17  and  C_18
REMARK                            x       y       z     vdW  Elec       q    Type
REMARK                         _______ _______ _______ _____ _____    ______ ____
ROOT
ATOM      1  C   UNL     1       2.487   3.583  17.695  0.00  0.00    +0.000 C 
ATOM      2  C   UNL     1       2.948   4.132  19.050  0.00  0.00    +0.000 C 
ENDROOT
BRANCH   2   3
ATOM      3  C   UNL     1       2.480   5.561  19.254  0.00  0.00    +0.000 A 
ATOM      4  C   UNL     1       1.962   5.985  20.488  0.00  0.00    +0.000 A 
ATOM      5  C   UNL     1       1.531   7.297  20.664  0.00  0.00    +0.000 A 
ATOM      6  C   UNL     1       1.581   8.232  19.608  0.00  0.00    +0.000 A 
ATOM      7  C   UNL     1       2.097   7.798  18.363  0.00  0.00    +0.000 A 
ATOM      8  F   UNL     1       2.214   8.638  17.306  0.00  0.00    +0.000 F 
ATOM      9  C   UNL     1       2.548   6.483  18.199  0.00  0.00    +0.000 A 
BRANCH   6  10
ATOM     10  C   UNL     1       1.085   9.630  19.835  0.00  0.00    +0.000 A 
ATOM     11  C   UNL     1       0.702  10.051  21.130  0.00  0.00    +0.000 A 
ATOM     12  C   UNL     1       0.231  11.347  21.355  0.00  0.00    +0.000 A 
ATOM     13  C   UNL     1       0.119  12.243  20.296  0.00  0.00    +0.000 A 
ATOM     14  C   UNL     1       0.485  11.850  19.008  0.00  0.00    +0.000 A 
ATOM     15  C   UNL     1       0.969  10.558  18.776  0.00  0.00    +0.000 A 
ENDBRANCH   6  10
ENDBRANCH   2   3
BRANCH   2  16
ATOM     16  C   UNL     1       4.449   4.065  19.197  0.00  0.00    +0.000 C 
ATOM     17  O   UNL     1       4.957   3.074  19.704  0.00  0.00    +0.000 OA
BRANCH  16  18
ATOM     18  O   UNL     1       5.221   5.114  18.808  0.00  0.00    +0.000 OA
BRANCH  18  19
ATOM     19  C   UNL     1       6.443   5.446  19.368  0.00  0.00    +0.000 C 
BRANCH  19  20
ATOM     20  C   UNL     1       7.520   5.634  18.299  0.00  0.00    +0.000 C 
BRANCH  20  21
ATOM     21  C   UNL     1       7.619   4.450  17.339  0.00  0.00    +0.000 C 
BRANCH  21  22
ATOM     22 SE   UNL     1       7.302   5.096  15.519  0.00  0.00    +0.000 Se
BRANCH  22  23
ATOM     23  C   UNL     1       5.462   4.447  15.370  0.00  0.00    +0.000 C 
ATOM     24  F   UNL     1       4.554   5.382  15.829  0.00  0.00    +0.000 F 
ATOM     25  F   UNL     1       5.186   4.175  14.044  0.00  0.00    +0.000 F 
ATOM     26  F   UNL     1       5.329   3.293  16.119  0.00  0.00    +0.000 F 
ENDBRANCH  22  23
ENDBRANCH  21  22
ENDBRANCH  20  21
ENDBRANCH  19  20
ENDBRANCH  18  19
ENDBRANCH  16  18
ENDBRANCH   2  16
TORSDOF 9
ENDMDL
