MODEL 1
REMARK VINA RESULT:      -8.1      0.000      0.000
REMARK  Name = 
REMARK  5 active torsions:
REMARK  status: ('A' for Active; 'I' for Inactive)
REMARK    1  A    between atoms: C_1  and  O_2
REMARK    2  A    between atoms: O_2  and  C_3
REMARK    3  A    between atoms: C_9  and  C_10
REMARK    4  A    between atoms: C_16  and  C_17
REMARK    5  A    between atoms: C_19  and  C_20
REMARK                            x       y       z     vdW  Elec       q    Type
REMARK                         _______ _______ _______ _____ _____    ______ ____
ROOT
ATOM      1  C   UNL     1       3.232   3.896  17.254  0.00  0.00    +0.000 C 
ATOM      2  O   UNL     1       2.585   3.113  16.549  0.00  0.00    +0.000 OA
ATOM      3  N   UNL     1       4.426   4.458  16.782  0.00  0.00    +0.000 N 
ATOM      4  C   UNL     1       4.732   4.293  15.359  0.00  0.00    +0.000 C 
ATOM      5  C   UNL     1       6.219   4.034  15.135  0.00  0.00    +0.000 C 
ATOM      6  C   UNL     1       7.063   5.156  15.724  0.00  0.00    +0.000 C 
ATOM      7  C   UNL     1       6.738   5.369  17.213  0.00  0.00    +0.000 C 
ATOM      8  C   UNL     1       5.221   5.472  17.464  0.00  0.00    +0.000 C 
ENDROOT
BRANCH   1  15
ATOM      9  C   UNL     1       2.646   3.146  19.681  0.00  0.00    +0.000 A 
ATOM     10  C   UNL     1       2.237   3.547  20.967  0.00  0.00    +0.000 A 
ATOM     11  C   UNL     1       1.878   4.868  21.231  0.00  0.00    +0.000 A 
ATOM     12  C   UNL     1       1.931   5.806  20.210  0.00  0.00    +0.000 A 
ATOM     13 CL   UNL     1       1.543   7.448  20.544  0.00  0.00    +0.000 Cl
ATOM     14  C   UNL     1       2.328   5.426  18.930  0.00  0.00    +0.000 A 
ATOM     15  C   UNL     1       2.693   4.094  18.640  0.00  0.00    +0.000 A 
BRANCH   9  17
ATOM     16  C   UNL     1       4.480   1.660  19.732  0.00  0.00    +0.000 C 
ATOM     17  O   UNL     1       3.086   1.865  19.472  0.00  0.00    +0.000 OA
ENDBRANCH   9  17
ENDBRANCH   1  15
BRANCH   7  18
ATOM     18  C   UNL     1       7.438   6.575  17.780  0.00  0.00    +0.000 A 
ATOM     19  C   UNL     1       7.471   7.884  17.249  0.00  0.00    +0.000 A 
ATOM     20  C   UNL     1       8.273   8.599  18.110  0.00  0.00    +0.000 A 
ATOM     21  C   UNL     1       8.706  10.012  18.122  0.00  0.00    +0.000 C 
ATOM     22  N   UNL     1       8.658   7.715  19.077  0.00  0.00    +0.000 N 
ATOM     23  N   UNL     1       8.182   6.477  18.890  0.00  0.00    +0.000 NA
ATOM     24  H   UNL     1       9.249   7.884  19.885  0.00  0.00    +0.000 HD
ENDBRANCH   7  18
TORSDOF 3
ENDMDL
MODEL 2
REMARK VINA RESULT:      -7.7      1.559      2.345
REMARK  Name = 
REMARK  5 active torsions:
REMARK  status: ('A' for Active; 'I' for Inactive)
REMARK    1  A    between atoms: C_1  and  O_2
REMARK    2  A    between atoms: O_2  and  C_3
REMARK    3  A    between atoms: C_9  and  C_10
REMARK    4  A    between atoms: C_16  and  C_17
REMARK    5  A    between atoms: C_19  and  C_20
REMARK                            x       y       z     vdW  Elec       q    Type
REMARK                         _______ _______ _______ _____ _____    ______ ____
ROOT
ATOM      1  C   UNL     1       3.363   4.030  17.370  0.00  0.00    +0.000 C 
ATOM      2  O   UNL     1       2.743   3.196  16.700  0.00  0.00    +0.000 OA
ATOM      3  N   UNL     1       4.572   4.560  16.903  0.00  0.00    +0.000 N 
ATOM      4  C   UNL     1       4.932   4.294  15.508  0.00  0.00    +0.000 C 
ATOM      5  C   UNL     1       6.426   4.024  15.359  0.00  0.00    +0.000 C 
ATOM      6  C   UNL     1       7.247   5.189  15.896  0.00  0.00    +0.000 C 
ATOM      7  C   UNL     1       6.866   5.509  17.353  0.00  0.00    +0.000 C 
ATOM      8  C   UNL     1       5.340   5.625  17.538  0.00  0.00    +0.000 C 
ENDROOT
BRANCH   1  15
ATOM      9  C   UNL     1       2.174   5.528  19.140  0.00  0.00    +0.000 A 
ATOM     10  C   UNL     1       1.540   5.583  20.397  0.00  0.00    +0.000 A 
ATOM     11  C   UNL     1       1.492   4.466  21.230  0.00  0.00    +0.000 A 
ATOM     12  C   UNL     1       2.073   3.278  20.812  0.00  0.00    +0.000 A 
ATOM     13 CL   UNL     1       1.968   1.883  21.813  0.00  0.00    +0.000 Cl
ATOM     14  C   UNL     1       2.710   3.207  19.576  0.00  0.00    +0.000 A 
ATOM     15  C   UNL     1       2.772   4.326  18.716  0.00  0.00    +0.000 A 
BRANCH   9  17
ATOM     16  C   UNL     1       2.237   7.880  18.952  0.00  0.00    +0.000 C 
ATOM     17  O   UNL     1       2.121   6.610  18.301  0.00  0.00    +0.000 OA
ENDBRANCH   9  17
ENDBRANCH   1  15
BRANCH   7  18
ATOM     18  C   UNL     1       7.543   6.755  17.856  0.00  0.00    +0.000 A 
ATOM     19  C   UNL     1       7.534   8.040  17.269  0.00  0.00    +0.000 A 
ATOM     20  C   UNL     1       8.330   8.812  18.086  0.00  0.00    +0.000 A 
ATOM     21  C   UNL     1       8.727  10.235  18.031  0.00  0.00    +0.000 C 
ATOM     22  N   UNL     1       8.752   7.981  19.084  0.00  0.00    +0.000 N 
ATOM     23  N   UNL     1       8.306   6.724  18.957  0.00  0.00    +0.000 NA
ATOM     24  H   UNL     1       9.350   8.199  19.874  0.00  0.00    +0.000 HD
ENDBRANCH   7  18
TORSDOF 3
ENDMDL
MODEL 3
REMARK VINA RESULT:      -7.6      3.415      5.970
REMARK  Name = 
REMARK  5 active torsions:
REMARK  status: ('A' for Active; 'I' for Inactive)
REMARK    1  A    between atoms: C_1  and  O_2
REMARK    2  A    between atoms: O_2  and  C_3
REMARK    3  A    between atoms: C_9  and  C_10
REMARK    4  A    between atoms: C_16  and  C_17
REMARK    5  A    between atoms: C_19  and  C_20
REMARK                            x       y       z     vdW  Elec       q    Type
REMARK                         _______ _______ _______ _____ _____    ______ ____
ROOT
ATOM      1  C   UNL     1       4.774   4.013  18.712  0.00  0.00    +0.000 C 
ATOM      2  O   UNL     1       4.966   2.890  19.192  0.00  0.00    +0.000 OA
ATOM      3  N   UNL     1       3.771   4.844  19.227  0.00  0.00    +0.000 N 
ATOM      4  C   UNL     1       3.151   4.448  20.495  0.00  0.00    +0.000 C 
ATOM      5  C   UNL     1       1.651   4.725  20.493  0.00  0.00    +0.000 C 
ATOM      6  C   UNL     1       1.368   6.195  20.211  0.00  0.00    +0.000 C 
ATOM      7  C   UNL     1       2.035   6.644  18.899  0.00  0.00    +0.000 C 
ATOM      8  C   UNL     1       3.515   6.224  18.829  0.00  0.00    +0.000 C 
ENDROOT
BRANCH   1  15
ATOM      9  C   UNL     1       6.967   4.723  17.495  0.00  0.00    +0.000 A 
ATOM     10  C   UNL     1       7.636   4.854  16.263  0.00  0.00    +0.000 A 
ATOM     11  C   UNL     1       6.981   4.611  15.057  0.00  0.00    +0.000 A 
ATOM     12  C   UNL     1       5.648   4.228  15.069  0.00  0.00    +0.000 A 
ATOM     13 CL   UNL     1       4.852   3.874  13.587  0.00  0.00    +0.000 Cl
ATOM     14  C   UNL     1       4.968   4.099  16.278  0.00  0.00    +0.000 A 
ATOM     15  C   UNL     1       5.612   4.342  17.512  0.00  0.00    +0.000 A 
BRANCH   9  17
ATOM     16  C   UNL     1       7.957   6.227  19.021  0.00  0.00    +0.000 C 
ATOM     17  O   UNL     1       7.660   4.871  18.668  0.00  0.00    +0.000 OA
ENDBRANCH   9  17
ENDBRANCH   1  15
BRANCH   7  18
ATOM     18  C   UNL     1       1.908   8.128  18.677  0.00  0.00    +0.000 A 
ATOM     19  C   UNL     1       1.324   9.083  19.539  0.00  0.00    +0.000 A 
ATOM     20  C   UNL     1       1.420  10.279  18.865  0.00  0.00    +0.000 A 
ATOM     21  C   UNL     1       1.002  11.653  19.213  0.00  0.00    +0.000 C 
ATOM     22  N   UNL     1       2.038   9.989  17.682  0.00  0.00    +0.000 N 
ATOM     23  N   UNL     1       2.326   8.688  17.535  0.00  0.00    +0.000 NA
ATOM     24  H   UNL     1       2.285  10.622  16.928  0.00  0.00    +0.000 HD
ENDBRANCH   7  18
TORSDOF 3
ENDMDL
MODEL 4
REMARK VINA RESULT:      -7.3      1.010      1.063
REMARK  Name = 
REMARK  5 active torsions:
REMARK  status: ('A' for Active; 'I' for Inactive)
REMARK    1  A    between atoms: C_1  and  O_2
REMARK    2  A    between atoms: O_2  and  C_3
REMARK    3  A    between atoms: C_9  and  C_10
REMARK    4  A    between atoms: C_16  and  C_17
REMARK    5  A    between atoms: C_19  and  C_20
REMARK                            x       y       z     vdW  Elec       q    Type
REMARK                         _______ _______ _______ _____ _____    ______ ____
ROOT
ATOM      1  C   UNL     1       3.446   4.063  17.419  0.00  0.00    +0.000 C 
ATOM      2  O   UNL     1       2.916   3.086  16.878  0.00  0.00    +0.000 OA
ATOM      3  N   UNL     1       4.627   4.609  16.902  0.00  0.00    +0.000 N 
ATOM      4  C   UNL     1       5.056   4.155  15.576  0.00  0.00    +0.000 C 
ATOM      5  C   UNL     1       6.571   3.987  15.507  0.00  0.00    +0.000 C 
ATOM      6  C   UNL     1       7.281   5.285  15.870  0.00  0.00    +0.000 C 
ATOM      7  C   UNL     1       6.824   5.799  17.247  0.00  0.00    +0.000 C 
ATOM      8  C   UNL     1       5.289   5.819  17.376  0.00  0.00    +0.000 C 
ENDROOT
BRANCH   1  15
ATOM      9  C   UNL     1       2.577   3.767  19.859  0.00  0.00    +0.000 A 
ATOM     10  C   UNL     1       2.068   4.401  21.009  0.00  0.00    +0.000 A 
ATOM     11  C   UNL     1       1.769   5.762  21.009  0.00  0.00    +0.000 A 
ATOM     12  C   UNL     1       1.980   6.508  19.859  0.00  0.00    +0.000 A 
ATOM     13 CL   UNL     1       1.664   8.198  19.872  0.00  0.00    +0.000 Cl
ATOM     14  C   UNL     1       2.477   5.897  18.710  0.00  0.00    +0.000 A 
ATOM     15  C   UNL     1       2.786   4.519  18.687  0.00  0.00    +0.000 A 
BRANCH   9  17
ATOM     16  C   UNL     1       4.341   2.237  20.206  0.00  0.00    +0.000 C 
ATOM     17  O   UNL     1       2.955   2.451  19.915  0.00  0.00    +0.000 OA
ENDBRANCH   9  17
ENDBRANCH   1  15
BRANCH   7  18
ATOM     18  C   UNL     1       7.386   7.160  17.560  0.00  0.00    +0.000 A 
ATOM     19  C   UNL     1       8.324   7.497  18.562  0.00  0.00    +0.000 A 
ATOM     20  C   UNL     1       8.474   8.862  18.465  0.00  0.00    +0.000 A 
ATOM     21  C   UNL     1       9.303   9.827  19.219  0.00  0.00    +0.000 C 
ATOM     22  N   UNL     1       7.654   9.254  17.447  0.00  0.00    +0.000 N 
ATOM     23  N   UNL     1       6.968   8.244  16.894  0.00  0.00    +0.000 NA
ATOM     24  H   UNL     1       7.505  10.189  17.082  0.00  0.00    +0.000 HD
ENDBRANCH   7  18
TORSDOF 3
ENDMDL
MODEL 5
REMARK VINA RESULT:      -7.3      3.223      6.099
REMARK  Name = 
REMARK  5 active torsions:
REMARK  status: ('A' for Active; 'I' for Inactive)
REMARK    1  A    between atoms: C_1  and  O_2
REMARK    2  A    between atoms: O_2  and  C_3
REMARK    3  A    between atoms: C_9  and  C_10
REMARK    4  A    between atoms: C_16  and  C_17
REMARK    5  A    between atoms: C_19  and  C_20
REMARK                            x       y       z     vdW  Elec       q    Type
REMARK                         _______ _______ _______ _____ _____    ______ ____
ROOT
ATOM      1  C   UNL     1       4.483   3.386  18.743  0.00  0.00    +0.000 C 
ATOM      2  O   UNL     1       4.672   2.168  18.826  0.00  0.00    +0.000 OA
ATOM      3  N   UNL     1       3.446   3.995  19.462  0.00  0.00    +0.000 N 
ATOM      4  C   UNL     1       2.780   3.195  20.493  0.00  0.00    +0.000 C 
ATOM      5  C   UNL     1       1.277   3.456  20.517  0.00  0.00    +0.000 C 
ATOM      6  C   UNL     1       0.984   4.936  20.733  0.00  0.00    +0.000 C 
ATOM      7  C   UNL     1       1.698   5.801  19.679  0.00  0.00    +0.000 C 
ATOM      8  C   UNL     1       3.186   5.428  19.539  0.00  0.00    +0.000 C 
ENDROOT
BRANCH   1  15
ATOM      9  C   UNL     1       6.508   4.872  18.046  0.00  0.00    +0.000 A 
ATOM     10  C   UNL     1       7.302   5.352  16.986  0.00  0.00    +0.000 A 
ATOM     11  C   UNL     1       6.979   5.074  15.659  0.00  0.00    +0.000 A 
ATOM     12  C   UNL     1       5.859   4.307  15.376  0.00  0.00    +0.000 A 
ATOM     13 CL   UNL     1       5.487   3.916  13.743  0.00  0.00    +0.000 Cl
ATOM     14  C   UNL     1       5.058   3.829  16.410  0.00  0.00    +0.000 A 
ATOM     15  C   UNL     1       5.365   4.099  17.762  0.00  0.00    +0.000 A 
BRANCH   9  17
ATOM     16  C   UNL     1       8.119   5.818  19.489  0.00  0.00    +0.000 C 
ATOM     17  O   UNL     1       6.902   5.076  19.342  0.00  0.00    +0.000 OA
ENDBRANCH   9  17
ENDBRANCH   1  15
BRANCH   7  18
ATOM     18  C   UNL     1       1.558   7.272  19.963  0.00  0.00    +0.000 A 
ATOM     19  C   UNL     1       1.026   7.881  21.122  0.00  0.00    +0.000 A 
ATOM     20  C   UNL     1       1.082   9.234  20.873  0.00  0.00    +0.000 A 
ATOM     21  C   UNL     1       0.684  10.410  21.674  0.00  0.00    +0.000 C 
ATOM     22  N   UNL     1       1.628   9.359  19.627  0.00  0.00    +0.000 N 
ATOM     23  N   UNL     1       1.907   8.184  19.046  0.00  0.00    +0.000 NA
ATOM     24  H   UNL     1       1.830  10.208  19.110  0.00  0.00    +0.000 HD
ENDBRANCH   7  18
TORSDOF 3
ENDMDL
MODEL 6
REMARK VINA RESULT:      -7.2      1.064      1.221
REMARK  Name = 
REMARK  5 active torsions:
REMARK  status: ('A' for Active; 'I' for Inactive)
REMARK    1  A    between atoms: C_1  and  O_2
REMARK    2  A    between atoms: O_2  and  C_3
REMARK    3  A    between atoms: C_9  and  C_10
REMARK    4  A    between atoms: C_16  and  C_17
REMARK    5  A    between atoms: C_19  and  C_20
REMARK                            x       y       z     vdW  Elec       q    Type
REMARK                         _______ _______ _______ _____ _____    ______ ____
ROOT
ATOM      1  C   UNL     1       3.357   4.643  17.468  0.00  0.00    +0.000 C 
ATOM      2  O   UNL     1       2.756   3.749  16.862  0.00  0.00    +0.000 OA
ATOM      3  N   UNL     1       4.651   5.017  17.083  0.00  0.00    +0.000 N 
ATOM      4  C   UNL     1       5.148   4.506  15.802  0.00  0.00    +0.000 C 
ATOM      5  C   UNL     1       6.624   4.127  15.889  0.00  0.00    +0.000 C 
ATOM      6  C   UNL     1       7.466   5.314  16.339  0.00  0.00    +0.000 C 
ATOM      7  C   UNL     1       6.944   5.890  17.668  0.00  0.00    +0.000 C 
ATOM      8  C   UNL     1       5.422   6.124  17.638  0.00  0.00    +0.000 C 
ENDROOT
BRANCH   1  15
ATOM      9  C   UNL     1       2.405   4.537  19.892  0.00  0.00    +0.000 A 
ATOM     10  C   UNL     1       1.838   5.255  20.963  0.00  0.00    +0.000 A 
ATOM     11  C   UNL     1       1.505   6.602  20.833  0.00  0.00    +0.000 A 
ATOM     12  C   UNL     1       1.741   7.250  19.629  0.00  0.00    +0.000 A 
ATOM     13 CL   UNL     1       1.383   8.926  19.482  0.00  0.00    +0.000 Cl
ATOM     14  C   UNL     1       2.296   6.555  18.557  0.00  0.00    +0.000 A 
ATOM     15  C   UNL     1       2.639   5.190  18.666  0.00  0.00    +0.000 A 
BRANCH   9  17
ATOM     16  C   UNL     1       2.363   2.640  21.296  0.00  0.00    +0.000 C 
ATOM     17  O   UNL     1       2.813   3.242  20.077  0.00  0.00    +0.000 OA
ENDBRANCH   9  17
ENDBRANCH   1  15
BRANCH   7  18
ATOM     18  C   UNL     1       7.655   7.159  18.054  0.00  0.00    +0.000 A 
ATOM     19  C   UNL     1       7.580   8.418  17.418  0.00  0.00    +0.000 A 
ATOM     20  C   UNL     1       8.441   9.227  18.124  0.00  0.00    +0.000 A 
ATOM     21  C   UNL     1       8.819  10.648  17.974  0.00  0.00    +0.000 C 
ATOM     22  N   UNL     1       8.963   8.441  19.111  0.00  0.00    +0.000 N 
ATOM     23  N   UNL     1       8.518   7.177  19.078  0.00  0.00    +0.000 NA
ATOM     24  H   UNL     1       9.630   8.694  19.832  0.00  0.00    +0.000 HD
ENDBRANCH   7  18
TORSDOF 3
ENDMDL
MODEL 7
REMARK VINA RESULT:      -6.9      5.649      8.234
REMARK  Name = 
REMARK  5 active torsions:
REMARK  status: ('A' for Active; 'I' for Inactive)
REMARK    1  A    between atoms: C_1  and  O_2
REMARK    2  A    between atoms: O_2  and  C_3
REMARK    3  A    between atoms: C_9  and  C_10
REMARK    4  A    between atoms: C_16  and  C_17
REMARK    5  A    between atoms: C_19  and  C_20
REMARK                            x       y       z     vdW  Elec       q    Type
REMARK                         _______ _______ _______ _____ _____    ______ ____
ROOT
ATOM      1  C   UNL     1       1.546   8.370  20.903  0.00  0.00    +0.000 C 
ATOM      2  O   UNL     1       2.137   8.388  21.989  0.00  0.00    +0.000 OA
ATOM      3  N   UNL     1       0.702   9.426  20.537  0.00  0.00    +0.000 N 
ATOM      4  C   UNL     1       0.752  10.644  21.351  0.00  0.00    +0.000 C 
ATOM      5  C   UNL     1      -0.638  11.242  21.544  0.00  0.00    +0.000 C 
ATOM      6  C   UNL     1      -1.297  11.538  20.203  0.00  0.00    +0.000 C 
ATOM      7  C   UNL     1      -1.334  10.281  19.316  0.00  0.00    +0.000 C 
ATOM      8  C   UNL     1       0.038   9.582  19.248  0.00  0.00    +0.000 C 
ENDROOT
BRANCH   1  15
ATOM      9  C   UNL     1       2.355   6.991  18.845  0.00  0.00    +0.000 A 
ATOM     10  C   UNL     1       2.569   5.710  18.301  0.00  0.00    +0.000 A 
ATOM     11  C   UNL     1       2.175   4.561  18.985  0.00  0.00    +0.000 A 
ATOM     12  C   UNL     1       1.567   4.680  20.226  0.00  0.00    +0.000 A 
ATOM     13 CL   UNL     1       1.130   3.263  21.097  0.00  0.00    +0.000 Cl
ATOM     14  C   UNL     1       1.342   5.939  20.777  0.00  0.00    +0.000 A 
ATOM     15  C   UNL     1       1.731   7.116  20.101  0.00  0.00    +0.000 A 
BRANCH   9  17
ATOM     16  C   UNL     1       3.880   7.831  17.251  0.00  0.00    +0.000 C 
ATOM     17  O   UNL     1       2.840   8.098  18.199  0.00  0.00    +0.000 OA
ENDBRANCH   9  17
ENDBRANCH   1  15
BRANCH   7  18
ATOM     18  C   UNL     1      -1.831  10.579  17.928  0.00  0.00    +0.000 A 
ATOM     19  C   UNL     1      -2.334   9.665  16.975  0.00  0.00    +0.000 A 
ATOM     20  C   UNL     1      -2.611  10.424  15.861  0.00  0.00    +0.000 A 
ATOM     21  C   UNL     1      -3.155  10.078  14.531  0.00  0.00    +0.000 C 
ATOM     22  N   UNL     1      -2.275  11.706  16.194  0.00  0.00    +0.000 N 
ATOM     23  N   UNL     1      -1.781  11.824  17.434  0.00  0.00    +0.000 NA
ATOM     24  H   UNL     1      -2.347  12.544  15.626  0.00  0.00    +0.000 HD
ENDBRANCH   7  18
TORSDOF 3
ENDMDL
MODEL 8
REMARK VINA RESULT:      -6.9      4.429      6.867
REMARK  Name = 
REMARK  5 active torsions:
REMARK  status: ('A' for Active; 'I' for Inactive)
REMARK    1  A    between atoms: C_1  and  O_2
REMARK    2  A    between atoms: O_2  and  C_3
REMARK    3  A    between atoms: C_9  and  C_10
REMARK    4  A    between atoms: C_16  and  C_17
REMARK    5  A    between atoms: C_19  and  C_20
REMARK                            x       y       z     vdW  Elec       q    Type
REMARK                         _______ _______ _______ _____ _____    ______ ____
ROOT
ATOM      1  C   UNL     1       2.040   9.348  17.959  0.00  0.00    +0.000 C 
ATOM      2  O   UNL     1       2.659  10.275  17.424  0.00  0.00    +0.000 OA
ATOM      3  N   UNL     1       2.596   8.065  18.023  0.00  0.00    +0.000 N 
ATOM      4  C   UNL     1       4.014   7.926  17.677  0.00  0.00    +0.000 C 
ATOM      5  C   UNL     1       4.272   6.648  16.885  0.00  0.00    +0.000 C 
ATOM      6  C   UNL     1       3.800   5.423  17.658  0.00  0.00    +0.000 C 
ATOM      7  C   UNL     1       2.321   5.558  18.060  0.00  0.00    +0.000 C 
ATOM      8  C   UNL     1       2.023   6.918  18.719  0.00  0.00    +0.000 C 
ENDROOT
BRANCH   1  15
ATOM      9  C   UNL     1       0.266  10.156  19.690  0.00  0.00    +0.000 A 
ATOM     10  C   UNL     1      -1.062  10.570  19.904  0.00  0.00    +0.000 A 
ATOM     11  C   UNL     1      -2.003  10.534  18.876  0.00  0.00    +0.000 A 
ATOM     12  C   UNL     1      -1.623  10.088  17.618  0.00  0.00    +0.000 A 
ATOM     13 CL   UNL     1      -2.766  10.094  16.333  0.00  0.00    +0.000 Cl
ATOM     14  C   UNL     1      -0.315   9.668  17.391  0.00  0.00    +0.000 A 
ATOM     15  C   UNL     1       0.654   9.694  18.418  0.00  0.00    +0.000 A 
BRANCH   9  17
ATOM     16  C   UNL     1       1.153   9.270  21.691  0.00  0.00    +0.000 C 
ATOM     17  O   UNL     1       1.194  10.293  20.690  0.00  0.00    +0.000 OA
ENDBRANCH   9  17
ENDBRANCH   1  15
BRANCH   7  18
ATOM     18  C   UNL     1       1.873   4.439  18.960  0.00  0.00    +0.000 A 
ATOM     19  C   UNL     1       2.062   4.325  20.356  0.00  0.00    +0.000 A 
ATOM     20  C   UNL     1       1.511   3.110  20.694  0.00  0.00    +0.000 A 
ATOM     21  C   UNL     1       1.381   2.401  21.985  0.00  0.00    +0.000 C 
ATOM     22  N   UNL     1       1.034   2.582  19.528  0.00  0.00    +0.000 N 
ATOM     23  N   UNL     1       1.259   3.358  18.459  0.00  0.00    +0.000 NA
ATOM     24  H   UNL     1       0.556   1.699  19.386  0.00  0.00    +0.000 HD
ENDBRANCH   7  18
TORSDOF 3
ENDMDL
MODEL 9
REMARK VINA RESULT:      -6.7      4.241      6.077
REMARK  Name = 
REMARK  5 active torsions:
REMARK  status: ('A' for Active; 'I' for Inactive)
REMARK    1  A    between atoms: C_1  and  O_2
REMARK    2  A    between atoms: O_2  and  C_3
REMARK    3  A    between atoms: C_9  and  C_10
REMARK    4  A    between atoms: C_16  and  C_17
REMARK    5  A    between atoms: C_19  and  C_20
REMARK                            x       y       z     vdW  Elec       q    Type
REMARK                         _______ _______ _______ _____ _____    ______ ____
ROOT
ATOM      1  C   UNL     1       2.024   5.808  20.213  0.00  0.00    +0.000 C 
ATOM      2  O   UNL     1       1.652   4.927  20.997  0.00  0.00    +0.000 OA
ATOM      3  N   UNL     1       1.589   7.130  20.371  0.00  0.00    +0.000 N 
ATOM      4  C   UNL     1       0.905   7.471  21.622  0.00  0.00    +0.000 C 
ATOM      5  C   UNL     1      -0.257   8.428  21.379  0.00  0.00    +0.000 C 
ATOM      6  C   UNL     1       0.217   9.696  20.681  0.00  0.00    +0.000 C 
ATOM      7  C   UNL     1       0.965   9.364  19.378  0.00  0.00    +0.000 C 
ATOM      8  C   UNL     1       2.037   8.277  19.589  0.00  0.00    +0.000 C 
ENDROOT
BRANCH   1  15
ATOM      9  C   UNL     1       2.465   4.485  18.012  0.00  0.00    +0.000 A 
ATOM     10  C   UNL     1       3.349   4.247  16.942  0.00  0.00    +0.000 A 
ATOM     11  C   UNL     1       4.614   4.831  16.908  0.00  0.00    +0.000 A 
ATOM     12  C   UNL     1       5.009   5.665  17.944  0.00  0.00    +0.000 A 
ATOM     13 CL   UNL     1       6.547   6.431  17.879  0.00  0.00    +0.000 Cl
ATOM     14  C   UNL     1       4.150   5.906  19.014  0.00  0.00    +0.000 A 
ATOM     15  C   UNL     1       2.865   5.324  19.069  0.00  0.00    +0.000 A 
BRANCH   9  17
ATOM     16  C   UNL     1       1.049   2.670  18.538  0.00  0.00    +0.000 C 
ATOM     17  O   UNL     1       1.192   3.978  17.972  0.00  0.00    +0.000 OA
ENDBRANCH   9  17
ENDBRANCH   1  15
BRANCH   7  18
ATOM     18  C   UNL     1       1.584  10.584  18.751  0.00  0.00    +0.000 A 
ATOM     19  C   UNL     1       1.499  11.922  19.199  0.00  0.00    +0.000 A 
ATOM     20  C   UNL     1       2.193  12.656  18.264  0.00  0.00    +0.000 A 
ATOM     21  C   UNL     1       2.478  14.102  18.147  0.00  0.00    +0.000 C 
ATOM     22  N   UNL     1       2.643  11.753  17.344  0.00  0.00    +0.000 N 
ATOM     23  N   UNL     1       2.271  10.493  17.605  0.00  0.00    +0.000 NA
ATOM     24  H   UNL     1       3.199  11.925  16.512  0.00  0.00    +0.000 HD
ENDBRANCH   7  18
TORSDOF 3
ENDMDL
