MODEL 1
REMARK VINA RESULT:      -7.5      0.000      0.000
REMARK  Name = 
REMARK  3 active torsions:
REMARK  status: ('A' for Active; 'I' for Inactive)
REMARK    1  A    between atoms: C_2  and  C_3
REMARK    2  A    between atoms: N_16  and  C_17
REMARK    3  A    between atoms: C_17  and  C_18
REMARK                            x       y       z     vdW  Elec       q    Type
REMARK                         _______ _______ _______ _____ _____    ______ ____
ROOT
ATOM      1  O   UNL     1       1.860   6.090  20.961  0.00  0.00    +0.000 OA
ATOM      2  C   UNL     1       2.051   6.723  19.924  0.00  0.00    +0.000 C 
ATOM      3  N   UNL     1       1.647   8.052  19.757  0.00  0.00    +0.000 N 
ATOM      4  C   UNL     1       1.814   8.831  18.534  0.00  0.00    +0.000 C 
ATOM      5  C   UNL     1       0.590   9.665  18.214  0.00  0.00    +0.000 C 
ATOM      6  C   UNL     1       0.166  10.577  19.381  0.00  0.00    +0.000 C 
ATOM      7  C   UNL     1       1.219  11.664  19.697  0.00  0.00    +0.000 C 
ATOM      8  C   UNL     1       1.333  12.711  18.586  0.00  0.00    +0.000 C 
ATOM      9  N   UNL     1       0.055  13.354  18.249  0.00  0.00    +0.000 NA
ATOM     10  C   UNL     1      -0.950  12.340  17.894  0.00  0.00    +0.000 C 
ATOM     11  C   UNL     1      -1.161  11.270  18.982  0.00  0.00    +0.000 C 
ATOM     12  C   UNL     1      -0.048   9.668  20.617  0.00  0.00    +0.000 C 
ATOM     13  C   UNL     1       1.175   8.797  20.933  0.00  0.00    +0.000 C 
ENDROOT
BRANCH   2  14
ATOM     14  C   UNL     1       2.690   5.997  18.790  0.00  0.00    +0.000 A 
ATOM     15  C   UNL     1       3.899   6.490  18.281  0.00  0.00    +0.000 A 
ATOM     16  C   UNL     1       4.590   5.779  17.295  0.00  0.00    +0.000 A 
ATOM     17  C   UNL     1       4.082   4.567  16.830  0.00  0.00    +0.000 A 
ATOM     18  C   UNL     1       2.858   4.112  17.303  0.00  0.00    +0.000 A 
ATOM     19  F   UNL     1       2.381   2.934  16.882  0.00  0.00    +0.000 F 
ATOM     20  C   UNL     1       2.132   4.842  18.235  0.00  0.00    +0.000 A 
ENDBRANCH   2  14
BRANCH   9  21
ATOM     21  C   UNL     1      -0.456  14.240  19.310  0.00  0.00    +0.000 C 
BRANCH  21  22
ATOM     22  C   UNL     1       0.074  15.650  19.245  0.00  0.00    +0.000 A 
ATOM     23  C   UNL     1      -0.484  16.589  18.373  0.00  0.00    +0.000 A 
ATOM     24  C   UNL     1       0.047  17.868  18.351  0.00  0.00    +0.000 A 
ATOM     25  N   UNL     1       1.076  18.272  19.126  0.00  0.00    +0.000 NA
ATOM     26  C   UNL     1       1.602  17.350  19.960  0.00  0.00    +0.000 A 
ATOM     27  C   UNL     1       1.144  16.046  20.054  0.00  0.00    +0.000 A 
ENDBRANCH  21  22
ENDBRANCH   9  21
TORSDOF 3
ENDMDL
MODEL 2
REMARK VINA RESULT:      -7.4      0.940      1.184
REMARK  Name = 
REMARK  3 active torsions:
REMARK  status: ('A' for Active; 'I' for Inactive)
REMARK    1  A    between atoms: C_2  and  C_3
REMARK    2  A    between atoms: N_16  and  C_17
REMARK    3  A    between atoms: C_17  and  C_18
REMARK                            x       y       z     vdW  Elec       q    Type
REMARK                         _______ _______ _______ _____ _____    ______ ____
ROOT
ATOM      1  O   UNL     1       1.791   5.859  21.004  0.00  0.00    +0.000 OA
ATOM      2  C   UNL     1       2.032   6.569  20.029  0.00  0.00    +0.000 C 
ATOM      3  N   UNL     1       1.661   7.916  19.956  0.00  0.00    +0.000 N 
ATOM      4  C   UNL     1       1.888   8.787  18.808  0.00  0.00    +0.000 C 
ATOM      5  C   UNL     1       0.693   9.671  18.514  0.00  0.00    +0.000 C 
ATOM      6  C   UNL     1       0.245  10.496  19.735  0.00  0.00    +0.000 C 
ATOM      7  C   UNL     1       1.306  11.530  20.174  0.00  0.00    +0.000 C 
ATOM      8  C   UNL     1       1.482  12.660  19.157  0.00  0.00    +0.000 C 
ATOM      9  N   UNL     1       0.230  13.356  18.829  0.00  0.00    +0.000 NA
ATOM     10  C   UNL     1      -0.782  12.398  18.358  0.00  0.00    +0.000 C 
ATOM     11  C   UNL     1      -1.053  11.248  19.347  0.00  0.00    +0.000 C 
ATOM     12  C   UNL     1      -0.032   9.495  20.885  0.00  0.00    +0.000 C 
ATOM     13  C   UNL     1       1.161   8.574  21.172  0.00  0.00    +0.000 C 
ENDROOT
BRANCH   2  14
ATOM     14  C   UNL     1       2.698   5.923  18.863  0.00  0.00    +0.000 A 
ATOM     15  C   UNL     1       3.918   6.448  18.418  0.00  0.00    +0.000 A 
ATOM     16  C   UNL     1       4.633   5.806  17.401  0.00  0.00    +0.000 A 
ATOM     17  C   UNL     1       4.136   4.629  16.843  0.00  0.00    +0.000 A 
ATOM     18  C   UNL     1       2.902   4.144  17.254  0.00  0.00    +0.000 A 
ATOM     19  F   UNL     1       2.436   2.998  16.742  0.00  0.00    +0.000 F 
ATOM     20  C   UNL     1       2.154   4.809  18.217  0.00  0.00    +0.000 A 
ENDBRANCH   2  14
BRANCH   9  21
ATOM     21  C   UNL     1      -0.302  14.166  19.939  0.00  0.00    +0.000 C 
BRANCH  21  22
ATOM     22  C   UNL     1      -0.794  15.530  19.528  0.00  0.00    +0.000 A 
ATOM     23  C   UNL     1      -1.812  16.172  20.237  0.00  0.00    +0.000 A 
ATOM     24  C   UNL     1      -2.228  17.423  19.811  0.00  0.00    +0.000 A 
ATOM     25  N   UNL     1      -1.707  18.069  18.746  0.00  0.00    +0.000 NA
ATOM     26  C   UNL     1      -0.726  17.431  18.073  0.00  0.00    +0.000 A 
ATOM     27  C   UNL     1      -0.243  16.180  18.418  0.00  0.00    +0.000 A 
ENDBRANCH  21  22
ENDBRANCH   9  21
TORSDOF 3
ENDMDL
MODEL 3
REMARK VINA RESULT:      -7.2      4.419      7.593
REMARK  Name = 
REMARK  3 active torsions:
REMARK  status: ('A' for Active; 'I' for Inactive)
REMARK    1  A    between atoms: C_2  and  C_3
REMARK    2  A    between atoms: N_16  and  C_17
REMARK    3  A    between atoms: C_17  and  C_18
REMARK                            x       y       z     vdW  Elec       q    Type
REMARK                         _______ _______ _______ _____ _____    ______ ____
ROOT
ATOM      1  O   UNL     1       8.058   5.311  13.978  0.00  0.00    +0.000 OA
ATOM      2  C   UNL     1       6.910   4.879  14.074  0.00  0.00    +0.000 C 
ATOM      3  N   UNL     1       6.081   5.155  15.165  0.00  0.00    +0.000 N 
ATOM      4  C   UNL     1       4.729   4.634  15.344  0.00  0.00    +0.000 C 
ATOM      5  C   UNL     1       4.467   4.199  16.772  0.00  0.00    +0.000 C 
ATOM      6  C   UNL     1       4.756   5.310  17.799  0.00  0.00    +0.000 C 
ATOM      7  C   UNL     1       3.801   6.516  17.653  0.00  0.00    +0.000 C 
ATOM      8  C   UNL     1       2.361   6.176  18.046  0.00  0.00    +0.000 C 
ATOM      9  N   UNL     1       2.238   5.618  19.400  0.00  0.00    +0.000 NA
ATOM     10  C   UNL     1       3.100   4.435  19.548  0.00  0.00    +0.000 C 
ATOM     11  C   UNL     1       4.580   4.703  19.214  0.00  0.00    +0.000 C 
ATOM     12  C   UNL     1       6.222   5.761  17.581  0.00  0.00    +0.000 C 
ATOM     13  C   UNL     1       6.508   6.177  16.132  0.00  0.00    +0.000 C 
ENDROOT
BRANCH   2  14
ATOM     14  C   UNL     1       6.430   3.975  12.991  0.00  0.00    +0.000 A 
ATOM     15  C   UNL     1       7.355   3.116  12.382  0.00  0.00    +0.000 A 
ATOM     16  C   UNL     1       6.928   2.173  11.442  0.00  0.00    +0.000 A 
ATOM     17  C   UNL     1       5.573   2.076  11.124  0.00  0.00    +0.000 A 
ATOM     18  C   UNL     1       4.672   2.965  11.694  0.00  0.00    +0.000 A 
ATOM     19  F   UNL     1       3.367   2.855  11.415  0.00  0.00    +0.000 F 
ATOM     20  C   UNL     1       5.094   3.947  12.580  0.00  0.00    +0.000 A 
ENDBRANCH   2  14
BRANCH   9  21
ATOM     21  C   UNL     1       2.514   6.596  20.467  0.00  0.00    +0.000 C 
BRANCH  21  22
ATOM     22  C   UNL     1       1.571   7.772  20.486  0.00  0.00    +0.000 A 
ATOM     23  C   UNL     1       1.632   8.758  19.497  0.00  0.00    +0.000 A 
ATOM     24  C   UNL     1       0.745   9.820  19.567  0.00  0.00    +0.000 A 
ATOM     25  N   UNL     1      -0.185   9.964  20.535  0.00  0.00    +0.000 NA
ATOM     26  C   UNL     1      -0.227   9.002  21.480  0.00  0.00    +0.000 A 
ATOM     27  C   UNL     1       0.617   7.904  21.500  0.00  0.00    +0.000 A 
ENDBRANCH  21  22
ENDBRANCH   9  21
TORSDOF 3
ENDMDL
MODEL 4
REMARK VINA RESULT:      -7.1      0.905      1.292
REMARK  Name = 
REMARK  3 active torsions:
REMARK  status: ('A' for Active; 'I' for Inactive)
REMARK    1  A    between atoms: C_2  and  C_3
REMARK    2  A    between atoms: N_16  and  C_17
REMARK    3  A    between atoms: C_17  and  C_18
REMARK                            x       y       z     vdW  Elec       q    Type
REMARK                         _______ _______ _______ _____ _____    ______ ____
ROOT
ATOM      1  O   UNL     1       1.863   5.885  21.121  0.00  0.00    +0.000 OA
ATOM      2  C   UNL     1       2.083   6.485  20.071  0.00  0.00    +0.000 C 
ATOM      3  N   UNL     1       1.740   7.827  19.873  0.00  0.00    +0.000 N 
ATOM      4  C   UNL     1       1.944   8.570  18.633  0.00  0.00    +0.000 C 
ATOM      5  C   UNL     1       0.759   9.451  18.292  0.00  0.00    +0.000 C 
ATOM      6  C   UNL     1       0.376  10.408  19.437  0.00  0.00    +0.000 C 
ATOM      7  C   UNL     1       1.476  11.453  19.730  0.00  0.00    +0.000 C 
ATOM      8  C   UNL     1       1.640  12.467  18.597  0.00  0.00    +0.000 C 
ATOM      9  N   UNL     1       0.393  13.160  18.243  0.00  0.00    +0.000 NA
ATOM     10  C   UNL     1      -0.658  12.185  17.908  0.00  0.00    +0.000 C 
ATOM     11  C   UNL     1      -0.918  11.151  19.019  0.00  0.00    +0.000 C 
ATOM     12  C   UNL     1       0.119   9.537  20.693  0.00  0.00    +0.000 C 
ATOM     13  C   UNL     1       1.301   8.619  21.031  0.00  0.00    +0.000 C 
ENDROOT
BRANCH   2  14
ATOM     14  C   UNL     1       2.690   5.706  18.955  0.00  0.00    +0.000 A 
ATOM     15  C   UNL     1       1.946   4.661  18.391  0.00  0.00    +0.000 A 
ATOM     16  C   UNL     1       2.428   3.977  17.271  0.00  0.00    +0.000 A 
ATOM     17  C   UNL     1       3.646   4.349  16.703  0.00  0.00    +0.000 A 
ATOM     18  C   UNL     1       4.401   5.351  17.300  0.00  0.00    +0.000 A 
ATOM     19  F   UNL     1       5.556   5.732  16.740  0.00  0.00    +0.000 F 
ATOM     20  C   UNL     1       3.962   5.993  18.450  0.00  0.00    +0.000 A 
ENDBRANCH   2  14
BRANCH   9  21
ATOM     21  C   UNL     1      -0.079  14.092  19.282  0.00  0.00    +0.000 C 
BRANCH  21  22
ATOM     22  C   UNL     1       0.444  15.498  19.133  0.00  0.00    +0.000 A 
ATOM     23  C   UNL     1      -0.325  16.490  18.517  0.00  0.00    +0.000 A 
ATOM     24  C   UNL     1       0.208  17.763  18.402  0.00  0.00    +0.000 A 
ATOM     25  N   UNL     1       1.432  18.113  18.853  0.00  0.00    +0.000 NA
ATOM     26  C   UNL     1       2.159  17.141  19.443  0.00  0.00    +0.000 A 
ATOM     27  C   UNL     1       1.717  15.838  19.603  0.00  0.00    +0.000 A 
ENDBRANCH  21  22
ENDBRANCH   9  21
TORSDOF 3
ENDMDL
MODEL 5
REMARK VINA RESULT:      -7.1      1.392      1.809
REMARK  Name = 
REMARK  3 active torsions:
REMARK  status: ('A' for Active; 'I' for Inactive)
REMARK    1  A    between atoms: C_2  and  C_3
REMARK    2  A    between atoms: N_16  and  C_17
REMARK    3  A    between atoms: C_17  and  C_18
REMARK                            x       y       z     vdW  Elec       q    Type
REMARK                         _______ _______ _______ _____ _____    ______ ____
ROOT
ATOM      1  O   UNL     1       1.813   5.437  21.127  0.00  0.00    +0.000 OA
ATOM      2  C   UNL     1       2.128   6.182  20.201  0.00  0.00    +0.000 C 
ATOM      3  N   UNL     1       1.725   7.519  20.127  0.00  0.00    +0.000 N 
ATOM      4  C   UNL     1       2.038   8.429  19.030  0.00  0.00    +0.000 C 
ATOM      5  C   UNL     1       0.851   9.288  18.641  0.00  0.00    +0.000 C 
ATOM      6  C   UNL     1       0.259  10.064  19.833  0.00  0.00    +0.000 C 
ATOM      7  C   UNL     1       1.239  11.114  20.404  0.00  0.00    +0.000 C 
ATOM      8  C   UNL     1       1.481  12.277  19.439  0.00  0.00    +0.000 C 
ATOM      9  N   UNL     1       0.247  12.948  19.006  0.00  0.00    +0.000 NA
ATOM     10  C   UNL     1      -0.683  11.976  18.410  0.00  0.00    +0.000 C 
ATOM     11  C   UNL     1      -1.017  10.791  19.336  0.00  0.00    +0.000 C 
ATOM     12  C   UNL     1      -0.101   9.022  20.922  0.00  0.00    +0.000 C 
ATOM     13  C   UNL     1       1.086   8.127  21.303  0.00  0.00    +0.000 C 
ENDROOT
BRANCH   2  14
ATOM     14  C   UNL     1       2.926   5.588  19.091  0.00  0.00    +0.000 A 
ATOM     15  C   UNL     1       2.299   4.672  18.236  0.00  0.00    +0.000 A 
ATOM     16  C   UNL     1       2.975   4.176  17.117  0.00  0.00    +0.000 A 
ATOM     17  C   UNL     1       4.271   4.611  16.842  0.00  0.00    +0.000 A 
ATOM     18  C   UNL     1       4.903   5.479  17.723  0.00  0.00    +0.000 A 
ATOM     19  F   UNL     1       6.136   5.922  17.446  0.00  0.00    +0.000 F 
ATOM     20  C   UNL     1       4.265   5.926  18.871  0.00  0.00    +0.000 A 
ENDBRANCH   2  14
BRANCH   9  21
ATOM     21  C   UNL     1      -0.418  13.709  20.078  0.00  0.00    +0.000 C 
BRANCH  21  22
ATOM     22  C   UNL     1      -0.783  15.122  19.697  0.00  0.00    +0.000 A 
ATOM     23  C   UNL     1      -1.750  15.833  20.412  0.00  0.00    +0.000 A 
ATOM     24  C   UNL     1      -2.050  17.125  20.014  0.00  0.00    +0.000 A 
ATOM     25  N   UNL     1      -1.461  17.750  18.972  0.00  0.00    +0.000 NA
ATOM     26  C   UNL     1      -0.531  17.045  18.293  0.00  0.00    +0.000 A 
ATOM     27  C   UNL     1      -0.163  15.748  18.611  0.00  0.00    +0.000 A 
ENDBRANCH  21  22
ENDBRANCH   9  21
TORSDOF 3
ENDMDL
MODEL 6
REMARK VINA RESULT:      -7.0      1.104      1.674
REMARK  Name = 
REMARK  3 active torsions:
REMARK  status: ('A' for Active; 'I' for Inactive)
REMARK    1  A    between atoms: C_2  and  C_3
REMARK    2  A    between atoms: N_16  and  C_17
REMARK    3  A    between atoms: C_17  and  C_18
REMARK                            x       y       z     vdW  Elec       q    Type
REMARK                         _______ _______ _______ _____ _____    ______ ____
ROOT
ATOM      1  O   UNL     1       2.044   5.659  21.126  0.00  0.00    +0.000 OA
ATOM      2  C   UNL     1       2.253   6.331  20.117  0.00  0.00    +0.000 C 
ATOM      3  N   UNL     1       1.782   7.639  19.960  0.00  0.00    +0.000 N 
ATOM      4  C   UNL     1       1.968   8.459  18.768  0.00  0.00    +0.000 C 
ATOM      5  C   UNL     1       0.716   9.231  18.403  0.00  0.00    +0.000 C 
ATOM      6  C   UNL     1       0.179  10.086  19.567  0.00  0.00    +0.000 C 
ATOM      7  C   UNL     1       1.149  11.222  19.965  0.00  0.00    +0.000 C 
ATOM      8  C   UNL     1       1.262  12.303  18.888  0.00  0.00    +0.000 C 
ATOM      9  N   UNL     1      -0.032  12.882  18.499  0.00  0.00    +0.000 NA
ATOM     10  C   UNL     1      -0.957  11.823  18.065  0.00  0.00    +0.000 C 
ATOM     11  C   UNL     1      -1.163  10.713  19.114  0.00  0.00    +0.000 C 
ATOM     12  C   UNL     1      -0.047   9.132  20.767  0.00  0.00    +0.000 C 
ATOM     13  C   UNL     1       1.206   8.323  21.127  0.00  0.00    +0.000 C 
ENDROOT
BRANCH   2  14
ATOM     14  C   UNL     1       2.991   5.673  19.002  0.00  0.00    +0.000 A 
ATOM     15  C   UNL     1       2.326   4.699  18.246  0.00  0.00    +0.000 A 
ATOM     16  C   UNL     1       2.941   4.137  17.123  0.00  0.00    +0.000 A 
ATOM     17  C   UNL     1       4.214   4.564  16.744  0.00  0.00    +0.000 A 
ATOM     18  C   UNL     1       4.886   5.492  17.528  0.00  0.00    +0.000 A 
ATOM     19  F   UNL     1       6.095   5.926  17.151  0.00  0.00    +0.000 F 
ATOM     20  C   UNL     1       4.310   6.008  18.682  0.00  0.00    +0.000 A 
ENDBRANCH   2  14
BRANCH   9  21
ATOM     21  C   UNL     1      -0.648  13.708  19.551  0.00  0.00    +0.000 C 
BRANCH  21  22
ATOM     22  C   UNL     1      -0.071  15.096  19.663  0.00  0.00    +0.000 A 
ATOM     23  C   UNL     1       0.588  15.510  20.824  0.00  0.00    +0.000 A 
ATOM     24  C   UNL     1       1.094  16.799  20.874  0.00  0.00    +0.000 A 
ATOM     25  N   UNL     1       0.993  17.689  19.863  0.00  0.00    +0.000 NA
ATOM     26  C   UNL     1       0.351  17.270  18.752  0.00  0.00    +0.000 A 
ATOM     27  C   UNL     1      -0.191  16.004  18.606  0.00  0.00    +0.000 A 
ENDBRANCH  21  22
ENDBRANCH   9  21
TORSDOF 3
ENDMDL
MODEL 7
REMARK VINA RESULT:      -7.0      4.064      6.543
REMARK  Name = 
REMARK  3 active torsions:
REMARK  status: ('A' for Active; 'I' for Inactive)
REMARK    1  A    between atoms: C_2  and  C_3
REMARK    2  A    between atoms: N_16  and  C_17
REMARK    3  A    between atoms: C_17  and  C_18
REMARK                            x       y       z     vdW  Elec       q    Type
REMARK                         _______ _______ _______ _____ _____    ______ ____
ROOT
ATOM      1  O   UNL     1       8.175   4.209  16.679  0.00  0.00    +0.000 OA
ATOM      2  C   UNL     1       7.131   4.641  16.194  0.00  0.00    +0.000 C 
ATOM      3  N   UNL     1       6.097   5.181  16.967  0.00  0.00    +0.000 N 
ATOM      4  C   UNL     1       4.825   5.669  16.443  0.00  0.00    +0.000 C 
ATOM      5  C   UNL     1       3.652   5.253  17.308  0.00  0.00    +0.000 C 
ATOM      6  C   UNL     1       3.821   5.664  18.783  0.00  0.00    +0.000 C 
ATOM      7  C   UNL     1       3.829   7.198  18.974  0.00  0.00    +0.000 C 
ATOM      8  C   UNL     1       2.467   7.833  18.688  0.00  0.00    +0.000 C 
ATOM      9  N   UNL     1       1.370   7.251  19.474  0.00  0.00    +0.000 NA
ATOM     10  C   UNL     1       1.308   5.795  19.268  0.00  0.00    +0.000 C 
ATOM     11  C   UNL     1       2.631   5.070  19.578  0.00  0.00    +0.000 C 
ATOM     12  C   UNL     1       5.159   5.058  19.275  0.00  0.00    +0.000 C 
ATOM     13  C   UNL     1       6.350   5.448  18.390  0.00  0.00    +0.000 C 
ENDROOT
BRANCH   2  14
ATOM     14  C   UNL     1       6.962   4.517  14.719  0.00  0.00    +0.000 A 
ATOM     15  C   UNL     1       7.739   5.334  13.888  0.00  0.00    +0.000 A 
ATOM     16  C   UNL     1       7.696   5.173  12.500  0.00  0.00    +0.000 A 
ATOM     17  C   UNL     1       6.888   4.182  11.943  0.00  0.00    +0.000 A 
ATOM     18  C   UNL     1       6.082   3.411  12.770  0.00  0.00    +0.000 A 
ATOM     19  F   UNL     1       5.328   2.439  12.241  0.00  0.00    +0.000 F 
ATOM     20  C   UNL     1       6.069   3.607  14.144  0.00  0.00    +0.000 A 
ENDBRANCH   2  14
BRANCH   9  21
ATOM     21  C   UNL     1       1.443   7.567  20.911  0.00  0.00    +0.000 C 
BRANCH  21  22
ATOM     22  C   UNL     1       0.631   8.770  21.320  0.00  0.00    +0.000 A 
ATOM     23  C   UNL     1       0.198   9.702  20.374  0.00  0.00    +0.000 A 
ATOM     24  C   UNL     1      -0.539  10.791  20.807  0.00  0.00    +0.000 A 
ATOM     25  N   UNL     1      -0.873  11.012  22.096  0.00  0.00    +0.000 NA
ATOM     26  C   UNL     1      -0.444  10.101  22.995  0.00  0.00    +0.000 A 
ATOM     27  C   UNL     1       0.300   8.981  22.663  0.00  0.00    +0.000 A 
ENDBRANCH  21  22
ENDBRANCH   9  21
TORSDOF 3
ENDMDL
MODEL 8
REMARK VINA RESULT:      -7.0      1.069      1.453
REMARK  Name = 
REMARK  3 active torsions:
REMARK  status: ('A' for Active; 'I' for Inactive)
REMARK    1  A    between atoms: C_2  and  C_3
REMARK    2  A    between atoms: N_16  and  C_17
REMARK    3  A    between atoms: C_17  and  C_18
REMARK                            x       y       z     vdW  Elec       q    Type
REMARK                         _______ _______ _______ _____ _____    ______ ____
ROOT
ATOM      1  O   UNL     1       2.646   5.872  20.323  0.00  0.00    +0.000 OA
ATOM      2  C   UNL     1       2.717   6.648  19.371  0.00  0.00    +0.000 C 
ATOM      3  N   UNL     1       2.080   7.893  19.353  0.00  0.00    +0.000 N 
ATOM      4  C   UNL     1       2.101   8.830  18.234  0.00  0.00    +0.000 C 
ATOM      5  C   UNL     1       0.746   9.463  17.992  0.00  0.00    +0.000 C 
ATOM      6  C   UNL     1       0.169  10.140  19.251  0.00  0.00    +0.000 C 
ATOM      7  C   UNL     1       1.011  11.353  19.710  0.00  0.00    +0.000 C 
ATOM      8  C   UNL     1       0.932  12.527  18.732  0.00  0.00    +0.000 C 
ATOM      9  N   UNL     1      -0.441  12.967  18.451  0.00  0.00    +0.000 NA
ATOM     10  C   UNL     1      -1.250  11.840  17.960  0.00  0.00    +0.000 C 
ATOM     11  C   UNL     1      -1.262  10.628  18.911  0.00  0.00    +0.000 C 
ATOM     12  C   UNL     1       0.126   9.067  20.367  0.00  0.00    +0.000 C 
ATOM     13  C   UNL     1       1.487   8.397  20.600  0.00  0.00    +0.000 C 
ENDROOT
BRANCH   2  14
ATOM     14  C   UNL     1       3.472   6.188  18.171  0.00  0.00    +0.000 A 
ATOM     15  C   UNL     1       4.150   7.144  17.404  0.00  0.00    +0.000 A 
ATOM     16  C   UNL     1       4.962   6.745  16.337  0.00  0.00    +0.000 A 
ATOM     17  C   UNL     1       5.110   5.389  16.049  0.00  0.00    +0.000 A 
ATOM     18  C   UNL     1       4.393   4.451  16.782  0.00  0.00    +0.000 A 
ATOM     19  F   UNL     1       4.556   3.147  16.528  0.00  0.00    +0.000 F 
ATOM     20  C   UNL     1       3.535   4.841  17.801  0.00  0.00    +0.000 A 
ENDBRANCH   2  14
BRANCH   9  21
ATOM     21  C   UNL     1      -1.100  13.615  19.598  0.00  0.00    +0.000 C 
BRANCH  21  22
ATOM     22  C   UNL     1      -0.485  14.933  19.999  0.00  0.00    +0.000 A 
ATOM     23  C   UNL     1       0.026  15.127  21.285  0.00  0.00    +0.000 A 
ATOM     24  C   UNL     1       0.573  16.360  21.600  0.00  0.00    +0.000 A 
ATOM     25  N   UNL     1       0.651  17.394  20.736  0.00  0.00    +0.000 NA
ATOM     26  C   UNL     1       0.151  17.187  19.499  0.00  0.00    +0.000 A 
ATOM     27  C   UNL     1      -0.419  15.993  19.089  0.00  0.00    +0.000 A 
ENDBRANCH  21  22
ENDBRANCH   9  21
TORSDOF 3
ENDMDL
MODEL 9
REMARK VINA RESULT:      -6.9      4.521      7.606
REMARK  Name = 
REMARK  3 active torsions:
REMARK  status: ('A' for Active; 'I' for Inactive)
REMARK    1  A    between atoms: C_2  and  C_3
REMARK    2  A    between atoms: N_16  and  C_17
REMARK    3  A    between atoms: C_17  and  C_18
REMARK                            x       y       z     vdW  Elec       q    Type
REMARK                         _______ _______ _______ _____ _____    ______ ____
ROOT
ATOM      1  O   UNL     1       7.854   5.317  13.978  0.00  0.00    +0.000 OA
ATOM      2  C   UNL     1       6.725   4.854  14.133  0.00  0.00    +0.000 C 
ATOM      3  N   UNL     1       5.922   5.157  15.237  0.00  0.00    +0.000 N 
ATOM      4  C   UNL     1       4.595   4.603  15.485  0.00  0.00    +0.000 C 
ATOM      5  C   UNL     1       4.392   4.230  16.940  0.00  0.00    +0.000 C 
ATOM      6  C   UNL     1       4.677   5.399  17.902  0.00  0.00    +0.000 C 
ATOM      7  C   UNL     1       3.677   6.566  17.730  0.00  0.00    +0.000 C 
ATOM      8  C   UNL     1       2.263   6.200  18.187  0.00  0.00    +0.000 C 
ATOM      9  N   UNL     1       2.201   5.706  19.570  0.00  0.00    +0.000 NA
ATOM     10  C   UNL     1       3.107   4.560  19.745  0.00  0.00    +0.000 C 
ATOM     11  C   UNL     1       4.566   4.857  19.350  0.00  0.00    +0.000 C 
ATOM     12  C   UNL     1       6.119   5.886  17.615  0.00  0.00    +0.000 C 
ATOM     13  C   UNL     1       6.345   6.238  16.139  0.00  0.00    +0.000 C 
ENDROOT
BRANCH   2  14
ATOM     14  C   UNL     1       6.241   3.883  13.112  0.00  0.00    +0.000 A 
ATOM     15  C   UNL     1       4.899   3.948  12.713  0.00  0.00    +0.000 A 
ATOM     16  C   UNL     1       4.430   3.133  11.679  0.00  0.00    +0.000 A 
ATOM     17  C   UNL     1       5.307   2.265  11.030  0.00  0.00    +0.000 A 
ATOM     18  C   UNL     1       6.623   2.169  11.465  0.00  0.00    +0.000 A 
ATOM     19  F   UNL     1       7.475   1.359  10.825  0.00  0.00    +0.000 F 
ATOM     20  C   UNL     1       7.082   2.927  12.534  0.00  0.00    +0.000 A 
ENDBRANCH   2  14
BRANCH   9  21
ATOM     21  C   UNL     1       2.478   6.743  20.579  0.00  0.00    +0.000 C 
BRANCH  21  22
ATOM     22  C   UNL     1       1.478   7.872  20.595  0.00  0.00    +0.000 A 
ATOM     23  C   UNL     1       1.527   8.889  19.639  0.00  0.00    +0.000 A 
ATOM     24  C   UNL     1       0.586   9.904  19.705  0.00  0.00    +0.000 A 
ATOM     25  N   UNL     1      -0.386   9.973  20.640  0.00  0.00    +0.000 NA
ATOM     26  C   UNL     1      -0.414   8.981  21.555  0.00  0.00    +0.000 A 
ATOM     27  C   UNL     1       0.482   7.926  21.576  0.00  0.00    +0.000 A 
ENDBRANCH  21  22
ENDBRANCH   9  21
TORSDOF 3
ENDMDL
