MODEL 1
REMARK VINA RESULT:      -7.7      0.000      0.000
REMARK  Name = 
REMARK  11 active torsions:
REMARK  status: ('A' for Active; 'I' for Inactive)
REMARK    1  A    between atoms: C_1  and  C_2
REMARK    2  A    between atoms: C_2  and  C_4
REMARK    3  A    between atoms: C_10  and  C_11
REMARK    4  A    between atoms: C_22  and  N_23
REMARK    5  A    between atoms: N_23  and  C_24
REMARK    6  A    between atoms: C_27  and  O_28
REMARK    7  A    between atoms: O_28  and  C_29
REMARK    8  A    between atoms: C_29  and  C_30
REMARK    9  A    between atoms: C_30  and  N_31
REMARK   10  A    between atoms: N_31  and  C_32
REMARK   11  A    between atoms: N_31  and  C_33
REMARK                            x       y       z     vdW  Elec       q    Type
REMARK                         _______ _______ _______ _____ _____    ______ ____
ROOT
ATOM      1  C   UNL     1       5.568   4.465  16.193  0.00  0.00    +0.000 A 
ATOM      2  C   UNL     1       4.888   3.298  16.498  0.00  0.00    +0.000 A 
ATOM      3  N   UNL     1       3.818   3.234  17.319  0.00  0.00    +0.000 NA
ATOM      4  C   UNL     1       3.354   4.372  17.843  0.00  0.00    +0.000 A 
ATOM      5  C   UNL     1       2.245   4.304  18.669  0.00  0.00    +0.000 A 
ATOM      6  C   UNL     1       1.709   5.441  19.285  0.00  0.00    +0.000 A 
ATOM      7  C   UNL     1       2.257   6.709  19.067  0.00  0.00    +0.000 A 
ATOM      8  C   UNL     1       3.356   6.774  18.186  0.00  0.00    +0.000 A 
ATOM      9  C   UNL     1       3.949   5.625  17.595  0.00  0.00    +0.000 A 
ATOM     10  C   UNL     1       5.133   5.660  16.792  0.00  0.00    +0.000 A 
ENDROOT
BRANCH   7  11
ATOM     11  C   UNL     1       1.760   7.916  19.781  0.00  0.00    +0.000 A 
ATOM     12  C   UNL     1       1.530   7.922  21.175  0.00  0.00    +0.000 A 
ATOM     13  C   UNL     1       1.099   9.073  21.864  0.00  0.00    +0.000 A 
ATOM     14  C   UNL     1       0.876  10.248  21.139  0.00  0.00    +0.000 A 
ATOM     15  N   UNL     1       0.454  11.485  21.558  0.00  0.00    +0.000 NA
ATOM     16  C   UNL     1       0.415  12.225  20.473  0.00  0.00    +0.000 A 
ATOM     17  N   UNL     1       0.800  11.518  19.368  0.00  0.00    +0.000 N 
ATOM     18  C   UNL     1       1.099  10.242  19.770  0.00  0.00    +0.000 A 
ATOM     19  C   UNL     1       1.542   9.116  19.070  0.00  0.00    +0.000 A 
ATOM     20  H   UNL     1       0.848  11.870  18.423  0.00  0.00    +0.000 HD
ENDBRANCH   7  11
BRANCH   1  22
ATOM     21  C   UNL     1       6.277   3.982  13.780  0.00  0.00    +0.000 C 
ATOM     22  C   UNL     1       6.650   4.389  15.185  0.00  0.00    +0.000 C 
ATOM     23  O   UNL     1       7.796   4.707  15.487  0.00  0.00    +0.000 OA
ENDBRANCH   1  22
BRANCH  10  24
ATOM     24  N   UNL     1       5.746   6.923  16.544  0.00  0.00    +0.000 N 
ATOM     25  H   UNL     1       5.915   6.998  15.536  0.00  0.00    +0.000 HD
BRANCH  24  26
ATOM     26  C   UNL     1       6.799   7.540  17.253  0.00  0.00    +0.000 A 
ATOM     27  C   UNL     1       7.605   6.875  18.184  0.00  0.00    +0.000 A 
ATOM     28  C   UNL     1       8.575   7.577  18.912  0.00  0.00    +0.000 A 
ATOM     29  C   UNL     1       8.657   8.948  18.741  0.00  0.00    +0.000 A 
ATOM     30  N   UNL     1       7.895   9.632  17.866  0.00  0.00    +0.000 NA
ATOM     31  C   UNL     1       7.002   8.917  17.149  0.00  0.00    +0.000 A 
BRANCH  29  32
ATOM     32  O   UNL     1       9.533   9.655  19.546  0.00  0.00    +0.000 OA
BRANCH  32  33
ATOM     33  C   UNL     1       9.130  11.035  19.603  0.00  0.00    +0.000 C 
BRANCH  33  34
ATOM     34  C   UNL     1      10.349  11.957  19.745  0.00  0.00    +0.000 C 
BRANCH  34  35
ATOM     35  N   UNL     1      10.536  12.856  18.586  0.00  0.00    +0.000 NA
ATOM     36  C   UNL     1      11.472  12.310  17.601  0.00  0.00    +0.000 C 
ATOM     37  C   UNL     1       9.251  13.140  17.946  0.00  0.00    +0.000 C 
ENDBRANCH  34  35
ENDBRANCH  33  34
ENDBRANCH  32  33
ENDBRANCH  29  32
ENDBRANCH  24  26
ENDBRANCH  10  24
TORSDOF 8
ENDMDL
MODEL 2
REMARK VINA RESULT:      -7.4      2.911      7.602
REMARK  Name = 
REMARK  11 active torsions:
REMARK  status: ('A' for Active; 'I' for Inactive)
REMARK    1  A    between atoms: C_1  and  C_2
REMARK    2  A    between atoms: C_2  and  C_4
REMARK    3  A    between atoms: C_10  and  C_11
REMARK    4  A    between atoms: C_22  and  N_23
REMARK    5  A    between atoms: N_23  and  C_24
REMARK    6  A    between atoms: C_27  and  O_28
REMARK    7  A    between atoms: O_28  and  C_29
REMARK    8  A    between atoms: C_29  and  C_30
REMARK    9  A    between atoms: C_30  and  N_31
REMARK   10  A    between atoms: N_31  and  C_32
REMARK   11  A    between atoms: N_31  and  C_33
REMARK                            x       y       z     vdW  Elec       q    Type
REMARK                         _______ _______ _______ _____ _____    ______ ____
ROOT
ATOM      1  C   UNL     1       3.398   4.342  17.671  0.00  0.00    +0.000 A 
ATOM      2  C   UNL     1       4.083   3.634  16.697  0.00  0.00    +0.000 A 
ATOM      3  N   UNL     1       5.268   4.014  16.173  0.00  0.00    +0.000 NA
ATOM      4  C   UNL     1       5.843   5.121  16.649  0.00  0.00    +0.000 A 
ATOM      5  C   UNL     1       7.067   5.497  16.122  0.00  0.00    +0.000 A 
ATOM      6  C   UNL     1       7.729   6.659  16.539  0.00  0.00    +0.000 A 
ATOM      7  C   UNL     1       7.191   7.481  17.534  0.00  0.00    +0.000 A 
ATOM      8  C   UNL     1       5.968   7.064  18.099  0.00  0.00    +0.000 A 
ATOM      9  C   UNL     1       5.254   5.918  17.651  0.00  0.00    +0.000 A 
ATOM     10  C   UNL     1       3.959   5.545  18.131  0.00  0.00    +0.000 A 
ENDROOT
BRANCH   7  11
ATOM     11  C   UNL     1       7.832   8.764  17.928  0.00  0.00    +0.000 A 
ATOM     12  C   UNL     1       8.829   8.831  18.927  0.00  0.00    +0.000 A 
ATOM     13  C   UNL     1       9.470  10.036  19.275  0.00  0.00    +0.000 A 
ATOM     14  C   UNL     1       9.094  11.212  18.619  0.00  0.00    +0.000 A 
ATOM     15  N   UNL     1       9.547  12.499  18.771  0.00  0.00    +0.000 NA
ATOM     16  C   UNL     1       8.861  13.213  17.907  0.00  0.00    +0.000 A 
ATOM     17  N   UNL     1       7.985  12.440  17.198  0.00  0.00    +0.000 N 
ATOM     18  C   UNL     1       8.114  11.148  17.639  0.00  0.00    +0.000 A 
ATOM     19  C   UNL     1       7.477   9.961  17.267  0.00  0.00    +0.000 A 
ATOM     20  H   UNL     1       7.350  12.763  16.482  0.00  0.00    +0.000 HD
ENDBRANCH   7  11
BRANCH   1  22
ATOM     21  C   UNL     1       2.300   2.872  19.459  0.00  0.00    +0.000 C 
ATOM     22  C   UNL     1       2.167   3.734  18.227  0.00  0.00    +0.000 C 
ATOM     23  O   UNL     1       1.076   3.984  17.722  0.00  0.00    +0.000 OA
ENDBRANCH   1  22
BRANCH  10  24
ATOM     24  N   UNL     1       3.352   6.352  19.138  0.00  0.00    +0.000 N 
ATOM     25  H   UNL     1       2.983   5.726  19.861  0.00  0.00    +0.000 HD
BRANCH  24  26
ATOM     26  C   UNL     1       2.488   7.456  18.974  0.00  0.00    +0.000 A 
ATOM     27  C   UNL     1       2.349   8.163  17.774  0.00  0.00    +0.000 A 
ATOM     28  C   UNL     1       1.536   9.303  17.714  0.00  0.00    +0.000 A 
ATOM     29  C   UNL     1       0.944   9.749  18.884  0.00  0.00    +0.000 A 
ATOM     30  N   UNL     1       1.060   9.108  20.063  0.00  0.00    +0.000 NA
ATOM     31  C   UNL     1       1.815   7.988  20.074  0.00  0.00    +0.000 A 
BRANCH  29  32
ATOM     32  O   UNL     1       0.239  10.939  18.846  0.00  0.00    +0.000 OA
BRANCH  32  33
ATOM     33  C   UNL     1      -1.169  10.663  18.750  0.00  0.00    +0.000 C 
BRANCH  33  34
ATOM     34  C   UNL     1      -1.855  11.642  17.787  0.00  0.00    +0.000 C 
BRANCH  34  35
ATOM     35  N   UNL     1      -3.018  11.052  17.089  0.00  0.00    +0.000 NA
ATOM     36  C   UNL     1      -2.779  10.877  15.655  0.00  0.00    +0.000 C 
ATOM     37  C   UNL     1      -3.380   9.769  17.693  0.00  0.00    +0.000 C 
ENDBRANCH  34  35
ENDBRANCH  33  34
ENDBRANCH  32  33
ENDBRANCH  29  32
ENDBRANCH  24  26
ENDBRANCH  10  24
TORSDOF 8
ENDMDL
MODEL 3
REMARK VINA RESULT:      -7.4      0.847      1.358
REMARK  Name = 
REMARK  11 active torsions:
REMARK  status: ('A' for Active; 'I' for Inactive)
REMARK    1  A    between atoms: C_1  and  C_2
REMARK    2  A    between atoms: C_2  and  C_4
REMARK    3  A    between atoms: C_10  and  C_11
REMARK    4  A    between atoms: C_22  and  N_23
REMARK    5  A    between atoms: N_23  and  C_24
REMARK    6  A    between atoms: C_27  and  O_28
REMARK    7  A    between atoms: O_28  and  C_29
REMARK    8  A    between atoms: C_29  and  C_30
REMARK    9  A    between atoms: C_30  and  N_31
REMARK   10  A    between atoms: N_31  and  C_32
REMARK   11  A    between atoms: N_31  and  C_33
REMARK                            x       y       z     vdW  Elec       q    Type
REMARK                         _______ _______ _______ _____ _____    ______ ____
ROOT
ATOM      1  C   UNL     1       5.520   4.339  16.495  0.00  0.00    +0.000 A 
ATOM      2  C   UNL     1       4.886   3.162  16.858  0.00  0.00    +0.000 A 
ATOM      3  N   UNL     1       3.822   3.096  17.686  0.00  0.00    +0.000 NA
ATOM      4  C   UNL     1       3.316   4.239  18.158  0.00  0.00    +0.000 A 
ATOM      5  C   UNL     1       2.213   4.168  18.992  0.00  0.00    +0.000 A 
ATOM      6  C   UNL     1       1.636   5.312  19.557  0.00  0.00    +0.000 A 
ATOM      7  C   UNL     1       2.135   6.588  19.277  0.00  0.00    +0.000 A 
ATOM      8  C   UNL     1       3.228   6.653  18.388  0.00  0.00    +0.000 A 
ATOM      9  C   UNL     1       3.863   5.501  17.849  0.00  0.00    +0.000 A 
ATOM     10  C   UNL     1       5.041   5.543  17.039  0.00  0.00    +0.000 A 
ENDROOT
BRANCH   7  11
ATOM     11  C   UNL     1       1.594   7.807  19.935  0.00  0.00    +0.000 A 
ATOM     12  C   UNL     1       1.609   9.072  19.304  0.00  0.00    +0.000 A 
ATOM     13  C   UNL     1       1.061  10.222  19.905  0.00  0.00    +0.000 A 
ATOM     14  C   UNL     1       0.495  10.112  21.179  0.00  0.00    +0.000 A 
ATOM     15  N   UNL     1      -0.091  11.063  21.977  0.00  0.00    +0.000 NA
ATOM     16  C   UNL     1      -0.455  10.425  23.067  0.00  0.00    +0.000 A 
ATOM     17  N   UNL     1      -0.133   9.097  23.005  0.00  0.00    +0.000 N 
ATOM     18  C   UNL     1       0.481   8.871  21.800  0.00  0.00    +0.000 A 
ATOM     19  C   UNL     1       1.004   7.714  21.215  0.00  0.00    +0.000 A 
ATOM     20  H   UNL     1      -0.310   8.408  23.720  0.00  0.00    +0.000 HD
ENDBRANCH   7  11
BRANCH   1  22
ATOM     21  C   UNL     1       6.218   3.906  14.069  0.00  0.00    +0.000 C 
ATOM     22  C   UNL     1       6.602   4.256  15.486  0.00  0.00    +0.000 C 
ATOM     23  O   UNL     1       7.757   4.525  15.800  0.00  0.00    +0.000 OA
ENDBRANCH   1  22
BRANCH  10  24
ATOM     24  N   UNL     1       5.605   6.816  16.730  0.00  0.00    +0.000 N 
ATOM     25  H   UNL     1       5.698   6.878  15.710  0.00  0.00    +0.000 HD
BRANCH  24  26
ATOM     26  C   UNL     1       6.692   7.467  17.351  0.00  0.00    +0.000 A 
ATOM     27  C   UNL     1       7.554   6.846  18.262  0.00  0.00    +0.000 A 
ATOM     28  C   UNL     1       8.558   7.584  18.904  0.00  0.00    +0.000 A 
ATOM     29  C   UNL     1       8.620   8.947  18.670  0.00  0.00    +0.000 A 
ATOM     30  N   UNL     1       7.805   9.589  17.811  0.00  0.00    +0.000 NA
ATOM     31  C   UNL     1       6.878   8.839  17.177  0.00  0.00    +0.000 A 
BRANCH  29  32
ATOM     32  O   UNL     1       9.536   9.692  19.393  0.00  0.00    +0.000 OA
BRANCH  32  33
ATOM     33  C   UNL     1       9.551  11.044  18.903  0.00  0.00    +0.000 C 
BRANCH  33  34
ATOM     34  C   UNL     1       9.815  12.038  20.043  0.00  0.00    +0.000 C 
BRANCH  34  35
ATOM     35  N   UNL     1      10.876  13.018  19.726  0.00  0.00    +0.000 NA
ATOM     36  C   UNL     1      11.760  12.556  18.653  0.00  0.00    +0.000 C 
ATOM     37  C   UNL     1      10.288  14.308  19.365  0.00  0.00    +0.000 C 
ENDBRANCH  34  35
ENDBRANCH  33  34
ENDBRANCH  32  33
ENDBRANCH  29  32
ENDBRANCH  24  26
ENDBRANCH  10  24
TORSDOF 8
ENDMDL
MODEL 4
REMARK VINA RESULT:      -7.0      1.079      1.332
REMARK  Name = 
REMARK  11 active torsions:
REMARK  status: ('A' for Active; 'I' for Inactive)
REMARK    1  A    between atoms: C_1  and  C_2
REMARK    2  A    between atoms: C_2  and  C_4
REMARK    3  A    between atoms: C_10  and  C_11
REMARK    4  A    between atoms: C_22  and  N_23
REMARK    5  A    between atoms: N_23  and  C_24
REMARK    6  A    between atoms: C_27  and  O_28
REMARK    7  A    between atoms: O_28  and  C_29
REMARK    8  A    between atoms: C_29  and  C_30
REMARK    9  A    between atoms: C_30  and  N_31
REMARK   10  A    between atoms: N_31  and  C_32
REMARK   11  A    between atoms: N_31  and  C_33
REMARK                            x       y       z     vdW  Elec       q    Type
REMARK                         _______ _______ _______ _____ _____    ______ ____
ROOT
ATOM      1  C   UNL     1       5.484   4.379  16.803  0.00  0.00    +0.000 A 
ATOM      2  C   UNL     1       4.877   3.215  17.245  0.00  0.00    +0.000 A 
ATOM      3  N   UNL     1       3.847   3.180  18.117  0.00  0.00    +0.000 NA
ATOM      4  C   UNL     1       3.348   4.339  18.554  0.00  0.00    +0.000 A 
ATOM      5  C   UNL     1       2.279   4.299  19.434  0.00  0.00    +0.000 A 
ATOM      6  C   UNL     1       1.713   5.463  19.966  0.00  0.00    +0.000 A 
ATOM      7  C   UNL     1       2.187   6.729  19.607  0.00  0.00    +0.000 A 
ATOM      8  C   UNL     1       3.244   6.761  18.674  0.00  0.00    +0.000 A 
ATOM      9  C   UNL     1       3.869   5.590  18.164  0.00  0.00    +0.000 A 
ATOM     10  C   UNL     1       5.014   5.603  17.308  0.00  0.00    +0.000 A 
ENDROOT
BRANCH   7  11
ATOM     11  C   UNL     1       1.660   7.974  20.229  0.00  0.00    +0.000 A 
ATOM     12  C   UNL     1       1.425   8.078  21.618  0.00  0.00    +0.000 A 
ATOM     13  C   UNL     1       0.966   9.266  22.219  0.00  0.00    +0.000 A 
ATOM     14  C   UNL     1       0.718  10.379  21.409  0.00  0.00    +0.000 A 
ATOM     15  N   UNL     1       0.267  11.634  21.734  0.00  0.00    +0.000 NA
ATOM     16  C   UNL     1       0.215  12.290  20.597  0.00  0.00    +0.000 A 
ATOM     17  N   UNL     1       0.620  11.512  19.548  0.00  0.00    +0.000 N 
ATOM     18  C   UNL     1       0.947  10.277  20.044  0.00  0.00    +0.000 A 
ATOM     19  C   UNL     1       1.418   9.113  19.430  0.00  0.00    +0.000 A 
ATOM     20  H   UNL     1       0.663  11.794  18.579  0.00  0.00    +0.000 HD
ENDBRANCH   7  11
BRANCH   1  22
ATOM     21  C   UNL     1       6.076   3.982  14.343  0.00  0.00    +0.000 C 
ATOM     22  C   UNL     1       6.526   4.258  15.757  0.00  0.00    +0.000 C 
ATOM     23  O   UNL     1       7.706   4.437  16.041  0.00  0.00    +0.000 OA
ENDBRANCH   1  22
BRANCH  10  24
ATOM     24  N   UNL     1       5.553   6.865  16.917  0.00  0.00    +0.000 N 
ATOM     25  H   UNL     1       5.576   6.892  15.892  0.00  0.00    +0.000 HD
BRANCH  24  26
ATOM     26  C   UNL     1       6.679   7.537  17.439  0.00  0.00    +0.000 A 
ATOM     27  C   UNL     1       7.593   6.953  18.324  0.00  0.00    +0.000 A 
ATOM     28  C   UNL     1       8.637   7.713  18.867  0.00  0.00    +0.000 A 
ATOM     29  C   UNL     1       8.690   9.063  18.567  0.00  0.00    +0.000 A 
ATOM     30  N   UNL     1       7.826   9.670  17.731  0.00  0.00    +0.000 NA
ATOM     31  C   UNL     1       6.859   8.898  17.191  0.00  0.00    +0.000 A 
BRANCH  29  32
ATOM     32  O   UNL     1       9.651   9.835  19.197  0.00  0.00    +0.000 OA
BRANCH  32  33
ATOM     33  C   UNL     1       9.039  10.606  20.245  0.00  0.00    +0.000 C 
BRANCH  33  34
ATOM     34  C   UNL     1      10.031  11.622  20.828  0.00  0.00    +0.000 C 
BRANCH  34  35
ATOM     35  N   UNL     1       9.372  12.711  21.582  0.00  0.00    +0.000 NA
ATOM     36  C   UNL     1       8.635  13.627  20.709  0.00  0.00    +0.000 C 
ATOM     37  C   UNL     1       8.473  12.159  22.596  0.00  0.00    +0.000 C 
ENDBRANCH  34  35
ENDBRANCH  33  34
ENDBRANCH  32  33
ENDBRANCH  29  32
ENDBRANCH  24  26
ENDBRANCH  10  24
TORSDOF 8
ENDMDL
MODEL 5
REMARK VINA RESULT:      -7.0      3.778      8.465
REMARK  Name = 
REMARK  11 active torsions:
REMARK  status: ('A' for Active; 'I' for Inactive)
REMARK    1  A    between atoms: C_1  and  C_2
REMARK    2  A    between atoms: C_2  and  C_4
REMARK    3  A    between atoms: C_10  and  C_11
REMARK    4  A    between atoms: C_22  and  N_23
REMARK    5  A    between atoms: N_23  and  C_24
REMARK    6  A    between atoms: C_27  and  O_28
REMARK    7  A    between atoms: O_28  and  C_29
REMARK    8  A    between atoms: C_29  and  C_30
REMARK    9  A    between atoms: C_30  and  N_31
REMARK   10  A    between atoms: N_31  and  C_32
REMARK   11  A    between atoms: N_31  and  C_33
REMARK                            x       y       z     vdW  Elec       q    Type
REMARK                         _______ _______ _______ _____ _____    ______ ____
ROOT
ATOM      1  C   UNL     1      -1.022  13.713  21.834  0.00  0.00    +0.000 A 
ATOM      2  C   UNL     1      -1.473  13.162  23.022  0.00  0.00    +0.000 A 
ATOM      3  N   UNL     1      -1.282  11.875  23.383  0.00  0.00    +0.000 NA
ATOM      4  C   UNL     1      -0.578  11.087  22.566  0.00  0.00    +0.000 A 
ATOM      5  C   UNL     1      -0.368   9.773  22.949  0.00  0.00    +0.000 A 
ATOM      6  C   UNL     1       0.332   8.868  22.142  0.00  0.00    +0.000 A 
ATOM      7  C   UNL     1       0.879   9.264  20.917  0.00  0.00    +0.000 A 
ATOM      8  C   UNL     1       0.702  10.616  20.558  0.00  0.00    +0.000 A 
ATOM      9  C   UNL     1      -0.053  11.536  21.337  0.00  0.00    +0.000 A 
ATOM     10  C   UNL     1      -0.340  12.878  20.934  0.00  0.00    +0.000 A 
ENDROOT
BRANCH   7  11
ATOM     11  C   UNL     1       1.548   8.298  20.004  0.00  0.00    +0.000 A 
ATOM     12  C   UNL     1       1.898   8.637  18.678  0.00  0.00    +0.000 A 
ATOM     13  C   UNL     1       2.569   7.742  17.822  0.00  0.00    +0.000 A 
ATOM     14  C   UNL     1       2.886   6.465  18.297  0.00  0.00    +0.000 A 
ATOM     15  N   UNL     1       3.519   5.417  17.676  0.00  0.00    +0.000 NA
ATOM     16  C   UNL     1       3.561   4.457  18.573  0.00  0.00    +0.000 A 
ATOM     17  N   UNL     1       2.985   4.843  19.751  0.00  0.00    +0.000 N 
ATOM     18  C   UNL     1       2.540   6.131  19.598  0.00  0.00    +0.000 A 
ATOM     19  C   UNL     1       1.890   7.009  20.469  0.00  0.00    +0.000 A 
ATOM     20  H   UNL     1       2.896   4.278  20.583  0.00  0.00    +0.000 HD
ENDBRANCH   7  11
BRANCH   1  22
ATOM     21  C   UNL     1      -0.591  16.104  22.645  0.00  0.00    +0.000 C 
ATOM     22  C   UNL     1      -1.210  15.169  21.635  0.00  0.00    +0.000 C 
ATOM     23  O   UNL     1      -1.803  15.583  20.643  0.00  0.00    +0.000 OA
ENDBRANCH   1  22
BRANCH  10  24
ATOM     24  N   UNL     1       0.180  13.336  19.687  0.00  0.00    +0.000 N 
ATOM     25  H   UNL     1       0.145  12.553  19.026  0.00  0.00    +0.000 HD
BRANCH  24  26
ATOM     26  C   UNL     1       1.336  14.111  19.451  0.00  0.00    +0.000 A 
ATOM     27  C   UNL     1       1.336  15.303  18.718  0.00  0.00    +0.000 A 
ATOM     28  C   UNL     1       2.539  15.970  18.452  0.00  0.00    +0.000 A 
ATOM     29  C   UNL     1       3.721  15.380  18.865  0.00  0.00    +0.000 A 
ATOM     30  N   UNL     1       3.770  14.229  19.562  0.00  0.00    +0.000 NA
ATOM     31  C   UNL     1       2.589  13.636  19.839  0.00  0.00    +0.000 A 
BRANCH  29  32
ATOM     32  O   UNL     1       4.914  15.980  18.499  0.00  0.00    +0.000 OA
BRANCH  32  33
ATOM     33  C   UNL     1       5.880  14.969  18.165  0.00  0.00    +0.000 C 
BRANCH  33  34
ATOM     34  C   UNL     1       7.292  15.566  18.082  0.00  0.00    +0.000 C 
BRANCH  34  35
ATOM     35  N   UNL     1       8.357  14.583  18.375  0.00  0.00    +0.000 NA
ATOM     36  C   UNL     1       8.120  13.293  17.723  0.00  0.00    +0.000 C 
ATOM     37  C   UNL     1       9.663  15.109  17.976  0.00  0.00    +0.000 C 
ENDBRANCH  34  35
ENDBRANCH  33  34
ENDBRANCH  32  33
ENDBRANCH  29  32
ENDBRANCH  24  26
ENDBRANCH  10  24
TORSDOF 8
ENDMDL
MODEL 6
REMARK VINA RESULT:      -6.9      4.173      8.494
REMARK  Name = 
REMARK  11 active torsions:
REMARK  status: ('A' for Active; 'I' for Inactive)
REMARK    1  A    between atoms: C_1  and  C_2
REMARK    2  A    between atoms: C_2  and  C_4
REMARK    3  A    between atoms: C_10  and  C_11
REMARK    4  A    between atoms: C_22  and  N_23
REMARK    5  A    between atoms: N_23  and  C_24
REMARK    6  A    between atoms: C_27  and  O_28
REMARK    7  A    between atoms: O_28  and  C_29
REMARK    8  A    between atoms: C_29  and  C_30
REMARK    9  A    between atoms: C_30  and  N_31
REMARK   10  A    between atoms: N_31  and  C_32
REMARK   11  A    between atoms: N_31  and  C_33
REMARK                            x       y       z     vdW  Elec       q    Type
REMARK                         _______ _______ _______ _____ _____    ______ ____
ROOT
ATOM      1  C   UNL     1      -1.475  12.901  21.726  0.00  0.00    +0.000 A 
ATOM      2  C   UNL     1      -1.645  12.385  23.000  0.00  0.00    +0.000 A 
ATOM      3  N   UNL     1      -1.161  11.192  23.407  0.00  0.00    +0.000 NA
ATOM      4  C   UNL     1      -0.436  10.476  22.543  0.00  0.00    +0.000 A 
ATOM      5  C   UNL     1       0.074   9.262  22.971  0.00  0.00    +0.000 A 
ATOM      6  C   UNL     1       0.819   8.431  22.124  0.00  0.00    +0.000 A 
ATOM      7  C   UNL     1       1.107   8.809  20.809  0.00  0.00    +0.000 A 
ATOM      8  C   UNL     1       0.625  10.069  20.398  0.00  0.00    +0.000 A 
ATOM      9  C   UNL     1      -0.180  10.902  21.224  0.00  0.00    +0.000 A 
ATOM     10  C   UNL     1      -0.774  12.128  20.787  0.00  0.00    +0.000 A 
ENDROOT
BRANCH   7  11
ATOM     11  C   UNL     1       1.819   7.904  19.867  0.00  0.00    +0.000 A 
ATOM     12  C   UNL     1       2.209   8.321  18.574  0.00  0.00    +0.000 A 
ATOM     13  C   UNL     1       2.919   7.484  17.693  0.00  0.00    +0.000 A 
ATOM     14  C   UNL     1       3.237   6.186  18.106  0.00  0.00    +0.000 A 
ATOM     15  N   UNL     1       3.905   5.181  17.450  0.00  0.00    +0.000 NA
ATOM     16  C   UNL     1       3.930   4.173  18.292  0.00  0.00    +0.000 A 
ATOM     17  N   UNL     1       3.309   4.485  19.470  0.00  0.00    +0.000 N 
ATOM     18  C   UNL     1       2.853   5.775  19.375  0.00  0.00    +0.000 A 
ATOM     19  C   UNL     1       2.162   6.595  20.271  0.00  0.00    +0.000 A 
ATOM     20  H   UNL     1       3.200   3.874  20.266  0.00  0.00    +0.000 HD
ENDBRANCH   7  11
BRANCH   1  22
ATOM     21  C   UNL     1      -1.410  15.393  22.317  0.00  0.00    +0.000 C 
ATOM     22  C   UNL     1      -1.966  14.275  21.469  0.00  0.00    +0.000 C 
ATOM     23  O   UNL     1      -2.755  14.484  20.552  0.00  0.00    +0.000 OA
ENDBRANCH   1  22
BRANCH  10  24
ATOM     24  N   UNL     1      -0.527  12.560  19.450  0.00  0.00    +0.000 N 
ATOM     25  H   UNL     1      -0.772  11.788  18.821  0.00  0.00    +0.000 HD
BRANCH  24  26
ATOM     26  C   UNL     1       0.594  13.253  18.945  0.00  0.00    +0.000 A 
ATOM     27  C   UNL     1       1.757  12.623  18.488  0.00  0.00    +0.000 A 
ATOM     28  C   UNL     1       2.862  13.383  18.083  0.00  0.00    +0.000 A 
ATOM     29  C   UNL     1       2.797  14.759  18.221  0.00  0.00    +0.000 A 
ATOM     30  N   UNL     1       1.704  15.407  18.667  0.00  0.00    +0.000 NA
ATOM     31  C   UNL     1       0.641  14.646  19.006  0.00  0.00    +0.000 A 
BRANCH  29  32
ATOM     32  O   UNL     1       3.930  15.499  17.931  0.00  0.00    +0.000 OA
BRANCH  32  33
ATOM     33  C   UNL     1       5.071  14.907  18.578  0.00  0.00    +0.000 C 
BRANCH  33  34
ATOM     34  C   UNL     1       5.310  15.540  19.955  0.00  0.00    +0.000 C 
BRANCH  34  35
ATOM     35  N   UNL     1       6.434  16.501  19.966  0.00  0.00    +0.000 NA
ATOM     36  C   UNL     1       7.113  16.579  18.671  0.00  0.00    +0.000 C 
ATOM     37  C   UNL     1       5.968  17.830  20.364  0.00  0.00    +0.000 C 
ENDBRANCH  34  35
ENDBRANCH  33  34
ENDBRANCH  32  33
ENDBRANCH  29  32
ENDBRANCH  24  26
ENDBRANCH  10  24
TORSDOF 8
ENDMDL
MODEL 7
REMARK VINA RESULT:      -6.9      3.913      8.022
REMARK  Name = 
REMARK  11 active torsions:
REMARK  status: ('A' for Active; 'I' for Inactive)
REMARK    1  A    between atoms: C_1  and  C_2
REMARK    2  A    between atoms: C_2  and  C_4
REMARK    3  A    between atoms: C_10  and  C_11
REMARK    4  A    between atoms: C_22  and  N_23
REMARK    5  A    between atoms: N_23  and  C_24
REMARK    6  A    between atoms: C_27  and  O_28
REMARK    7  A    between atoms: O_28  and  C_29
REMARK    8  A    between atoms: C_29  and  C_30
REMARK    9  A    between atoms: C_30  and  N_31
REMARK   10  A    between atoms: N_31  and  C_32
REMARK   11  A    between atoms: N_31  and  C_33
REMARK                            x       y       z     vdW  Elec       q    Type
REMARK                         _______ _______ _______ _____ _____    ______ ____
ROOT
ATOM      1  C   UNL     1       1.133  15.997  18.609  0.00  0.00    +0.000 A 
ATOM      2  C   UNL     1      -0.136  16.038  19.162  0.00  0.00    +0.000 A 
ATOM      3  N   UNL     1      -0.824  14.949  19.565  0.00  0.00    +0.000 NA
ATOM      4  C   UNL     1      -0.234  13.755  19.464  0.00  0.00    +0.000 A 
ATOM      5  C   UNL     1      -0.937  12.643  19.896  0.00  0.00    +0.000 A 
ATOM      6  C   UNL     1      -0.409  11.349  19.800  0.00  0.00    +0.000 A 
ATOM      7  C   UNL     1       0.873  11.126  19.288  0.00  0.00    +0.000 A 
ATOM      8  C   UNL     1       1.600  12.270  18.896  0.00  0.00    +0.000 A 
ATOM      9  C   UNL     1       1.060  13.586  18.933  0.00  0.00    +0.000 A 
ATOM     10  C   UNL     1       1.738  14.742  18.433  0.00  0.00    +0.000 A 
ENDROOT
BRANCH   7  11
ATOM     11  C   UNL     1       1.417   9.755  19.095  0.00  0.00    +0.000 A 
ATOM     12  C   UNL     1       2.009   9.347  17.878  0.00  0.00    +0.000 A 
ATOM     13  C   UNL     1       2.564   8.064  17.702  0.00  0.00    +0.000 A 
ATOM     14  C   UNL     1       2.512   7.156  18.765  0.00  0.00    +0.000 A 
ATOM     15  N   UNL     1       2.964   5.863  18.853  0.00  0.00    +0.000 NA
ATOM     16  C   UNL     1       2.665   5.473  20.071  0.00  0.00    +0.000 A 
ATOM     17  N   UNL     1       2.041   6.463  20.778  0.00  0.00    +0.000 N 
ATOM     18  C   UNL     1       1.929   7.556  19.959  0.00  0.00    +0.000 A 
ATOM     19  C   UNL     1       1.388   8.829  20.160  0.00  0.00    +0.000 A 
ATOM     20  H   UNL     1       1.715   6.399  21.731  0.00  0.00    +0.000 HD
ENDBRANCH   7  11
BRANCH   1  22
ATOM     21  C   UNL     1       1.241  18.145  17.217  0.00  0.00    +0.000 C 
ATOM     22  C   UNL     1       1.803  17.288  18.325  0.00  0.00    +0.000 C 
ATOM     23  O   UNL     1       2.746  17.657  19.018  0.00  0.00    +0.000 OA
ENDBRANCH   1  22
BRANCH  10  24
ATOM     24  N   UNL     1       3.045  14.576  17.886  0.00  0.00    +0.000 N 
ATOM     25  H   UNL     1       3.022  13.764  17.260  0.00  0.00    +0.000 HD
BRANCH  24  26
ATOM     26  C   UNL     1       4.288  14.634  18.551  0.00  0.00    +0.000 A 
ATOM     27  C   UNL     1       4.424  14.838  19.929  0.00  0.00    +0.000 A 
ATOM     28  C   UNL     1       5.696  14.970  20.503  0.00  0.00    +0.000 A 
ATOM     29  C   UNL     1       6.797  14.972  19.664  0.00  0.00    +0.000 A 
ATOM     30  N   UNL     1       6.713  14.791  18.332  0.00  0.00    +0.000 NA
ATOM     31  C   UNL     1       5.476  14.622  17.818  0.00  0.00    +0.000 A 
BRANCH  29  32
ATOM     32  O   UNL     1       8.040  15.220  20.219  0.00  0.00    +0.000 OA
BRANCH  32  33
ATOM     33  C   UNL     1       8.379  14.164  21.135  0.00  0.00    +0.000 C 
BRANCH  33  34
ATOM     34  C   UNL     1       9.900  13.978  21.219  0.00  0.00    +0.000 C 
BRANCH  34  35
ATOM     35  N   UNL     1      10.337  12.604  20.891  0.00  0.00    +0.000 NA
ATOM     36  C   UNL     1       9.265  11.806  20.290  0.00  0.00    +0.000 C 
ATOM     37  C   UNL     1      11.494  12.635  19.996  0.00  0.00    +0.000 C 
ENDBRANCH  34  35
ENDBRANCH  33  34
ENDBRANCH  32  33
ENDBRANCH  29  32
ENDBRANCH  24  26
ENDBRANCH  10  24
TORSDOF 8
ENDMDL
MODEL 8
REMARK VINA RESULT:      -6.9      3.762      9.067
REMARK  Name = 
REMARK  11 active torsions:
REMARK  status: ('A' for Active; 'I' for Inactive)
REMARK    1  A    between atoms: C_1  and  C_2
REMARK    2  A    between atoms: C_2  and  C_4
REMARK    3  A    between atoms: C_10  and  C_11
REMARK    4  A    between atoms: C_22  and  N_23
REMARK    5  A    between atoms: N_23  and  C_24
REMARK    6  A    between atoms: C_27  and  O_28
REMARK    7  A    between atoms: O_28  and  C_29
REMARK    8  A    between atoms: C_29  and  C_30
REMARK    9  A    between atoms: C_30  and  N_31
REMARK   10  A    between atoms: N_31  and  C_32
REMARK   11  A    between atoms: N_31  and  C_33
REMARK                            x       y       z     vdW  Elec       q    Type
REMARK                         _______ _______ _______ _____ _____    ______ ____
ROOT
ATOM      1  C   UNL     1      -1.160  11.705  18.654  0.00  0.00    +0.000 A 
ATOM      2  C   UNL     1      -1.887  12.708  19.272  0.00  0.00    +0.000 A 
ATOM      3  N   UNL     1      -1.343  13.828  19.795  0.00  0.00    +0.000 NA
ATOM      4  C   UNL     1      -0.024  14.005  19.677  0.00  0.00    +0.000 A 
ATOM      5  C   UNL     1       0.527  15.164  20.198  0.00  0.00    +0.000 A 
ATOM      6  C   UNL     1       1.903  15.419  20.147  0.00  0.00    +0.000 A 
ATOM      7  C   UNL     1       2.783  14.521  19.535  0.00  0.00    +0.000 A 
ATOM      8  C   UNL     1       2.206  13.368  18.964  0.00  0.00    +0.000 A 
ATOM      9  C   UNL     1       0.820  13.064  19.055  0.00  0.00    +0.000 A 
ATOM     10  C   UNL     1       0.236  11.846  18.584  0.00  0.00    +0.000 A 
ENDROOT
BRANCH   7  11
ATOM     11  C   UNL     1       4.256  14.729  19.548  0.00  0.00    +0.000 A 
ATOM     12  C   UNL     1       4.979  14.908  20.749  0.00  0.00    +0.000 A 
ATOM     13  C   UNL     1       6.379  15.063  20.771  0.00  0.00    +0.000 A 
ATOM     14  C   UNL     1       7.077  15.057  19.559  0.00  0.00    +0.000 A 
ATOM     15  N   UNL     1       8.419  15.195  19.305  0.00  0.00    +0.000 NA
ATOM     16  C   UNL     1       8.535  15.111  17.999  0.00  0.00    +0.000 A 
ATOM     17  N   UNL     1       7.323  14.920  17.397  0.00  0.00    +0.000 N 
ATOM     18  C   UNL     1       6.367  14.884  18.379  0.00  0.00    +0.000 A 
ATOM     19  C   UNL     1       4.981  14.711  18.336  0.00  0.00    +0.000 A 
ATOM     20  H   UNL     1       7.158  14.829  16.405  0.00  0.00    +0.000 HD
ENDBRANCH   7  11
BRANCH   1  22
ATOM     21  C   UNL     1      -2.393  10.780  16.608  0.00  0.00    +0.000 C 
ATOM     22  C   UNL     1      -1.914  10.594  18.028  0.00  0.00    +0.000 C 
ATOM     23  O   UNL     1      -2.082   9.543  18.639  0.00  0.00    +0.000 OA
ENDBRANCH   1  22
BRANCH  10  24
ATOM     24  N   UNL     1       1.086  10.884  17.962  0.00  0.00    +0.000 N 
ATOM     25  H   UNL     1       0.754  10.747  17.001  0.00  0.00    +0.000 HD
BRANCH  24  26
ATOM     26  C   UNL     1       1.555   9.660  18.486  0.00  0.00    +0.000 A 
ATOM     27  C   UNL     1       2.174   8.670  17.714  0.00  0.00    +0.000 A 
ATOM     28  C   UNL     1       2.534   7.444  18.291  0.00  0.00    +0.000 A 
ATOM     29  C   UNL     1       2.192   7.217  19.613  0.00  0.00    +0.000 A 
ATOM     30  N   UNL     1       1.586   8.135  20.390  0.00  0.00    +0.000 NA
ATOM     31  C   UNL     1       1.294   9.321  19.814  0.00  0.00    +0.000 A 
BRANCH  29  32
ATOM     32  O   UNL     1       2.443   5.964  20.145  0.00  0.00    +0.000 OA
BRANCH  32  33
ATOM     33  C   UNL     1       3.611   5.401  19.523  0.00  0.00    +0.000 C 
BRANCH  33  34
ATOM     34  C   UNL     1       3.529   3.868  19.488  0.00  0.00    +0.000 C 
BRANCH  34  35
ATOM     35  N   UNL     1       3.236   3.332  18.142  0.00  0.00    +0.000 NA
ATOM     36  C   UNL     1       3.442   1.884  18.060  0.00  0.00    +0.000 C 
ATOM     37  C   UNL     1       1.866   3.662  17.747  0.00  0.00    +0.000 C 
ENDBRANCH  34  35
ENDBRANCH  33  34
ENDBRANCH  32  33
ENDBRANCH  29  32
ENDBRANCH  24  26
ENDBRANCH  10  24
TORSDOF 8
ENDMDL
MODEL 9
REMARK VINA RESULT:      -6.9      3.601      8.117
REMARK  Name = 
REMARK  11 active torsions:
REMARK  status: ('A' for Active; 'I' for Inactive)
REMARK    1  A    between atoms: C_1  and  C_2
REMARK    2  A    between atoms: C_2  and  C_4
REMARK    3  A    between atoms: C_10  and  C_11
REMARK    4  A    between atoms: C_22  and  N_23
REMARK    5  A    between atoms: N_23  and  C_24
REMARK    6  A    between atoms: C_27  and  O_28
REMARK    7  A    between atoms: O_28  and  C_29
REMARK    8  A    between atoms: C_29  and  C_30
REMARK    9  A    between atoms: C_30  and  N_31
REMARK   10  A    between atoms: N_31  and  C_32
REMARK   11  A    between atoms: N_31  and  C_33
REMARK                            x       y       z     vdW  Elec       q    Type
REMARK                         _______ _______ _______ _____ _____    ______ ____
ROOT
ATOM      1  C   UNL     1      -0.699  13.243  21.843  0.00  0.00    +0.000 A 
ATOM      2  C   UNL     1      -1.250  12.629  22.955  0.00  0.00    +0.000 A 
ATOM      3  N   UNL     1      -1.127  11.314  23.235  0.00  0.00    +0.000 NA
ATOM      4  C   UNL     1      -0.394  10.557  22.414  0.00  0.00    +0.000 A 
ATOM      5  C   UNL     1      -0.255   9.213  22.715  0.00  0.00    +0.000 A 
ATOM      6  C   UNL     1       0.469   8.340  21.894  0.00  0.00    +0.000 A 
ATOM      7  C   UNL     1       1.113   8.798  20.740  0.00  0.00    +0.000 A 
ATOM      8  C   UNL     1       1.006  10.178  20.468  0.00  0.00    +0.000 A 
ATOM      9  C   UNL     1       0.230  11.070  21.258  0.00  0.00    +0.000 A 
ATOM     10  C   UNL     1       0.016  12.446  20.933  0.00  0.00    +0.000 A 
ENDROOT
BRANCH   7  11
ATOM     11  C   UNL     1       1.811   7.873  19.808  0.00  0.00    +0.000 A 
ATOM     12  C   UNL     1       2.305   8.300  18.555  0.00  0.00    +0.000 A 
ATOM     13  C   UNL     1       3.004   7.441  17.685  0.00  0.00    +0.000 A 
ATOM     14  C   UNL     1       3.202   6.110  18.069  0.00  0.00    +0.000 A 
ATOM     15  N   UNL     1       3.832   5.080  17.416  0.00  0.00    +0.000 NA
ATOM     16  C   UNL     1       3.735   4.047  18.221  0.00  0.00    +0.000 A 
ATOM     17  N   UNL     1       3.070   4.367  19.373  0.00  0.00    +0.000 N 
ATOM     18  C   UNL     1       2.715   5.689  19.298  0.00  0.00    +0.000 A 
ATOM     19  C   UNL     1       2.034   6.530  20.183  0.00  0.00    +0.000 A 
ATOM     20  H   UNL     1       2.871   3.740  20.139  0.00  0.00    +0.000 HD
ENDBRANCH   7  11
BRANCH   1  22
ATOM     21  C   UNL     1      -0.314  15.551  22.885  0.00  0.00    +0.000 C 
ATOM     22  C   UNL     1      -0.825  14.715  21.736  0.00  0.00    +0.000 C 
ATOM     23  O   UNL     1      -1.278  15.221  20.714  0.00  0.00    +0.000 OA
ENDBRANCH   1  22
BRANCH  10  24
ATOM     24  N   UNL     1       0.636  12.969  19.760  0.00  0.00    +0.000 N 
ATOM     25  H   UNL     1       0.490  12.295  19.001  0.00  0.00    +0.000 HD
BRANCH  24  26
ATOM     26  C   UNL     1       1.909  13.565  19.633  0.00  0.00    +0.000 A 
ATOM     27  C   UNL     1       2.749  13.844  20.717  0.00  0.00    +0.000 A 
ATOM     28  C   UNL     1       3.962  14.517  20.518  0.00  0.00    +0.000 A 
ATOM     29  C   UNL     1       4.263  14.962  19.242  0.00  0.00    +0.000 A 
ATOM     30  N   UNL     1       3.480  14.728  18.172  0.00  0.00    +0.000 NA
ATOM     31  C   UNL     1       2.340  14.037  18.393  0.00  0.00    +0.000 A 
BRANCH  29  32
ATOM     32  O   UNL     1       5.403  15.728  19.070  0.00  0.00    +0.000 OA
BRANCH  32  33
ATOM     33  C   UNL     1       6.429  15.276  19.972  0.00  0.00    +0.000 C 
BRANCH  33  34
ATOM     34  C   UNL     1       7.823  15.637  19.441  0.00  0.00    +0.000 C 
BRANCH  34  35
ATOM     35  N   UNL     1       8.603  14.458  19.006  0.00  0.00    +0.000 NA
ATOM     36  C   UNL     1       8.818  13.499  20.091  0.00  0.00    +0.000 C 
ATOM     37  C   UNL     1       7.941  13.795  17.881  0.00  0.00    +0.000 C 
ENDBRANCH  34  35
ENDBRANCH  33  34
ENDBRANCH  32  33
ENDBRANCH  29  32
ENDBRANCH  24  26
ENDBRANCH  10  24
TORSDOF 8
ENDMDL
