MODEL 1
REMARK VINA RESULT:      -6.4      0.000      0.000
REMARK  Name = 
REMARK  5 active torsions:
REMARK  status: ('A' for Active; 'I' for Inactive)
REMARK    1  A    between atoms: C_2  and  C_16
REMARK    2  A    between atoms: N_3  and  C_4
REMARK    3  A    between atoms: C_7  and  O_8
REMARK    4  A    between atoms: O_8  and  C_9
REMARK    5  A    between atoms: C_9  and  C_11
REMARK                            x       y       z     vdW  Elec       q    Type
REMARK                         _______ _______ _______ _____ _____    ______ ____
ROOT
ATOM      1  C   UNL     1       4.811   4.721  16.339  0.00  0.00    +0.000 A 
ATOM      2  C   UNL     1       4.625   3.547  17.073  0.00  0.00    +0.000 A 
ATOM      3  C   UNL     1       4.160   3.594  18.390  0.00  0.00    +0.000 A 
ATOM      4  C   UNL     1       3.882   4.823  18.985  0.00  0.00    +0.000 A 
ATOM      5  C   UNL     1       4.029   6.001  18.260  0.00  0.00    +0.000 A 
ATOM      6  C   UNL     1       4.515   5.949  16.948  0.00  0.00    +0.000 A 
ENDROOT
BRANCH   1   9
ATOM      7  O   UNL     1       7.600   4.810  15.389  0.00  0.00    +0.000 OA
ATOM      8  C   UNL     1       6.635   4.847  14.624  0.00  0.00    +0.000 C 
ATOM      9  N   UNL     1       5.304   4.747  15.019  0.00  0.00    +0.000 N 
ATOM     10  H   UNL     1       4.616   4.659  14.277  0.00  0.00    +0.000 HD
BRANCH   8  11
ATOM     11  C   UNL     1       6.867   4.926  13.115  0.00  0.00    +0.000 C 
ATOM     12 CL   UNL     1       8.492   5.573  12.817  0.00  0.00    +0.000 Cl
ATOM     13 CL   UNL     1       6.686   3.330  12.354  0.00  0.00    +0.000 Cl
ENDBRANCH   8  11
ENDBRANCH   1   9
BRANCH   4  14
ATOM     14  O   UNL     1       3.404   4.775  20.308  0.00  0.00    +0.000 OA
BRANCH  14  15
ATOM     15  C   UNL     1       2.058   5.050  20.608  0.00  0.00    +0.000 C 
ATOM     16  O   UNL     1       1.558   6.168  20.634  0.00  0.00    +0.000 OA
BRANCH  15  17
ATOM     17  C   UNL     1       1.345   3.736  20.871  0.00  0.00    +0.000 C 
ATOM     18 CL   UNL     1       0.811   3.028  19.329  0.00  0.00    +0.000 Cl
ATOM     19 CL   UNL     1       2.410   2.591  21.719  0.00  0.00    +0.000 Cl
ENDBRANCH  15  17
ENDBRANCH  14  15
ENDBRANCH   4  14
TORSDOF 5
ENDMDL
MODEL 2
REMARK VINA RESULT:      -6.3      0.750      1.649
REMARK  Name = 
REMARK  5 active torsions:
REMARK  status: ('A' for Active; 'I' for Inactive)
REMARK    1  A    between atoms: C_2  and  C_16
REMARK    2  A    between atoms: N_3  and  C_4
REMARK    3  A    between atoms: C_7  and  O_8
REMARK    4  A    between atoms: O_8  and  C_9
REMARK    5  A    between atoms: C_9  and  C_11
REMARK                            x       y       z     vdW  Elec       q    Type
REMARK                         _______ _______ _______ _____ _____    ______ ____
ROOT
ATOM      1  C   UNL     1       5.009   4.415  16.236  0.00  0.00    +0.000 A 
ATOM      2  C   UNL     1       4.715   5.727  16.619  0.00  0.00    +0.000 A 
ATOM      3  C   UNL     1       4.225   6.004  17.897  0.00  0.00    +0.000 A 
ATOM      4  C   UNL     1       4.022   4.966  18.804  0.00  0.00    +0.000 A 
ATOM      5  C   UNL     1       4.339   3.658  18.454  0.00  0.00    +0.000 A 
ATOM      6  C   UNL     1       4.810   3.383  17.164  0.00  0.00    +0.000 A 
ENDROOT
BRANCH   1   9
ATOM      7  O   UNL     1       7.530   5.154  14.899  0.00  0.00    +0.000 OA
ATOM      8  C   UNL     1       6.654   4.487  14.346  0.00  0.00    +0.000 C 
ATOM      9  N   UNL     1       5.477   4.061  14.954  0.00  0.00    +0.000 N 
ATOM     10  H   UNL     1       4.904   3.408  14.427  0.00  0.00    +0.000 HD
BRANCH   8  11
ATOM     11  C   UNL     1       6.867   3.996  12.914  0.00  0.00    +0.000 C 
ATOM     12 CL   UNL     1       5.304   3.489  12.243  0.00  0.00    +0.000 Cl
ATOM     13 CL   UNL     1       7.593   5.266  11.903  0.00  0.00    +0.000 Cl
ENDBRANCH   8  11
ENDBRANCH   1   9
BRANCH   4  14
ATOM     14  O   UNL     1       3.541   5.339  20.073  0.00  0.00    +0.000 OA
BRANCH  14  15
ATOM     15  C   UNL     1       2.208   5.750  20.256  0.00  0.00    +0.000 C 
ATOM     16  O   UNL     1       1.802   6.898  20.125  0.00  0.00    +0.000 OA
BRANCH  15  17
ATOM     17  C   UNL     1       1.375   4.534  20.619  0.00  0.00    +0.000 C 
ATOM     18 CL   UNL     1       0.912   3.664  19.139  0.00  0.00    +0.000 Cl
ATOM     19 CL   UNL     1       2.276   3.444  21.698  0.00  0.00    +0.000 Cl
ENDBRANCH  15  17
ENDBRANCH  14  15
ENDBRANCH   4  14
TORSDOF 5
ENDMDL
MODEL 3
REMARK VINA RESULT:      -6.3      0.583      1.110
REMARK  Name = 
REMARK  5 active torsions:
REMARK  status: ('A' for Active; 'I' for Inactive)
REMARK    1  A    between atoms: C_2  and  C_16
REMARK    2  A    between atoms: N_3  and  C_4
REMARK    3  A    between atoms: C_7  and  O_8
REMARK    4  A    between atoms: O_8  and  C_9
REMARK    5  A    between atoms: C_9  and  C_11
REMARK                            x       y       z     vdW  Elec       q    Type
REMARK                         _______ _______ _______ _____ _____    ______ ____
ROOT
ATOM      1  C   UNL     1       4.843   4.255  16.486  0.00  0.00    +0.000 A 
ATOM      2  C   UNL     1       4.786   3.279  17.486  0.00  0.00    +0.000 A 
ATOM      3  C   UNL     1       4.300   3.588  18.758  0.00  0.00    +0.000 A 
ATOM      4  C   UNL     1       3.869   4.883  19.042  0.00  0.00    +0.000 A 
ATOM      5  C   UNL     1       3.887   5.859  18.051  0.00  0.00    +0.000 A 
ATOM      6  C   UNL     1       4.395   5.549  16.784  0.00  0.00    +0.000 A 
ENDROOT
BRANCH   1   9
ATOM      7  O   UNL     1       7.539   4.771  15.413  0.00  0.00    +0.000 OA
ATOM      8  C   UNL     1       6.619   4.335  14.719  0.00  0.00    +0.000 C 
ATOM      9  N   UNL     1       5.350   4.018  15.192  0.00  0.00    +0.000 N 
ATOM     10  H   UNL     1       4.728   3.544  14.543  0.00  0.00    +0.000 HD
BRANCH   8  11
ATOM     11  C   UNL     1       6.865   4.026  13.242  0.00  0.00    +0.000 C 
ATOM     12 CL   UNL     1       5.304   3.733  12.450  0.00  0.00    +0.000 Cl
ATOM     13 CL   UNL     1       7.726   5.360  12.443  0.00  0.00    +0.000 Cl
ENDBRANCH   8  11
ENDBRANCH   1   9
BRANCH   4  14
ATOM     14  O   UNL     1       3.381   5.100  20.344  0.00  0.00    +0.000 OA
BRANCH  14  15
ATOM     15  C   UNL     1       2.021   5.372  20.577  0.00  0.00    +0.000 C 
ATOM     16  O   UNL     1       1.515   6.488  20.571  0.00  0.00    +0.000 OA
BRANCH  15  17
ATOM     17  C   UNL     1       1.301   4.057  20.815  0.00  0.00    +0.000 C 
ATOM     18 CL   UNL     1       0.814   3.353  19.255  0.00  0.00    +0.000 Cl
ATOM     19 CL   UNL     1       2.342   2.910  21.690  0.00  0.00    +0.000 Cl
ENDBRANCH  15  17
ENDBRANCH  14  15
ENDBRANCH   4  14
TORSDOF 5
ENDMDL
MODEL 4
REMARK VINA RESULT:      -6.1      0.673      1.868
REMARK  Name = 
REMARK  5 active torsions:
REMARK  status: ('A' for Active; 'I' for Inactive)
REMARK    1  A    between atoms: C_2  and  C_16
REMARK    2  A    between atoms: N_3  and  C_4
REMARK    3  A    between atoms: C_7  and  O_8
REMARK    4  A    between atoms: O_8  and  C_9
REMARK    5  A    between atoms: C_9  and  C_11
REMARK                            x       y       z     vdW  Elec       q    Type
REMARK                         _______ _______ _______ _____ _____    ______ ____
ROOT
ATOM      1  C   UNL     1       5.040   4.400  16.222  0.00  0.00    +0.000 A 
ATOM      2  C   UNL     1       4.658   5.685  16.617  0.00  0.00    +0.000 A 
ATOM      3  C   UNL     1       4.139   5.916  17.893  0.00  0.00    +0.000 A 
ATOM      4  C   UNL     1       3.994   4.856  18.786  0.00  0.00    +0.000 A 
ATOM      5  C   UNL     1       4.399   3.575  18.424  0.00  0.00    +0.000 A 
ATOM      6  C   UNL     1       4.898   3.346  17.137  0.00  0.00    +0.000 A 
ENDROOT
BRANCH   1   9
ATOM      7  O   UNL     1       7.589   5.198  14.976  0.00  0.00    +0.000 OA
ATOM      8  C   UNL     1       6.732   4.545  14.378  0.00  0.00    +0.000 C 
ATOM      9  N   UNL     1       5.542   4.093  14.941  0.00  0.00    +0.000 N 
ATOM     10  H   UNL     1       4.987   3.454  14.379  0.00  0.00    +0.000 HD
BRANCH   8  11
ATOM     11  C   UNL     1       6.984   4.104  12.936  0.00  0.00    +0.000 C 
ATOM     12 CL   UNL     1       5.458   3.529  12.237  0.00  0.00    +0.000 Cl
ATOM     13 CL   UNL     1       7.648   5.438  11.966  0.00  0.00    +0.000 Cl
ENDBRANCH   8  11
ENDBRANCH   1   9
BRANCH   4  14
ATOM     14  O   UNL     1       3.477   5.182  20.054  0.00  0.00    +0.000 OA
BRANCH  14  15
ATOM     15  C   UNL     1       2.156   4.857  20.409  0.00  0.00    +0.000 C 
ATOM     16  O   UNL     1       1.290   5.667  20.714  0.00  0.00    +0.000 OA
BRANCH  15  17
ATOM     17  C   UNL     1       1.994   3.349  20.330  0.00  0.00    +0.000 C 
ATOM     18 CL   UNL     1       1.401   2.730  21.888  0.00  0.00    +0.000 Cl
ATOM     19 CL   UNL     1       0.860   2.898  19.036  0.00  0.00    +0.000 Cl
ENDBRANCH  15  17
ENDBRANCH  14  15
ENDBRANCH   4  14
TORSDOF 5
ENDMDL
MODEL 5
REMARK VINA RESULT:      -6.1      1.414      2.004
REMARK  Name = 
REMARK  5 active torsions:
REMARK  status: ('A' for Active; 'I' for Inactive)
REMARK    1  A    between atoms: C_2  and  C_16
REMARK    2  A    between atoms: N_3  and  C_4
REMARK    3  A    between atoms: C_7  and  O_8
REMARK    4  A    between atoms: O_8  and  C_9
REMARK    5  A    between atoms: C_9  and  C_11
REMARK                            x       y       z     vdW  Elec       q    Type
REMARK                         _______ _______ _______ _____ _____    ______ ____
ROOT
ATOM      1  C   UNL     1       5.223   3.893  16.606  0.00  0.00    +0.000 A 
ATOM      2  C   UNL     1       3.860   3.659  16.806  0.00  0.00    +0.000 A 
ATOM      3  C   UNL     1       3.276   3.863  18.058  0.00  0.00    +0.000 A 
ATOM      4  C   UNL     1       4.058   4.302  19.125  0.00  0.00    +0.000 A 
ATOM      5  C   UNL     1       5.410   4.572  18.938  0.00  0.00    +0.000 A 
ATOM      6  C   UNL     1       5.993   4.346  17.686  0.00  0.00    +0.000 A 
ENDROOT
BRANCH   1   9
ATOM      7  O   UNL     1       6.448   5.853  14.776  0.00  0.00    +0.000 OA
ATOM      8  C   UNL     1       6.392   4.649  14.521  0.00  0.00    +0.000 C 
ATOM      9  N   UNL     1       5.881   3.678  15.377  0.00  0.00    +0.000 N 
ATOM     10  H   UNL     1       6.016   2.711  15.099  0.00  0.00    +0.000 HD
BRANCH   8  11
ATOM     11  C   UNL     1       6.990   4.123  13.216  0.00  0.00    +0.000 C 
ATOM     12 CL   UNL     1       5.689   3.434  12.226  0.00  0.00    +0.000 Cl
ATOM     13 CL   UNL     1       7.828   5.415  12.328  0.00  0.00    +0.000 Cl
ENDBRANCH   8  11
ENDBRANCH   1   9
BRANCH   4  14
ATOM     14  O   UNL     1       3.384   4.496  20.346  0.00  0.00    +0.000 OA
BRANCH  14  15
ATOM     15  C   UNL     1       2.691   3.445  20.971  0.00  0.00    +0.000 C 
ATOM     16  O   UNL     1       3.215   2.498  21.545  0.00  0.00    +0.000 OA
BRANCH  15  17
ATOM     17  C   UNL     1       1.200   3.698  20.825  0.00  0.00    +0.000 C 
ATOM     18 CL   UNL     1       0.915   5.430  20.536  0.00  0.00    +0.000 Cl
ATOM     19 CL   UNL     1       0.520   2.746  19.485  0.00  0.00    +0.000 Cl
ENDBRANCH  15  17
ENDBRANCH  14  15
ENDBRANCH   4  14
TORSDOF 5
ENDMDL
MODEL 6
REMARK VINA RESULT:      -6.1      2.060      2.375
REMARK  Name = 
REMARK  5 active torsions:
REMARK  status: ('A' for Active; 'I' for Inactive)
REMARK    1  A    between atoms: C_2  and  C_16
REMARK    2  A    between atoms: N_3  and  C_4
REMARK    3  A    between atoms: C_7  and  O_8
REMARK    4  A    between atoms: O_8  and  C_9
REMARK    5  A    between atoms: C_9  and  C_11
REMARK                            x       y       z     vdW  Elec       q    Type
REMARK                         _______ _______ _______ _____ _____    ______ ____
ROOT
ATOM      1  C   UNL     1       5.092   4.011  16.716  0.00  0.00    +0.000 A 
ATOM      2  C   UNL     1       3.753   3.670  16.933  0.00  0.00    +0.000 A 
ATOM      3  C   UNL     1       3.138   3.938  18.158  0.00  0.00    +0.000 A 
ATOM      4  C   UNL     1       3.861   4.549  19.180  0.00  0.00    +0.000 A 
ATOM      5  C   UNL     1       5.184   4.926  18.972  0.00  0.00    +0.000 A 
ATOM      6  C   UNL     1       5.802   4.636  17.751  0.00  0.00    +0.000 A 
ENDROOT
BRANCH   1   9
ATOM      7  O   UNL     1       6.192   5.894  14.733  0.00  0.00    +0.000 OA
ATOM      8  C   UNL     1       6.231   4.671  14.583  0.00  0.00    +0.000 C 
ATOM      9  N   UNL     1       5.782   3.742  15.516  0.00  0.00    +0.000 N 
ATOM     10  H   UNL     1       5.993   2.767  15.325  0.00  0.00    +0.000 HD
BRANCH   8  11
ATOM     11  C   UNL     1       6.887   4.082  13.334  0.00  0.00    +0.000 C 
ATOM     12 CL   UNL     1       5.626   3.377  12.303  0.00  0.00    +0.000 Cl
ATOM     13 CL   UNL     1       7.797   5.321  12.442  0.00  0.00    +0.000 Cl
ENDBRANCH   8  11
ENDBRANCH   1   9
BRANCH   4  14
ATOM     14  O   UNL     1       3.157   4.795  20.374  0.00  0.00    +0.000 OA
BRANCH  14  15
ATOM     15  C   UNL     1       1.951   5.518  20.373  0.00  0.00    +0.000 C 
ATOM     16  O   UNL     1       0.840   5.032  20.546  0.00  0.00    +0.000 OA
BRANCH  15  17
ATOM     17  C   UNL     1       2.268   6.985  20.142  0.00  0.00    +0.000 C 
ATOM     18 CL   UNL     1       2.157   7.353  18.405  0.00  0.00    +0.000 Cl
ATOM     19 CL   UNL     1       1.149   8.029  21.048  0.00  0.00    +0.000 Cl
ENDBRANCH  15  17
ENDBRANCH  14  15
ENDBRANCH   4  14
TORSDOF 5
ENDMDL
MODEL 7
REMARK VINA RESULT:      -6.1      1.089      1.873
REMARK  Name = 
REMARK  5 active torsions:
REMARK  status: ('A' for Active; 'I' for Inactive)
REMARK    1  A    between atoms: C_2  and  C_16
REMARK    2  A    between atoms: N_3  and  C_4
REMARK    3  A    between atoms: C_7  and  O_8
REMARK    4  A    between atoms: O_8  and  C_9
REMARK    5  A    between atoms: C_9  and  C_11
REMARK                            x       y       z     vdW  Elec       q    Type
REMARK                         _______ _______ _______ _____ _____    ______ ____
ROOT
ATOM      1  C   UNL     1       4.767   4.553  16.670  0.00  0.00    +0.000 A 
ATOM      2  C   UNL     1       4.589   5.694  17.457  0.00  0.00    +0.000 A 
ATOM      3  C   UNL     1       4.137   5.589  18.775  0.00  0.00    +0.000 A 
ATOM      4  C   UNL     1       3.856   4.336  19.315  0.00  0.00    +0.000 A 
ATOM      5  C   UNL     1       4.059   3.186  18.559  0.00  0.00    +0.000 A 
ATOM      6  C   UNL     1       4.491   3.298  17.232  0.00  0.00    +0.000 A 
ENDROOT
BRANCH   1   9
ATOM      7  O   UNL     1       7.495   4.789  15.577  0.00  0.00    +0.000 OA
ATOM      8  C   UNL     1       6.492   4.761  14.862  0.00  0.00    +0.000 C 
ATOM      9  N   UNL     1       5.191   4.590  15.325  0.00  0.00    +0.000 N 
ATOM     10  H   UNL     1       4.472   4.453  14.621  0.00  0.00    +0.000 HD
BRANCH   8  11
ATOM     11  C   UNL     1       6.642   4.834  13.343  0.00  0.00    +0.000 C 
ATOM     12 CL   UNL     1       8.266   5.434  12.955  0.00  0.00    +0.000 Cl
ATOM     13 CL   UNL     1       6.374   3.243  12.595  0.00  0.00    +0.000 Cl
ENDBRANCH   8  11
ENDBRANCH   1   9
BRANCH   4  14
ATOM     14  O   UNL     1       3.421   4.323  20.654  0.00  0.00    +0.000 OA
BRANCH  14  15
ATOM     15  C   UNL     1       2.611   3.285  21.147  0.00  0.00    +0.000 C 
ATOM     16  O   UNL     1       3.016   2.317  21.780  0.00  0.00    +0.000 OA
BRANCH  15  17
ATOM     17  C   UNL     1       1.169   3.584  20.779  0.00  0.00    +0.000 C 
ATOM     18 CL   UNL     1       0.963   5.335  20.543  0.00  0.00    +0.000 Cl
ATOM     19 CL   UNL     1       0.698   2.720  19.297  0.00  0.00    +0.000 Cl
ENDBRANCH  15  17
ENDBRANCH  14  15
ENDBRANCH   4  14
TORSDOF 5
ENDMDL
MODEL 8
REMARK VINA RESULT:      -6.0      0.477      1.041
REMARK  Name = 
REMARK  5 active torsions:
REMARK  status: ('A' for Active; 'I' for Inactive)
REMARK    1  A    between atoms: C_2  and  C_16
REMARK    2  A    between atoms: N_3  and  C_4
REMARK    3  A    between atoms: C_7  and  O_8
REMARK    4  A    between atoms: O_8  and  C_9
REMARK    5  A    between atoms: C_9  and  C_11
REMARK                            x       y       z     vdW  Elec       q    Type
REMARK                         _______ _______ _______ _____ _____    ______ ____
ROOT
ATOM      1  C   UNL     1       4.927   4.802  16.191  0.00  0.00    +0.000 A 
ATOM      2  C   UNL     1       4.706   3.614  16.893  0.00  0.00    +0.000 A 
ATOM      3  C   UNL     1       4.234   3.639  18.208  0.00  0.00    +0.000 A 
ATOM      4  C   UNL     1       3.982   4.859  18.832  0.00  0.00    +0.000 A 
ATOM      5  C   UNL     1       4.163   6.051  18.139  0.00  0.00    +0.000 A 
ATOM      6  C   UNL     1       4.656   6.021  16.829  0.00  0.00    +0.000 A 
ENDROOT
BRANCH   1   9
ATOM      7  O   UNL     1       7.723   4.792  15.258  0.00  0.00    +0.000 OA
ATOM      8  C   UNL     1       6.766   4.900  14.490  0.00  0.00    +0.000 C 
ATOM      9  N   UNL     1       5.429   4.850  14.874  0.00  0.00    +0.000 N 
ATOM     10  H   UNL     1       4.742   4.820  14.126  0.00  0.00    +0.000 HD
BRANCH   8  11
ATOM     11  C   UNL     1       7.011   5.020  12.986  0.00  0.00    +0.000 C 
ATOM     12 CL   UNL     1       8.629   5.699  12.721  0.00  0.00    +0.000 Cl
ATOM     13 CL   UNL     1       6.862   3.440  12.184  0.00  0.00    +0.000 Cl
ENDBRANCH   8  11
ENDBRANCH   1   9
BRANCH   4  14
ATOM     14  O   UNL     1       3.494   4.789  20.151  0.00  0.00    +0.000 OA
BRANCH  14  15
ATOM     15  C   UNL     1       2.133   4.553  20.413  0.00  0.00    +0.000 C 
ATOM     16  O   UNL     1       1.296   5.422  20.623  0.00  0.00    +0.000 OA
BRANCH  15  17
ATOM     17  C   UNL     1       1.887   3.055  20.372  0.00  0.00    +0.000 C 
ATOM     18 CL   UNL     1       1.253   2.511  21.943  0.00  0.00    +0.000 Cl
ATOM     19 CL   UNL     1       0.736   2.634  19.083  0.00  0.00    +0.000 Cl
ENDBRANCH  15  17
ENDBRANCH  14  15
ENDBRANCH   4  14
TORSDOF 5
ENDMDL
MODEL 9
REMARK VINA RESULT:      -6.0      0.479      1.541
REMARK  Name = 
REMARK  5 active torsions:
REMARK  status: ('A' for Active; 'I' for Inactive)
REMARK    1  A    between atoms: C_2  and  C_16
REMARK    2  A    between atoms: N_3  and  C_4
REMARK    3  A    between atoms: C_7  and  O_8
REMARK    4  A    between atoms: O_8  and  C_9
REMARK    5  A    between atoms: C_9  and  C_11
REMARK                            x       y       z     vdW  Elec       q    Type
REMARK                         _______ _______ _______ _____ _____    ______ ____
ROOT
ATOM      1  C   UNL     1       4.945   5.031  16.238  0.00  0.00    +0.000 A 
ATOM      2  C   UNL     1       4.480   6.173  16.896  0.00  0.00    +0.000 A 
ATOM      3  C   UNL     1       3.990   6.095  18.202  0.00  0.00    +0.000 A 
ATOM      4  C   UNL     1       3.960   4.867  18.860  0.00  0.00    +0.000 A 
ATOM      5  C   UNL     1       4.449   3.725  18.234  0.00  0.00    +0.000 A 
ATOM      6  C   UNL     1       4.919   3.805  16.918  0.00  0.00    +0.000 A 
ENDROOT
BRANCH   1   9
ATOM      7  O   UNL     1       7.704   4.722  15.247  0.00  0.00    +0.000 OA
ATOM      8  C   UNL     1       6.750   4.941  14.500  0.00  0.00    +0.000 C 
ATOM      9  N   UNL     1       5.424   5.034  14.912  0.00  0.00    +0.000 N 
ATOM     10  H   UNL     1       4.723   5.086  14.178  0.00  0.00    +0.000 HD
BRANCH   8  11
ATOM     11  C   UNL     1       6.977   5.046  12.992  0.00  0.00    +0.000 C 
ATOM     12 CL   UNL     1       8.600   5.701  12.700  0.00  0.00    +0.000 Cl
ATOM     13 CL   UNL     1       6.797   3.462  12.205  0.00  0.00    +0.000 Cl
ENDBRANCH   8  11
ENDBRANCH   1   9
BRANCH   4  14
ATOM     14  O   UNL     1       3.465   4.884  20.178  0.00  0.00    +0.000 OA
BRANCH  14  15
ATOM     15  C   UNL     1       2.115   4.605  20.453  0.00  0.00    +0.000 C 
ATOM     16  O   UNL     1       1.260   5.445  20.707  0.00  0.00    +0.000 OA
BRANCH  15  17
ATOM     17  C   UNL     1       1.906   3.104  20.364  0.00  0.00    +0.000 C 
ATOM     18 CL   UNL     1       1.307   2.490  21.922  0.00  0.00    +0.000 Cl
ATOM     19 CL   UNL     1       0.747   2.698  19.076  0.00  0.00    +0.000 Cl
ENDBRANCH  15  17
ENDBRANCH  14  15
ENDBRANCH   4  14
TORSDOF 5
ENDMDL
