MODEL 1
REMARK VINA RESULT:      -7.4      0.000      0.000
REMARK  Name = 
REMARK  9 active torsions:
REMARK  status: ('A' for Active; 'I' for Inactive)
REMARK    1  A    between atoms: C_1  and  O_2
REMARK    2  A    between atoms: O_2  and  C_3
REMARK    3  A    between atoms: C_8  and  C_9
REMARK    4  A    between atoms: C_12  and  C_13
REMARK    5  A    between atoms: C_19  and  C_20
REMARK    6  A    between atoms: C_24  and  C_25
REMARK    7  A    between atoms: C_27  and  C_28
REMARK    8  A    between atoms: C_29  and  C_30
REMARK    9  A    between atoms: C_29  and  C_31
REMARK                            x       y       z     vdW  Elec       q    Type
REMARK                         _______ _______ _______ _____ _____    ______ ____
ROOT
ATOM      1  C   UNL     1       1.273   8.328  20.563  0.00  0.00    +0.000 A 
ATOM      2  N   UNL     1       2.255   8.518  19.687  0.00  0.00    +0.000 NA
ATOM      3  C   UNL     1       2.627   7.239  19.306  0.00  0.00    +0.000 A 
ATOM      4  C   UNL     1       3.591   6.760  18.375  0.00  0.00    +0.000 A 
ATOM      5  C   UNL     1       4.524   7.752  17.744  0.00  0.00    +0.000 C 
ATOM      6  C   UNL     1       3.666   5.336  18.133  0.00  0.00    +0.000 A 
ATOM      7  C   UNL     1       2.824   4.470  18.891  0.00  0.00    +0.000 A 
ATOM      8  C   UNL     1       1.993   4.959  19.934  0.00  0.00    +0.000 A 
ATOM      9  C   UNL     1       1.895   6.334  20.041  0.00  0.00    +0.000 A 
ATOM     10  O   UNL     1       1.065   7.014  20.870  0.00  0.00    +0.000 OA
ATOM     11  C   UNL     1       1.329   4.021  20.909  0.00  0.00    +0.000 C 
ATOM     12  C   UNL     1       2.349   3.500  21.931  0.00  0.00    +0.000 C 
ATOM     13  C   UNL     1       0.634   2.914  20.130  0.00  0.00    +0.000 C 
ATOM     14  C   UNL     1       1.503   2.254  19.061  0.00  0.00    +0.000 C 
ATOM     15  C   UNL     1       2.856   2.941  18.777  0.00  0.00    +0.000 C 
ATOM     16  C   UNL     1       3.509   2.432  17.489  0.00  0.00    +0.000 C 
ATOM     17  C   UNL     1       2.598   2.440  16.256  0.00  0.00    +0.000 C 
ATOM     18  C   UNL     1       4.844   3.167  17.327  0.00  0.00    +0.000 C 
ATOM     19  C   UNL     1       4.770   4.722  17.228  0.00  0.00    +0.000 C 
ENDROOT
BRANCH   1  25
ATOM     20  C   UNL     1      -0.295  10.338  20.347  0.00  0.00    +0.000 A 
ATOM     21  C   UNL     1      -1.100  11.297  20.986  0.00  0.00    +0.000 A 
ATOM     22  C   UNL     1      -1.313  11.249  22.364  0.00  0.00    +0.000 A 
ATOM     23  C   UNL     1      -0.753  10.220  23.109  0.00  0.00    +0.000 A 
ATOM     24  C   UNL     1       0.035   9.252  22.483  0.00  0.00    +0.000 A 
ATOM     25  C   UNL     1       0.300   9.296  21.099  0.00  0.00    +0.000 A 
BRANCH  20  27
ATOM     26  C   UNL     1      -1.291  10.334  18.195  0.00  0.00    +0.000 C 
ATOM     27  O   UNL     1      -0.107  10.364  18.985  0.00  0.00    +0.000 OA
ENDBRANCH  20  27
ENDBRANCH   1  25
BRANCH  19  28
ATOM     28  C   UNL     1       4.802   5.105  15.722  0.00  0.00    +0.000 C 
ATOM     29  C   UNL     1       5.828   4.675  14.948  0.00  0.00    +0.000 C 
ATOM     30  C   UNL     1       7.048   5.500  14.642  0.00  0.00    +0.000 C 
ATOM     31  C   UNL     1       5.826   3.349  14.214  0.00  0.00    +0.000 C 
ENDBRANCH  19  28
TORSDOF 3
ENDMDL
MODEL 2
REMARK VINA RESULT:      -7.4      4.445     11.350
REMARK  Name = 
REMARK  9 active torsions:
REMARK  status: ('A' for Active; 'I' for Inactive)
REMARK    1  A    between atoms: C_1  and  O_2
REMARK    2  A    between atoms: O_2  and  C_3
REMARK    3  A    between atoms: C_8  and  C_9
REMARK    4  A    between atoms: C_12  and  C_13
REMARK    5  A    between atoms: C_19  and  C_20
REMARK    6  A    between atoms: C_24  and  C_25
REMARK    7  A    between atoms: C_27  and  C_28
REMARK    8  A    between atoms: C_29  and  C_30
REMARK    9  A    between atoms: C_29  and  C_31
REMARK                            x       y       z     vdW  Elec       q    Type
REMARK                         _______ _______ _______ _____ _____    ______ ____
ROOT
ATOM      1  C   UNL     1      -1.025  11.052  19.522  0.00  0.00    +0.000 A 
ATOM      2  N   UNL     1      -1.007  12.119  20.315  0.00  0.00    +0.000 NA
ATOM      3  C   UNL     1      -2.316  12.574  20.310  0.00  0.00    +0.000 A 
ATOM      4  C   UNL     1      -2.957  13.651  20.983  0.00  0.00    +0.000 A 
ATOM      5  C   UNL     1      -2.104  14.615  21.757  0.00  0.00    +0.000 C 
ATOM      6  C   UNL     1      -4.388  13.801  20.835  0.00  0.00    +0.000 A 
ATOM      7  C   UNL     1      -5.080  12.910  19.963  0.00  0.00    +0.000 A 
ATOM      8  C   UNL     1      -4.392  11.952  19.172  0.00  0.00    +0.000 A 
ATOM      9  C   UNL     1      -3.045  11.796  19.440  0.00  0.00    +0.000 A 
ATOM     10  O   UNL     1      -2.226  10.856  18.904  0.00  0.00    +0.000 OA
ATOM     11  C   UNL     1      -5.087  11.216  18.056  0.00  0.00    +0.000 C 
ATOM     12  C   UNL     1      -5.264  12.133  16.838  0.00  0.00    +0.000 C 
ATOM     13  C   UNL     1      -6.398  10.650  18.582  0.00  0.00    +0.000 C 
ATOM     14  C   UNL     1      -7.255  11.654  19.350  0.00  0.00    +0.000 C 
ATOM     15  C   UNL     1      -6.582  13.007  19.669  0.00  0.00    +0.000 C 
ATOM     16  C   UNL     1      -7.364  13.816  20.708  0.00  0.00    +0.000 C 
ATOM     17  C   UNL     1      -7.729  13.048  21.984  0.00  0.00    +0.000 C 
ATOM     18  C   UNL     1      -6.614  15.135  20.924  0.00  0.00    +0.000 C 
ATOM     19  C   UNL     1      -5.144  15.019  21.434  0.00  0.00    +0.000 C 
ENDROOT
BRANCH   1  25
ATOM     20  C   UNL     1       0.378   9.091  20.376  0.00  0.00    +0.000 A 
ATOM     21  C   UNL     1       1.453   8.212  20.161  0.00  0.00    +0.000 A 
ATOM     22  C   UNL     1       2.159   8.223  18.957  0.00  0.00    +0.000 A 
ATOM     23  C   UNL     1       1.770   9.088  17.943  0.00  0.00    +0.000 A 
ATOM     24  C   UNL     1       0.692   9.955  18.137  0.00  0.00    +0.000 A 
ATOM     25  C   UNL     1      -0.014   9.993  19.357  0.00  0.00    +0.000 A 
BRANCH  20  27
ATOM     26  C   UNL     1       0.313   9.617  22.687  0.00  0.00    +0.000 C 
ATOM     27  O   UNL     1      -0.338   9.062  21.549  0.00  0.00    +0.000 OA
ENDBRANCH  20  27
ENDBRANCH   1  25
BRANCH  19  28
ATOM     28  C   UNL     1      -5.160  15.206  22.977  0.00  0.00    +0.000 C 
ATOM     29  C   UNL     1      -5.079  16.455  23.497  0.00  0.00    +0.000 C 
ATOM     30  C   UNL     1      -3.795  17.085  23.962  0.00  0.00    +0.000 C 
ATOM     31  C   UNL     1      -6.286  17.330  23.766  0.00  0.00    +0.000 C 
ENDBRANCH  19  28
TORSDOF 3
ENDMDL
MODEL 3
REMARK VINA RESULT:      -7.0      4.939     12.135
REMARK  Name = 
REMARK  9 active torsions:
REMARK  status: ('A' for Active; 'I' for Inactive)
REMARK    1  A    between atoms: C_1  and  O_2
REMARK    2  A    between atoms: O_2  and  C_3
REMARK    3  A    between atoms: C_8  and  C_9
REMARK    4  A    between atoms: C_12  and  C_13
REMARK    5  A    between atoms: C_19  and  C_20
REMARK    6  A    between atoms: C_24  and  C_25
REMARK    7  A    between atoms: C_27  and  C_28
REMARK    8  A    between atoms: C_29  and  C_30
REMARK    9  A    between atoms: C_29  and  C_31
REMARK                            x       y       z     vdW  Elec       q    Type
REMARK                         _______ _______ _______ _____ _____    ______ ____
ROOT
ATOM      1  C   UNL     1      -1.473  11.921  20.235  0.00  0.00    +0.000 A 
ATOM      2  N   UNL     1      -1.253  12.971  21.020  0.00  0.00    +0.000 NA
ATOM      3  C   UNL     1      -2.518  13.466  21.295  0.00  0.00    +0.000 A 
ATOM      4  C   UNL     1      -2.968  14.549  22.101  0.00  0.00    +0.000 A 
ATOM      5  C   UNL     1      -1.941  15.471  22.691  0.00  0.00    +0.000 C 
ATOM      6  C   UNL     1      -4.393  14.744  22.258  0.00  0.00    +0.000 A 
ATOM      7  C   UNL     1      -5.281  13.891  21.540  0.00  0.00    +0.000 A 
ATOM      8  C   UNL     1      -4.806  12.928  20.610  0.00  0.00    +0.000 A 
ATOM      9  C   UNL     1      -3.439  12.727  20.587  0.00  0.00    +0.000 A 
ATOM     10  O   UNL     1      -2.783  11.773  19.880  0.00  0.00    +0.000 OA
ATOM     11  C   UNL     1      -5.744  12.235  19.656  0.00  0.00    +0.000 C 
ATOM     12  C   UNL     1      -6.141  13.180  18.513  0.00  0.00    +0.000 C 
ATOM     13  C   UNL     1      -6.934  11.698  20.437  0.00  0.00    +0.000 C 
ATOM     14  C   UNL     1      -7.577  12.713  21.381  0.00  0.00    +0.000 C 
ATOM     15  C   UNL     1      -6.807  14.038  21.568  0.00  0.00    +0.000 C 
ATOM     16  C   UNL     1      -7.328  14.851  22.758  0.00  0.00    +0.000 C 
ATOM     17  C   UNL     1      -7.443  14.070  24.072  0.00  0.00    +0.000 C 
ATOM     18  C   UNL     1      -6.505  16.142  22.829  0.00  0.00    +0.000 C 
ATOM     19  C   UNL     1      -4.966  15.973  23.017  0.00  0.00    +0.000 C 
ENDROOT
BRANCH   1  25
ATOM     20  C   UNL     1       0.040   9.925  20.755  0.00  0.00    +0.000 A 
ATOM     21  C   UNL     1       1.014   9.018  20.304  0.00  0.00    +0.000 A 
ATOM     22  C   UNL     1       1.421   9.009  18.970  0.00  0.00    +0.000 A 
ATOM     23  C   UNL     1       0.831   9.882  18.067  0.00  0.00    +0.000 A 
ATOM     24  C   UNL     1      -0.151  10.777  18.499  0.00  0.00    +0.000 A 
ATOM     25  C   UNL     1      -0.554  10.836  19.848  0.00  0.00    +0.000 A 
BRANCH  20  27
ATOM     26  C   UNL     1       0.536   9.392  23.012  0.00  0.00    +0.000 C 
ATOM     27  O   UNL     1      -0.385   9.917  22.062  0.00  0.00    +0.000 OA
ENDBRANCH  20  27
ENDBRANCH   1  25
BRANCH  19  28
ATOM     28  C   UNL     1      -4.652  16.130  24.532  0.00  0.00    +0.000 C 
ATOM     29  C   UNL     1      -4.320  17.350  25.019  0.00  0.00    +0.000 C 
ATOM     30  C   UNL     1      -2.904  17.815  25.216  0.00  0.00    +0.000 C 
ATOM     31  C   UNL     1      -5.336  18.357  25.519  0.00  0.00    +0.000 C 
ENDBRANCH  19  28
TORSDOF 3
ENDMDL
MODEL 4
REMARK VINA RESULT:      -6.9      4.015     10.857
REMARK  Name = 
REMARK  9 active torsions:
REMARK  status: ('A' for Active; 'I' for Inactive)
REMARK    1  A    between atoms: C_1  and  O_2
REMARK    2  A    between atoms: O_2  and  C_3
REMARK    3  A    between atoms: C_8  and  C_9
REMARK    4  A    between atoms: C_12  and  C_13
REMARK    5  A    between atoms: C_19  and  C_20
REMARK    6  A    between atoms: C_24  and  C_25
REMARK    7  A    between atoms: C_27  and  C_28
REMARK    8  A    between atoms: C_29  and  C_30
REMARK    9  A    between atoms: C_29  and  C_31
REMARK                            x       y       z     vdW  Elec       q    Type
REMARK                         _______ _______ _______ _____ _____    ______ ____
ROOT
ATOM      1  C   UNL     1      -0.788  10.791  19.455  0.00  0.00    +0.000 A 
ATOM      2  N   UNL     1      -0.797  11.818  20.298  0.00  0.00    +0.000 NA
ATOM      3  C   UNL     1      -2.105  12.273  20.272  0.00  0.00    +0.000 A 
ATOM      4  C   UNL     1      -2.769  13.317  20.975  0.00  0.00    +0.000 A 
ATOM      5  C   UNL     1      -1.944  14.243  21.821  0.00  0.00    +0.000 C 
ATOM      6  C   UNL     1      -4.196  13.474  20.787  0.00  0.00    +0.000 A 
ATOM      7  C   UNL     1      -4.857  12.625  19.853  0.00  0.00    +0.000 A 
ATOM      8  C   UNL     1      -4.143  11.706  19.039  0.00  0.00    +0.000 A 
ATOM      9  C   UNL     1      -2.805  11.538  19.342  0.00  0.00    +0.000 A 
ATOM     10  O   UNL     1      -1.968  10.624  18.789  0.00  0.00    +0.000 OA
ATOM     11  C   UNL     1      -4.801  11.024  17.868  0.00  0.00    +0.000 C 
ATOM     12  C   UNL     1      -4.939  11.998  16.690  0.00  0.00    +0.000 C 
ATOM     13  C   UNL     1      -6.127  10.433  18.323  0.00  0.00    +0.000 C 
ATOM     14  C   UNL     1      -7.010  11.400  19.110  0.00  0.00    +0.000 C 
ATOM     15  C   UNL     1      -6.349  12.735  19.515  0.00  0.00    +0.000 C 
ATOM     16  C   UNL     1      -7.166  13.494  20.565  0.00  0.00    +0.000 C 
ATOM     17  C   UNL     1      -7.570  12.666  21.791  0.00  0.00    +0.000 C 
ATOM     18  C   UNL     1      -6.425  14.801  20.869  0.00  0.00    +0.000 C 
ATOM     19  C   UNL     1      -4.972  14.662  21.420  0.00  0.00    +0.000 C 
ENDROOT
BRANCH   1  25
ATOM     20  C   UNL     1       0.679   8.871  20.295  0.00  0.00    +0.000 A 
ATOM     21  C   UNL     1       1.756   8.000  20.055  0.00  0.00    +0.000 A 
ATOM     22  C   UNL     1       2.408   7.990  18.821  0.00  0.00    +0.000 A 
ATOM     23  C   UNL     1       1.963   8.823  17.804  0.00  0.00    +0.000 A 
ATOM     24  C   UNL     1       0.883   9.680  18.023  0.00  0.00    +0.000 A 
ATOM     25  C   UNL     1       0.230   9.741  19.272  0.00  0.00    +0.000 A 
BRANCH  20  27
ATOM     26  C   UNL     1       0.746   9.365  22.613  0.00  0.00    +0.000 C 
ATOM     27  O   UNL     1       0.016   8.863  21.498  0.00  0.00    +0.000 OA
ENDBRANCH  20  27
ENDBRANCH   1  25
BRANCH  19  28
ATOM     28  C   UNL     1      -5.038  14.775  22.968  0.00  0.00    +0.000 C 
ATOM     29  C   UNL     1      -5.206  13.653  23.710  0.00  0.00    +0.000 C 
ATOM     30  C   UNL     1      -6.541  13.177  24.215  0.00  0.00    +0.000 C 
ATOM     31  C   UNL     1      -4.059  12.798  24.208  0.00  0.00    +0.000 C 
ENDBRANCH  19  28
TORSDOF 3
ENDMDL
MODEL 5
REMARK VINA RESULT:      -6.9      2.394      9.808
REMARK  Name = 
REMARK  9 active torsions:
REMARK  status: ('A' for Active; 'I' for Inactive)
REMARK    1  A    between atoms: C_1  and  O_2
REMARK    2  A    between atoms: O_2  and  C_3
REMARK    3  A    between atoms: C_8  and  C_9
REMARK    4  A    between atoms: C_12  and  C_13
REMARK    5  A    between atoms: C_19  and  C_20
REMARK    6  A    between atoms: C_24  and  C_25
REMARK    7  A    between atoms: C_27  and  C_28
REMARK    8  A    between atoms: C_29  and  C_30
REMARK    9  A    between atoms: C_29  and  C_31
REMARK                            x       y       z     vdW  Elec       q    Type
REMARK                         _______ _______ _______ _____ _____    ______ ____
ROOT
ATOM      1  C   UNL     1       1.801   8.490  19.931  0.00  0.00    +0.000 A 
ATOM      2  N   UNL     1       1.049   8.440  21.026  0.00  0.00    +0.000 NA
ATOM      3  C   UNL     1       0.564   9.730  21.170  0.00  0.00    +0.000 A 
ATOM      4  C   UNL     1      -0.319  10.320  22.117  0.00  0.00    +0.000 A 
ATOM      5  C   UNL     1      -0.744   9.500  23.301  0.00  0.00    +0.000 C 
ATOM      6  C   UNL     1      -0.710  11.700  21.926  0.00  0.00    +0.000 A 
ATOM      7  C   UNL     1      -0.136  12.427  20.842  0.00  0.00    +0.000 A 
ATOM      8  C   UNL     1       0.871  11.865  20.014  0.00  0.00    +0.000 A 
ATOM      9  C   UNL     1       1.121  10.517  20.188  0.00  0.00    +0.000 A 
ATOM     10  O   UNL     1       1.939   9.750  19.424  0.00  0.00    +0.000 OA
ATOM     11  C   UNL     1       1.668  12.721  19.063  0.00  0.00    +0.000 C 
ATOM     12  C   UNL     1       2.717  13.539  19.829  0.00  0.00    +0.000 C 
ATOM     13  C   UNL     1       0.708  13.579  18.251  0.00  0.00    +0.000 C 
ATOM     14  C   UNL     1      -0.341  14.312  19.085  0.00  0.00    +0.000 C 
ATOM     15  C   UNL     1      -0.417  13.911  20.574  0.00  0.00    +0.000 C 
ATOM     16  C   UNL     1      -1.686  14.432  21.254  0.00  0.00    +0.000 C 
ATOM     17  C   UNL     1      -2.991  14.118  20.514  0.00  0.00    +0.000 C 
ATOM     18  C   UNL     1      -1.638  13.991  22.721  0.00  0.00    +0.000 C 
ATOM     19  C   UNL     1      -1.569  12.454  22.979  0.00  0.00    +0.000 C 
ENDROOT
BRANCH   1  25
ATOM     20  C   UNL     1       2.331   6.024  19.506  0.00  0.00    +0.000 A 
ATOM     21  C   UNL     1       3.006   5.066  18.731  0.00  0.00    +0.000 A 
ATOM     22  C   UNL     1       3.712   5.439  17.587  0.00  0.00    +0.000 A 
ATOM     23  C   UNL     1       3.718   6.769  17.187  0.00  0.00    +0.000 A 
ATOM     24  C   UNL     1       3.036   7.728  17.940  0.00  0.00    +0.000 A 
ATOM     25  C   UNL     1       2.347   7.387  19.122  0.00  0.00    +0.000 A 
BRANCH  20  27
ATOM     26  C   UNL     1       1.290   4.273  20.719  0.00  0.00    +0.000 C 
ATOM     27  O   UNL     1       1.610   5.656  20.617  0.00  0.00    +0.000 OA
ENDBRANCH  20  27
ENDBRANCH   1  25
BRANCH  19  28
ATOM     28  C   UNL     1      -3.013  11.955  23.264  0.00  0.00    +0.000 C 
ATOM     29  C   UNL     1      -3.887  12.773  23.898  0.00  0.00    +0.000 C 
ATOM     30  C   UNL     1      -4.146  12.734  25.379  0.00  0.00    +0.000 C 
ATOM     31  C   UNL     1      -4.784  13.760  23.178  0.00  0.00    +0.000 C 
ENDBRANCH  19  28
TORSDOF 3
ENDMDL
MODEL 6
REMARK VINA RESULT:      -6.9      8.169      9.731
REMARK  Name = 
REMARK  9 active torsions:
REMARK  status: ('A' for Active; 'I' for Inactive)
REMARK    1  A    between atoms: C_1  and  O_2
REMARK    2  A    between atoms: O_2  and  C_3
REMARK    3  A    between atoms: C_8  and  C_9
REMARK    4  A    between atoms: C_12  and  C_13
REMARK    5  A    between atoms: C_19  and  C_20
REMARK    6  A    between atoms: C_24  and  C_25
REMARK    7  A    between atoms: C_27  and  C_28
REMARK    8  A    between atoms: C_29  and  C_30
REMARK    9  A    between atoms: C_29  and  C_31
REMARK                            x       y       z     vdW  Elec       q    Type
REMARK                         _______ _______ _______ _____ _____    ______ ____
ROOT
ATOM      1  C   UNL     1       3.955  15.974  19.823  0.00  0.00    +0.000 A 
ATOM      2  N   UNL     1       4.935  16.064  18.929  0.00  0.00    +0.000 NA
ATOM      3  C   UNL     1       6.001  15.403  19.519  0.00  0.00    +0.000 A 
ATOM      4  C   UNL     1       7.320  15.119  19.066  0.00  0.00    +0.000 A 
ATOM      5  C   UNL     1       7.777  15.734  17.776  0.00  0.00    +0.000 C 
ATOM      6  C   UNL     1       8.174  14.305  19.904  0.00  0.00    +0.000 A 
ATOM      7  C   UNL     1       7.684  13.888  21.176  0.00  0.00    +0.000 A 
ATOM      8  C   UNL     1       6.429  14.327  21.676  0.00  0.00    +0.000 A 
ATOM      9  C   UNL     1       5.626  15.014  20.785  0.00  0.00    +0.000 A 
ATOM     10  O   UNL     1       4.346  15.409  21.002  0.00  0.00    +0.000 OA
ATOM     11  C   UNL     1       6.046  14.117  23.118  0.00  0.00    +0.000 C 
ATOM     12  C   UNL     1       6.783  15.118  24.019  0.00  0.00    +0.000 C 
ATOM     13  C   UNL     1       6.304  12.665  23.490  0.00  0.00    +0.000 C 
ATOM     14  C   UNL     1       7.683  12.147  23.087  0.00  0.00    +0.000 C 
ATOM     15  C   UNL     1       8.514  13.081  22.182  0.00  0.00    +0.000 C 
ATOM     16  C   UNL     1       9.719  12.370  21.559  0.00  0.00    +0.000 C 
ATOM     17  C   UNL     1       9.395  11.043  20.862  0.00  0.00    +0.000 C 
ATOM     18  C   UNL     1      10.470  13.397  20.706  0.00  0.00    +0.000 C 
ATOM     19  C   UNL     1       9.664  14.053  19.543  0.00  0.00    +0.000 C 
ENDROOT
BRANCH   1  25
ATOM     20  C   UNL     1       1.547  15.245  19.364  0.00  0.00    +0.000 A 
ATOM     21  C   UNL     1       0.221  15.618  19.085  0.00  0.00    +0.000 A 
ATOM     22  C   UNL     1      -0.159  16.960  19.075  0.00  0.00    +0.000 A 
ATOM     23  C   UNL     1       0.776  17.939  19.383  0.00  0.00    +0.000 A 
ATOM     24  C   UNL     1       2.093  17.581  19.680  0.00  0.00    +0.000 A 
ATOM     25  C   UNL     1       2.515  16.236  19.658  0.00  0.00    +0.000 A 
BRANCH  20  27
ATOM     26  C   UNL     1       2.105  13.292  18.141  0.00  0.00    +0.000 C 
ATOM     27  O   UNL     1       1.917  13.922  19.404  0.00  0.00    +0.000 OA
ENDBRANCH  20  27
ENDBRANCH   1  25
BRANCH  19  28
ATOM     28  C   UNL     1       9.997  13.278  18.237  0.00  0.00    +0.000 C 
ATOM     29  C   UNL     1      11.286  12.963  17.961  0.00  0.00    +0.000 C 
ATOM     30  C   UNL     1      12.176  13.789  17.073  0.00  0.00    +0.000 C 
ATOM     31  C   UNL     1      11.956  11.688  18.431  0.00  0.00    +0.000 C 
ENDBRANCH  19  28
TORSDOF 3
ENDMDL
MODEL 7
REMARK VINA RESULT:      -6.8      2.613      9.539
REMARK  Name = 
REMARK  9 active torsions:
REMARK  status: ('A' for Active; 'I' for Inactive)
REMARK    1  A    between atoms: C_1  and  O_2
REMARK    2  A    between atoms: O_2  and  C_3
REMARK    3  A    between atoms: C_8  and  C_9
REMARK    4  A    between atoms: C_12  and  C_13
REMARK    5  A    between atoms: C_19  and  C_20
REMARK    6  A    between atoms: C_24  and  C_25
REMARK    7  A    between atoms: C_27  and  C_28
REMARK    8  A    between atoms: C_29  and  C_30
REMARK    9  A    between atoms: C_29  and  C_31
REMARK                            x       y       z     vdW  Elec       q    Type
REMARK                         _______ _______ _______ _____ _____    ______ ____
ROOT
ATOM      1  C   UNL     1       1.376   9.281  18.653  0.00  0.00    +0.000 A 
ATOM      2  N   UNL     1       1.489  10.281  19.521  0.00  0.00    +0.000 NA
ATOM      3  C   UNL     1       0.250  10.900  19.496  0.00  0.00    +0.000 A 
ATOM      4  C   UNL     1      -0.283  12.004  20.219  0.00  0.00    +0.000 A 
ATOM      5  C   UNL     1       0.645  12.796  21.093  0.00  0.00    +0.000 C 
ATOM      6  C   UNL     1      -1.675  12.346  20.024  0.00  0.00    +0.000 A 
ATOM      7  C   UNL     1      -2.430  11.611  19.064  0.00  0.00    +0.000 A 
ATOM      8  C   UNL     1      -1.829  10.627  18.234  0.00  0.00    +0.000 A 
ATOM      9  C   UNL     1      -0.528  10.282  18.543  0.00  0.00    +0.000 A 
ATOM     10  O   UNL     1       0.192   9.282  17.974  0.00  0.00    +0.000 OA
ATOM     11  C   UNL     1      -2.557  10.062  17.041  0.00  0.00    +0.000 C 
ATOM     12  C   UNL     1      -2.557  11.073  15.886  0.00  0.00    +0.000 C 
ATOM     13  C   UNL     1      -3.952   9.636  17.471  0.00  0.00    +0.000 C 
ATOM     14  C   UNL     1      -4.713  10.689  18.275  0.00  0.00    +0.000 C 
ATOM     15  C   UNL     1      -3.892  11.919  18.717  0.00  0.00    +0.000 C 
ATOM     16  C   UNL     1      -4.616  12.752  19.779  0.00  0.00    +0.000 C 
ATOM     17  C   UNL     1      -5.136  11.954  20.981  0.00  0.00    +0.000 C 
ATOM     18  C   UNL     1      -3.718  13.946  20.120  0.00  0.00    +0.000 C 
ATOM     19  C   UNL     1      -2.301  13.609  20.678  0.00  0.00    +0.000 C 
ENDROOT
BRANCH   1  25
ATOM     20  C   UNL     1       2.409   7.057  19.382  0.00  0.00    +0.000 A 
ATOM     21  C   UNL     1       3.378   6.063  19.162  0.00  0.00    +0.000 A 
ATOM     22  C   UNL     1       4.209   6.109  18.042  0.00  0.00    +0.000 A 
ATOM     23  C   UNL     1       4.052   7.128  17.113  0.00  0.00    +0.000 A 
ATOM     24  C   UNL     1       3.081   8.112  17.311  0.00  0.00    +0.000 A 
ATOM     25  C   UNL     1       2.253   8.114  18.453  0.00  0.00    +0.000 A 
BRANCH  20  27
ATOM     26  C   UNL     1       1.323   5.699  20.995  0.00  0.00    +0.000 C 
ATOM     27  O   UNL     1       1.568   6.999  20.468  0.00  0.00    +0.000 OA
ENDBRANCH  20  27
ENDBRANCH   1  25
BRANCH  19  28
ATOM     28  C   UNL     1      -2.369  13.693  22.229  0.00  0.00    +0.000 C 
ATOM     29  C   UNL     1      -2.129  14.878  22.842  0.00  0.00    +0.000 C 
ATOM     30  C   UNL     1      -0.791  15.272  23.405  0.00  0.00    +0.000 C 
ATOM     31  C   UNL     1      -3.203  15.908  23.124  0.00  0.00    +0.000 C 
ENDBRANCH  19  28
TORSDOF 3
ENDMDL
MODEL 8
REMARK VINA RESULT:      -6.7      3.069     10.049
REMARK  Name = 
REMARK  9 active torsions:
REMARK  status: ('A' for Active; 'I' for Inactive)
REMARK    1  A    between atoms: C_1  and  O_2
REMARK    2  A    between atoms: O_2  and  C_3
REMARK    3  A    between atoms: C_8  and  C_9
REMARK    4  A    between atoms: C_12  and  C_13
REMARK    5  A    between atoms: C_19  and  C_20
REMARK    6  A    between atoms: C_24  and  C_25
REMARK    7  A    between atoms: C_27  and  C_28
REMARK    8  A    between atoms: C_29  and  C_30
REMARK    9  A    between atoms: C_29  and  C_31
REMARK                            x       y       z     vdW  Elec       q    Type
REMARK                         _______ _______ _______ _____ _____    ______ ____
ROOT
ATOM      1  C   UNL     1       0.645   9.823  19.046  0.00  0.00    +0.000 A 
ATOM      2  N   UNL     1       0.725  10.843  19.894  0.00  0.00    +0.000 NA
ATOM      3  C   UNL     1      -0.528  11.434  19.839  0.00  0.00    +0.000 A 
ATOM      4  C   UNL     1      -1.094  12.541  20.531  0.00  0.00    +0.000 A 
ATOM      5  C   UNL     1      -0.196  13.372  21.401  0.00  0.00    +0.000 C 
ATOM      6  C   UNL     1      -2.491  12.849  20.310  0.00  0.00    +0.000 A 
ATOM      7  C   UNL     1      -3.216  12.077  19.356  0.00  0.00    +0.000 A 
ATOM      8  C   UNL     1      -2.583  11.090  18.555  0.00  0.00    +0.000 A 
ATOM      9  C   UNL     1      -1.278  10.779  18.889  0.00  0.00    +0.000 A 
ATOM     10  O   UNL     1      -0.530   9.784  18.351  0.00  0.00    +0.000 OA
ATOM     11  C   UNL     1      -3.281  10.484  17.365  0.00  0.00    +0.000 C 
ATOM     12  C   UNL     1      -3.287  11.470  16.188  0.00  0.00    +0.000 C 
ATOM     13  C   UNL     1      -4.673  10.036  17.785  0.00  0.00    +0.000 C 
ATOM     14  C   UNL     1      -5.467  11.089  18.556  0.00  0.00    +0.000 C 
ATOM     15  C   UNL     1      -4.679  12.346  18.983  0.00  0.00    +0.000 C 
ATOM     16  C   UNL     1      -5.436  13.184  20.018  0.00  0.00    +0.000 C 
ATOM     17  C   UNL     1      -5.955  12.401  21.229  0.00  0.00    +0.000 C 
ATOM     18  C   UNL     1      -4.569  14.405  20.345  0.00  0.00    +0.000 C 
ATOM     19  C   UNL     1      -3.152  14.111  20.929  0.00  0.00    +0.000 C 
ENDROOT
BRANCH   1  25
ATOM     20  C   UNL     1       1.814   7.708  19.885  0.00  0.00    +0.000 A 
ATOM     21  C   UNL     1       2.802   6.730  19.680  0.00  0.00    +0.000 A 
ATOM     22  C   UNL     1       3.547   6.702  18.500  0.00  0.00    +0.000 A 
ATOM     23  C   UNL     1       3.283   7.628  17.500  0.00  0.00    +0.000 A 
ATOM     24  C   UNL     1       2.291   8.594  17.685  0.00  0.00    +0.000 A 
ATOM     25  C   UNL     1       1.550   8.671  18.882  0.00  0.00    +0.000 A 
BRANCH  20  27
ATOM     26  C   UNL     1       1.473   8.638  22.040  0.00  0.00    +0.000 C 
ATOM     27  O   UNL     1       1.058   7.721  21.033  0.00  0.00    +0.000 OA
ENDBRANCH  20  27
ENDBRANCH   1  25
BRANCH  19  28
ATOM     28  C   UNL     1      -3.243  14.226  22.477  0.00  0.00    +0.000 C 
ATOM     29  C   UNL     1      -3.085  15.437  23.064  0.00  0.00    +0.000 C 
ATOM     30  C   UNL     1      -1.781  15.927  23.631  0.00  0.00    +0.000 C 
ATOM     31  C   UNL     1      -4.225  16.404  23.311  0.00  0.00    +0.000 C 
ENDBRANCH  19  28
TORSDOF 3
ENDMDL
MODEL 9
REMARK VINA RESULT:      -6.7      9.191     11.103
REMARK  Name = 
REMARK  9 active torsions:
REMARK  status: ('A' for Active; 'I' for Inactive)
REMARK    1  A    between atoms: C_1  and  O_2
REMARK    2  A    between atoms: O_2  and  C_3
REMARK    3  A    between atoms: C_8  and  C_9
REMARK    4  A    between atoms: C_12  and  C_13
REMARK    5  A    between atoms: C_19  and  C_20
REMARK    6  A    between atoms: C_24  and  C_25
REMARK    7  A    between atoms: C_27  and  C_28
REMARK    8  A    between atoms: C_29  and  C_30
REMARK    9  A    between atoms: C_29  and  C_31
REMARK                            x       y       z     vdW  Elec       q    Type
REMARK                         _______ _______ _______ _____ _____    ______ ____
ROOT
ATOM      1  C   UNL     1       7.096  12.430  24.534  0.00  0.00    +0.000 A 
ATOM      2  N   UNL     1       7.989  11.903  23.701  0.00  0.00    +0.000 NA
ATOM      3  C   UNL     1       7.918  12.702  22.571  0.00  0.00    +0.000 A 
ATOM      4  C   UNL     1       8.638  12.688  21.343  0.00  0.00    +0.000 A 
ATOM      5  C   UNL     1       9.570  11.542  21.078  0.00  0.00    +0.000 C 
ATOM      6  C   UNL     1       8.385  13.743  20.386  0.00  0.00    +0.000 A 
ATOM      7  C   UNL     1       7.377  14.706  20.683  0.00  0.00    +0.000 A 
ATOM      8  C   UNL     1       6.556  14.598  21.837  0.00  0.00    +0.000 A 
ATOM      9  C   UNL     1       6.918  13.630  22.754  0.00  0.00    +0.000 A 
ATOM     10  O   UNL     1       6.363  13.438  23.977  0.00  0.00    +0.000 OA
ATOM     11  C   UNL     1       5.319  15.445  21.998  0.00  0.00    +0.000 C 
ATOM     12  C   UNL     1       4.186  14.910  21.111  0.00  0.00    +0.000 C 
ATOM     13  C   UNL     1       5.675  16.896  21.715  0.00  0.00    +0.000 C 
ATOM     14  C   UNL     1       6.464  17.111  20.424  0.00  0.00    +0.000 C 
ATOM     15  C   UNL     1       6.969  15.831  19.724  0.00  0.00    +0.000 C 
ATOM     16  C   UNL     1       8.012  16.130  18.644  0.00  0.00    +0.000 C 
ATOM     17  C   UNL     1       9.172  17.025  19.097  0.00  0.00    +0.000 C 
ATOM     18  C   UNL     1       8.418  14.794  18.013  0.00  0.00    +0.000 C 
ATOM     19  C   UNL     1       9.035  13.733  18.975  0.00  0.00    +0.000 C 
ENDROOT
BRANCH   1  25
ATOM     20  C   UNL     1       7.457  13.013  26.998  0.00  0.00    +0.000 A 
ATOM     21  C   UNL     1       7.346  12.624  28.344  0.00  0.00    +0.000 A 
ATOM     22  C   UNL     1       6.719  11.428  28.695  0.00  0.00    +0.000 A 
ATOM     23  C   UNL     1       6.164  10.629  27.705  0.00  0.00    +0.000 A 
ATOM     24  C   UNL     1       6.252  11.013  26.364  0.00  0.00    +0.000 A 
ATOM     25  C   UNL     1       6.913  12.196  25.977  0.00  0.00    +0.000 A 
BRANCH  20  27
ATOM     26  C   UNL     1       9.419  14.345  27.005  0.00  0.00    +0.000 C 
ATOM     27  O   UNL     1       8.047  14.205  26.651  0.00  0.00    +0.000 OA
ENDBRANCH  20  27
ENDBRANCH   1  25
BRANCH  19  28
ATOM     28  C   UNL     1      10.583  13.831  18.862  0.00  0.00    +0.000 C 
ATOM     29  C   UNL     1      11.237  13.039  17.979  0.00  0.00    +0.000 C 
ATOM     30  C   UNL     1      11.874  11.727  18.345  0.00  0.00    +0.000 C 
ATOM     31  C   UNL     1      11.493  13.427  16.537  0.00  0.00    +0.000 C 
ENDBRANCH  19  28
TORSDOF 3
ENDMDL
