MODEL 1
REMARK VINA RESULT:      -8.4      0.000      0.000
REMARK  Name = 
REMARK  6 active torsions:
REMARK  status: ('A' for Active; 'I' for Inactive)
REMARK    1  A    between atoms: C_1  and  C_2
REMARK    2  A    between atoms: C_3  and  C_4
REMARK    3  A    between atoms: C_8  and  O_9
REMARK    4  A    between atoms: O_9  and  C_10
REMARK    5  A    between atoms: C_10  and  S_11
REMARK    6  A    between atoms: S_11  and  C_14
REMARK                            x       y       z     vdW  Elec       q    Type
REMARK                         _______ _______ _______ _____ _____    ______ ____
ROOT
ATOM      1  C   UNL     1      -0.983  11.495  22.630  0.00  0.00    +0.000 C 
ATOM      2  C   UNL     1      -0.224  10.574  21.710  0.00  0.00    +0.000 A 
ATOM      3  C   UNL     1      -0.224  10.618  20.359  0.00  0.00    +0.000 A 
ATOM      4  C   UNL     1      -1.036  11.587  19.537  0.00  0.00    +0.000 C 
ATOM      5  C   UNL     1       0.635   9.670  19.618  0.00  0.00    +0.000 A 
ATOM      6  C   UNL     1       0.795   9.687  18.224  0.00  0.00    +0.000 A 
ATOM      7  C   UNL     1       1.654   8.785  17.575  0.00  0.00    +0.000 A 
ATOM      8  C   UNL     1       2.359   7.834  18.309  0.00  0.00    +0.000 A 
ATOM      9  C   UNL     1       2.213   7.805  19.693  0.00  0.00    +0.000 A 
ATOM     10  C   UNL     1       1.361   8.718  20.323  0.00  0.00    +0.000 A 
ATOM     11  O   UNL     1       1.296   8.639  21.722  0.00  0.00    +0.000 OA
ATOM     12  C   UNL     1       0.571   9.557  22.462  0.00  0.00    +0.000 A 
ATOM     13  O   UNL     1       0.576   9.523  23.688  0.00  0.00    +0.000 OA
ENDROOT
BRANCH   8  14
ATOM     14  O   UNL     1       3.254   6.939  17.796  0.00  0.00    +0.000 OA
BRANCH  14  15
ATOM     15  C   UNL     1       4.114   6.291  18.742  0.00  0.00    +0.000 C 
BRANCH  15  16
ATOM     16  S   UNL     1       4.284   4.517  18.497  0.00  0.00    +0.000 S 
ATOM     17  O   UNL     1       3.893   4.180  17.140  0.00  0.00    +0.000 OA
ATOM     18  O   UNL     1       5.589   4.117  18.997  0.00  0.00    +0.000 OA
BRANCH  16  19
ATOM     19  C   UNL     1       3.067   3.824  19.595  0.00  0.00    +0.000 A 
ATOM     20  C   UNL     1       3.484   3.020  20.660  0.00  0.00    +0.000 A 
ATOM     21  C   UNL     1       2.537   2.490  21.533  0.00  0.00    +0.000 A 
ATOM     22  C   UNL     1       1.181   2.771  21.349  0.00  0.00    +0.000 A 
ATOM     23  C   UNL     1       0.771   3.593  20.296  0.00  0.00    +0.000 A 
ATOM     24  C   UNL     1       1.714   4.129  19.418  0.00  0.00    +0.000 A 
ENDBRANCH  16  19
ENDBRANCH  15  16
ENDBRANCH  14  15
ENDBRANCH   8  14
TORSDOF 4
ENDMDL
MODEL 2
REMARK VINA RESULT:      -8.2      2.008      3.311
REMARK  Name = 
REMARK  6 active torsions:
REMARK  status: ('A' for Active; 'I' for Inactive)
REMARK    1  A    between atoms: C_1  and  C_2
REMARK    2  A    between atoms: C_3  and  C_4
REMARK    3  A    between atoms: C_8  and  O_9
REMARK    4  A    between atoms: O_9  and  C_10
REMARK    5  A    between atoms: C_10  and  S_11
REMARK    6  A    between atoms: S_11  and  C_14
REMARK                            x       y       z     vdW  Elec       q    Type
REMARK                         _______ _______ _______ _____ _____    ______ ____
ROOT
ATOM      1  C   UNL     1      -0.714  11.795  22.402  0.00  0.00    +0.000 C 
ATOM      2  C   UNL     1      -0.034  10.717  21.599  0.00  0.00    +0.000 A 
ATOM      3  C   UNL     1       0.149  10.716  20.260  0.00  0.00    +0.000 A 
ATOM      4  C   UNL     1      -0.346  11.795  19.329  0.00  0.00    +0.000 C 
ATOM      5  C   UNL     1       0.898   9.599  19.647  0.00  0.00    +0.000 A 
ATOM      6  C   UNL     1       1.238   9.539  18.287  0.00  0.00    +0.000 A 
ATOM      7  C   UNL     1       1.984   8.469  17.765  0.00  0.00    +0.000 A 
ATOM      8  C   UNL     1       2.391   7.426  18.593  0.00  0.00    +0.000 A 
ATOM      9  C   UNL     1       2.064   7.471  19.945  0.00  0.00    +0.000 A 
ATOM     10  C   UNL     1       1.329   8.549  20.449  0.00  0.00    +0.000 A 
ATOM     11  O   UNL     1       1.069   8.529  21.827  0.00  0.00    +0.000 OA
ATOM     12  C   UNL     1       0.445   9.593  22.457  0.00  0.00    +0.000 A 
ATOM     13  O   UNL     1       0.284   9.598  23.673  0.00  0.00    +0.000 OA
ENDROOT
BRANCH   8  14
ATOM     14  O   UNL     1       3.156   6.360  18.211  0.00  0.00    +0.000 OA
BRANCH  14  15
ATOM     15  C   UNL     1       2.509   5.081  18.224  0.00  0.00    +0.000 C 
BRANCH  15  16
ATOM     16  S   UNL     1       3.626   3.687  18.430  0.00  0.00    +0.000 S 
ATOM     17  O   UNL     1       4.095   3.646  19.804  0.00  0.00    +0.000 OA
ATOM     18  O   UNL     1       2.998   2.516  17.842  0.00  0.00    +0.000 OA
BRANCH  16  19
ATOM     19  C   UNL     1       5.016   4.108  17.401  0.00  0.00    +0.000 A 
ATOM     20  C   UNL     1       4.844   4.182  16.016  0.00  0.00    +0.000 A 
ATOM     21  C   UNL     1       5.924   4.529  15.207  0.00  0.00    +0.000 A 
ATOM     22  C   UNL     1       7.166   4.812  15.780  0.00  0.00    +0.000 A 
ATOM     23  C   UNL     1       7.326   4.758  17.167  0.00  0.00    +0.000 A 
ATOM     24  C   UNL     1       6.249   4.412  17.984  0.00  0.00    +0.000 A 
ENDBRANCH  16  19
ENDBRANCH  15  16
ENDBRANCH  14  15
ENDBRANCH   8  14
TORSDOF 4
ENDMDL
MODEL 3
REMARK VINA RESULT:      -8.1      1.032      1.199
REMARK  Name = 
REMARK  6 active torsions:
REMARK  status: ('A' for Active; 'I' for Inactive)
REMARK    1  A    between atoms: C_1  and  C_2
REMARK    2  A    between atoms: C_3  and  C_4
REMARK    3  A    between atoms: C_8  and  O_9
REMARK    4  A    between atoms: O_9  and  C_10
REMARK    5  A    between atoms: C_10  and  S_11
REMARK    6  A    between atoms: S_11  and  C_14
REMARK                            x       y       z     vdW  Elec       q    Type
REMARK                         _______ _______ _______ _____ _____    ______ ____
ROOT
ATOM      1  C   UNL     1      -0.747  11.709  22.489  0.00  0.00    +0.000 C 
ATOM      2  C   UNL     1      -0.059  10.675  21.635  0.00  0.00    +0.000 A 
ATOM      3  C   UNL     1       0.029  10.686  20.287  0.00  0.00    +0.000 A 
ATOM      4  C   UNL     1      -0.598  11.731  19.398  0.00  0.00    +0.000 C 
ATOM      5  C   UNL     1       0.801   9.617  19.618  0.00  0.00    +0.000 A 
ATOM      6  C   UNL     1       1.048   9.578  18.237  0.00  0.00    +0.000 A 
ATOM      7  C   UNL     1       1.820   8.558  17.659  0.00  0.00    +0.000 A 
ATOM      8  C   UNL     1       2.350   7.542  18.453  0.00  0.00    +0.000 A 
ATOM      9  C   UNL     1       2.116   7.567  19.825  0.00  0.00    +0.000 A 
ATOM     10  C   UNL     1       1.353   8.596  20.384  0.00  0.00    +0.000 A 
ATOM     11  O   UNL     1       1.192   8.561  21.777  0.00  0.00    +0.000 OA
ATOM     12  C   UNL     1       0.549   9.584  22.454  0.00  0.00    +0.000 A 
ATOM     13  O   UNL     1       0.474   9.579  23.678  0.00  0.00    +0.000 OA
ENDROOT
BRANCH   8  14
ATOM     14  O   UNL     1       3.150   6.527  18.013  0.00  0.00    +0.000 OA
BRANCH  14  15
ATOM     15  C   UNL     1       4.476   6.487  18.556  0.00  0.00    +0.000 C 
BRANCH  15  16
ATOM     16  S   UNL     1       5.236   4.856  18.542  0.00  0.00    +0.000 S 
ATOM     17  O   UNL     1       5.790   4.596  17.224  0.00  0.00    +0.000 OA
ATOM     18  O   UNL     1       6.078   4.741  19.720  0.00  0.00    +0.000 OA
BRANCH  16  19
ATOM     19  C   UNL     1       3.859   3.751  18.773  0.00  0.00    +0.000 A 
ATOM     20  C   UNL     1       3.229   3.695  20.019  0.00  0.00    +0.000 A 
ATOM     21  C   UNL     1       2.140   2.845  20.200  0.00  0.00    +0.000 A 
ATOM     22  C   UNL     1       1.676   2.065  19.138  0.00  0.00    +0.000 A 
ATOM     23  C   UNL     1       2.296   2.142  17.888  0.00  0.00    +0.000 A 
ATOM     24  C   UNL     1       3.387   2.992  17.698  0.00  0.00    +0.000 A 
ENDBRANCH  16  19
ENDBRANCH  15  16
ENDBRANCH  14  15
ENDBRANCH   8  14
TORSDOF 4
ENDMDL
MODEL 4
REMARK VINA RESULT:      -7.9      2.038      3.705
REMARK  Name = 
REMARK  6 active torsions:
REMARK  status: ('A' for Active; 'I' for Inactive)
REMARK    1  A    between atoms: C_1  and  C_2
REMARK    2  A    between atoms: C_3  and  C_4
REMARK    3  A    between atoms: C_8  and  O_9
REMARK    4  A    between atoms: O_9  and  C_10
REMARK    5  A    between atoms: C_10  and  S_11
REMARK    6  A    between atoms: S_11  and  C_14
REMARK                            x       y       z     vdW  Elec       q    Type
REMARK                         _______ _______ _______ _____ _____    ______ ____
ROOT
ATOM      1  C   UNL     1      -0.234  12.192  21.643  0.00  0.00    +0.000 C 
ATOM      2  C   UNL     1       0.311  10.873  21.158  0.00  0.00    +0.000 A 
ATOM      3  C   UNL     1       0.679  10.580  19.891  0.00  0.00    +0.000 A 
ATOM      4  C   UNL     1       0.560  11.530  18.726  0.00  0.00    +0.000 C 
ATOM      5  C   UNL     1       1.255   9.248  19.610  0.00  0.00    +0.000 A 
ATOM      6  C   UNL     1       1.765   8.866  18.360  0.00  0.00    +0.000 A 
ATOM      7  C   UNL     1       2.336   7.598  18.158  0.00  0.00    +0.000 A 
ATOM      8  C   UNL     1       2.392   6.678  19.203  0.00  0.00    +0.000 A 
ATOM      9  C   UNL     1       1.892   7.043  20.450  0.00  0.00    +0.000 A 
ATOM     10  C   UNL     1       1.336   8.313  20.635  0.00  0.00    +0.000 A 
ATOM     11  O   UNL     1       0.884   8.608  21.929  0.00  0.00    +0.000 OA
ATOM     12  C   UNL     1       0.415   9.868  22.258  0.00  0.00    +0.000 A 
ATOM     13  O   UNL     1       0.087  10.137  23.409  0.00  0.00    +0.000 OA
ENDROOT
BRANCH   8  14
ATOM     14  O   UNL     1       2.961   5.438  19.140  0.00  0.00    +0.000 OA
BRANCH  14  15
ATOM     15  C   UNL     1       3.425   5.021  17.850  0.00  0.00    +0.000 C 
BRANCH  15  16
ATOM     16  S   UNL     1       5.033   4.214  17.864  0.00  0.00    +0.000 S 
ATOM     17  O   UNL     1       5.180   3.460  19.097  0.00  0.00    +0.000 OA
ATOM     18  O   UNL     1       5.217   3.555  16.583  0.00  0.00    +0.000 OA
BRANCH  16  19
ATOM     19  C   UNL     1       6.182   5.572  17.925  0.00  0.00    +0.000 A 
ATOM     20  C   UNL     1       5.927   6.718  17.168  0.00  0.00    +0.000 A 
ATOM     21  C   UNL     1       6.814   7.791  17.225  0.00  0.00    +0.000 A 
ATOM     22  C   UNL     1       7.943   7.722  18.044  0.00  0.00    +0.000 A 
ATOM     23  C   UNL     1       8.182   6.583  18.816  0.00  0.00    +0.000 A 
ATOM     24  C   UNL     1       7.297   5.504  18.765  0.00  0.00    +0.000 A 
ENDBRANCH  16  19
ENDBRANCH  15  16
ENDBRANCH  14  15
ENDBRANCH   8  14
TORSDOF 4
ENDMDL
MODEL 5
REMARK VINA RESULT:      -7.8      2.269      3.591
REMARK  Name = 
REMARK  6 active torsions:
REMARK  status: ('A' for Active; 'I' for Inactive)
REMARK    1  A    between atoms: C_1  and  C_2
REMARK    2  A    between atoms: C_3  and  C_4
REMARK    3  A    between atoms: C_8  and  O_9
REMARK    4  A    between atoms: O_9  and  C_10
REMARK    5  A    between atoms: C_10  and  S_11
REMARK    6  A    between atoms: S_11  and  C_14
REMARK                            x       y       z     vdW  Elec       q    Type
REMARK                         _______ _______ _______ _____ _____    ______ ____
ROOT
ATOM      1  C   UNL     1      -0.703  11.867  22.054  0.00  0.00    +0.000 C 
ATOM      2  C   UNL     1      -0.010  10.719  21.367  0.00  0.00    +0.000 A 
ATOM      3  C   UNL     1       0.192  10.590  20.037  0.00  0.00    +0.000 A 
ATOM      4  C   UNL     1      -0.294  11.572  19.001  0.00  0.00    +0.000 C 
ATOM      5  C   UNL     1       0.951   9.421  19.544  0.00  0.00    +0.000 A 
ATOM      6  C   UNL     1       1.309   9.231  18.201  0.00  0.00    +0.000 A 
ATOM      7  C   UNL     1       2.064   8.119  17.794  0.00  0.00    +0.000 A 
ATOM      8  C   UNL     1       2.462   7.162  18.725  0.00  0.00    +0.000 A 
ATOM      9  C   UNL     1       2.117   7.336  20.062  0.00  0.00    +0.000 A 
ATOM     10  C   UNL     1       1.373   8.454  20.450  0.00  0.00    +0.000 A 
ATOM     11  O   UNL     1       1.095   8.568  21.820  0.00  0.00    +0.000 OA
ATOM     12  C   UNL     1       0.461   9.684  22.337  0.00  0.00    +0.000 A 
ATOM     13  O   UNL     1       0.283   9.806  23.544  0.00  0.00    +0.000 OA
ENDROOT
BRANCH   8  14
ATOM     14  O   UNL     1       3.234   6.067  18.457  0.00  0.00    +0.000 OA
BRANCH  14  15
ATOM     15  C   UNL     1       4.583   6.111  18.940  0.00  0.00    +0.000 C 
BRANCH  15  16
ATOM     16  S   UNL     1       5.495   4.574  18.733  0.00  0.00    +0.000 S 
ATOM     17  O   UNL     1       6.750   4.660  19.459  0.00  0.00    +0.000 OA
ATOM     18  O   UNL     1       4.583   3.471  18.986  0.00  0.00    +0.000 OA
BRANCH  16  19
ATOM     19  C   UNL     1       5.881   4.547  16.995  0.00  0.00    +0.000 A 
ATOM     20  C   UNL     1       4.912   4.113  16.086  0.00  0.00    +0.000 A 
ATOM     21  C   UNL     1       5.202   4.106  14.724  0.00  0.00    +0.000 A 
ATOM     22  C   UNL     1       6.450   4.542  14.272  0.00  0.00    +0.000 A 
ATOM     23  C   UNL     1       7.407   4.995  15.183  0.00  0.00    +0.000 A 
ATOM     24  C   UNL     1       7.124   5.006  16.550  0.00  0.00    +0.000 A 
ENDBRANCH  16  19
ENDBRANCH  15  16
ENDBRANCH  14  15
ENDBRANCH   8  14
TORSDOF 4
ENDMDL
MODEL 6
REMARK VINA RESULT:      -7.7      1.798      2.568
REMARK  Name = 
REMARK  6 active torsions:
REMARK  status: ('A' for Active; 'I' for Inactive)
REMARK    1  A    between atoms: C_1  and  C_2
REMARK    2  A    between atoms: C_3  and  C_4
REMARK    3  A    between atoms: C_8  and  O_9
REMARK    4  A    between atoms: O_9  and  C_10
REMARK    5  A    between atoms: C_10  and  S_11
REMARK    6  A    between atoms: S_11  and  C_14
REMARK                            x       y       z     vdW  Elec       q    Type
REMARK                         _______ _______ _______ _____ _____    ______ ____
ROOT
ATOM      1  C   UNL     1      -0.698  11.989  21.398  0.00  0.00    +0.000 C 
ATOM      2  C   UNL     1       0.117  10.923  20.713  0.00  0.00    +0.000 A 
ATOM      3  C   UNL     1       0.450   9.719  21.228  0.00  0.00    +0.000 A 
ATOM      4  C   UNL     1       0.092   9.258  22.619  0.00  0.00    +0.000 C 
ATOM      5  C   UNL     1       1.205   8.769  20.384  0.00  0.00    +0.000 A 
ATOM      6  C   UNL     1       1.519   7.458  20.772  0.00  0.00    +0.000 A 
ATOM      7  C   UNL     1       2.207   6.585  19.913  0.00  0.00    +0.000 A 
ATOM      8  C   UNL     1       2.610   7.014  18.650  0.00  0.00    +0.000 A 
ATOM      9  C   UNL     1       2.304   8.311  18.249  0.00  0.00    +0.000 A 
ATOM     10  C   UNL     1       1.610   9.163  19.114  0.00  0.00    +0.000 A 
ATOM     11  O   UNL     1       1.317  10.443  18.619  0.00  0.00    +0.000 OA
ATOM     12  C   UNL     1       0.543  11.334  19.341  0.00  0.00    +0.000 A 
ATOM     13  O   UNL     1       0.234  12.424  18.871  0.00  0.00    +0.000 OA
ENDROOT
BRANCH   8  14
ATOM     14  O   UNL     1       3.242   6.245  17.715  0.00  0.00    +0.000 OA
BRANCH  14  15
ATOM     15  C   UNL     1       4.674   6.265  17.743  0.00  0.00    +0.000 C 
BRANCH  15  16
ATOM     16  S   UNL     1       5.433   4.663  18.050  0.00  0.00    +0.000 S 
ATOM     17  O   UNL     1       5.982   4.146  16.808  0.00  0.00    +0.000 OA
ATOM     18  O   UNL     1       6.281   4.784  19.224  0.00  0.00    +0.000 OA
BRANCH  16  19
ATOM     19  C   UNL     1       4.057   3.628  18.501  0.00  0.00    +0.000 A 
ATOM     20  C   UNL     1       3.318   2.996  17.498  0.00  0.00    +0.000 A 
ATOM     21  C   UNL     1       2.251   2.171  17.846  0.00  0.00    +0.000 A 
ATOM     22  C   UNL     1       1.932   1.970  19.191  0.00  0.00    +0.000 A 
ATOM     23  C   UNL     1       2.689   2.586  20.191  0.00  0.00    +0.000 A 
ATOM     24  C   UNL     1       3.760   3.413  19.850  0.00  0.00    +0.000 A 
ENDBRANCH  16  19
ENDBRANCH  15  16
ENDBRANCH  14  15
ENDBRANCH   8  14
TORSDOF 4
ENDMDL
MODEL 7
REMARK VINA RESULT:      -7.6      1.259      1.745
REMARK  Name = 
REMARK  6 active torsions:
REMARK  status: ('A' for Active; 'I' for Inactive)
REMARK    1  A    between atoms: C_1  and  C_2
REMARK    2  A    between atoms: C_3  and  C_4
REMARK    3  A    between atoms: C_8  and  O_9
REMARK    4  A    between atoms: O_9  and  C_10
REMARK    5  A    between atoms: C_10  and  S_11
REMARK    6  A    between atoms: S_11  and  C_14
REMARK                            x       y       z     vdW  Elec       q    Type
REMARK                         _______ _______ _______ _____ _____    ______ ____
ROOT
ATOM      1  C   UNL     1      -0.672  11.009  20.762  0.00  0.00    +0.000 C 
ATOM      2  C   UNL     1       0.218   9.855  20.379  0.00  0.00    +0.000 A 
ATOM      3  C   UNL     1       0.859   9.701  19.200  0.00  0.00    +0.000 A 
ATOM      4  C   UNL     1       0.749  10.655  18.037  0.00  0.00    +0.000 C 
ATOM      5  C   UNL     1       1.746   8.531  19.021  0.00  0.00    +0.000 A 
ATOM      6  C   UNL     1       2.539   8.318  17.884  0.00  0.00    +0.000 A 
ATOM      7  C   UNL     1       3.392   7.207  17.784  0.00  0.00    +0.000 A 
ATOM      8  C   UNL     1       3.456   6.275  18.817  0.00  0.00    +0.000 A 
ATOM      9  C   UNL     1       2.677   6.472  19.953  0.00  0.00    +0.000 A 
ATOM     10  C   UNL     1       1.840   7.590  20.039  0.00  0.00    +0.000 A 
ATOM     11  O   UNL     1       1.113   7.728  21.231  0.00  0.00    +0.000 OA
ATOM     12  C   UNL     1       0.336   8.847  21.475  0.00  0.00    +0.000 A 
ATOM     13  O   UNL     1      -0.241   8.992  22.547  0.00  0.00    +0.000 OA
ENDROOT
BRANCH   8  14
ATOM     14  O   UNL     1       4.278   5.184  18.853  0.00  0.00    +0.000 OA
BRANCH  14  15
ATOM     15  C   UNL     1       4.386   4.434  17.636  0.00  0.00    +0.000 C 
BRANCH  15  16
ATOM     16  S   UNL     1       3.297   3.006  17.545  0.00  0.00    +0.000 S 
ATOM     17  O   UNL     1       2.228   3.277  16.600  0.00  0.00    +0.000 OA
ATOM     18  O   UNL     1       4.122   1.820  17.388  0.00  0.00    +0.000 OA
BRANCH  16  19
ATOM     19  C   UNL     1       2.572   2.928  19.169  0.00  0.00    +0.000 A 
ATOM     20  C   UNL     1       3.371   2.574  20.259  0.00  0.00    +0.000 A 
ATOM     21  C   UNL     1       2.813   2.529  21.534  0.00  0.00    +0.000 A 
ATOM     22  C   UNL     1       1.465   2.847  21.720  0.00  0.00    +0.000 A 
ATOM     23  C   UNL     1       0.676   3.222  20.630  0.00  0.00    +0.000 A 
ATOM     24  C   UNL     1       1.229   3.271  19.349  0.00  0.00    +0.000 A 
ENDBRANCH  16  19
ENDBRANCH  15  16
ENDBRANCH  14  15
ENDBRANCH   8  14
TORSDOF 4
ENDMDL
MODEL 8
REMARK VINA RESULT:      -7.6      2.096      3.368
REMARK  Name = 
REMARK  6 active torsions:
REMARK  status: ('A' for Active; 'I' for Inactive)
REMARK    1  A    between atoms: C_1  and  C_2
REMARK    2  A    between atoms: C_3  and  C_4
REMARK    3  A    between atoms: C_8  and  O_9
REMARK    4  A    between atoms: O_9  and  C_10
REMARK    5  A    between atoms: C_10  and  S_11
REMARK    6  A    between atoms: S_11  and  C_14
REMARK                            x       y       z     vdW  Elec       q    Type
REMARK                         _______ _______ _______ _____ _____    ______ ____
ROOT
ATOM      1  C   UNL     1      -0.194  12.263  21.704  0.00  0.00    +0.000 C 
ATOM      2  C   UNL     1       0.407  11.041  21.057  0.00  0.00    +0.000 A 
ATOM      3  C   UNL     1       0.770  10.923  19.761  0.00  0.00    +0.000 A 
ATOM      4  C   UNL     1       0.585  11.999  18.721  0.00  0.00    +0.000 C 
ATOM      5  C   UNL     1       1.406   9.665  19.314  0.00  0.00    +0.000 A 
ATOM      6  C   UNL     1       1.914   9.463  18.022  0.00  0.00    +0.000 A 
ATOM      7  C   UNL     1       2.543   8.259  17.663  0.00  0.00    +0.000 A 
ATOM      8  C   UNL     1       2.660   7.224  18.588  0.00  0.00    +0.000 A 
ATOM      9  C   UNL     1       2.163   7.409  19.875  0.00  0.00    +0.000 A 
ATOM     10  C   UNL     1       1.549   8.618  20.217  0.00  0.00    +0.000 A 
ATOM     11  O   UNL     1       1.103   8.732  21.543  0.00  0.00    +0.000 OA
ATOM     12  C   UNL     1       0.578   9.918  22.027  0.00  0.00    +0.000 A 
ATOM     13  O   UNL     1       0.255  10.029  23.204  0.00  0.00    +0.000 OA
ENDROOT
BRANCH   8  14
ATOM     14  O   UNL     1       3.288   6.031  18.369  0.00  0.00    +0.000 OA
BRANCH  14  15
ATOM     15  C   UNL     1       3.834   5.382  19.525  0.00  0.00    +0.000 C 
BRANCH  15  16
ATOM     16  S   UNL     1       5.359   4.478  19.219  0.00  0.00    +0.000 S 
ATOM     17  O   UNL     1       6.459   5.155  19.881  0.00  0.00    +0.000 OA
ATOM     18  O   UNL     1       5.108   3.071  19.481  0.00  0.00    +0.000 OA
BRANCH  16  19
ATOM     19  C   UNL     1       5.601   4.649  17.464  0.00  0.00    +0.000 A 
ATOM     20  C   UNL     1       6.574   5.532  16.990  0.00  0.00    +0.000 A 
ATOM     21  C   UNL     1       6.780   5.657  15.618  0.00  0.00    +0.000 A 
ATOM     22  C   UNL     1       6.025   4.894  14.725  0.00  0.00    +0.000 A 
ATOM     23  C   UNL     1       5.068   3.996  15.205  0.00  0.00    +0.000 A 
ATOM     24  C   UNL     1       4.857   3.864  16.578  0.00  0.00    +0.000 A 
ENDBRANCH  16  19
ENDBRANCH  15  16
ENDBRANCH  14  15
ENDBRANCH   8  14
TORSDOF 4
ENDMDL
MODEL 9
REMARK VINA RESULT:      -7.5      2.232      3.710
REMARK  Name = 
REMARK  6 active torsions:
REMARK  status: ('A' for Active; 'I' for Inactive)
REMARK    1  A    between atoms: C_1  and  C_2
REMARK    2  A    between atoms: C_3  and  C_4
REMARK    3  A    between atoms: C_8  and  O_9
REMARK    4  A    between atoms: O_9  and  C_10
REMARK    5  A    between atoms: C_10  and  S_11
REMARK    6  A    between atoms: S_11  and  C_14
REMARK                            x       y       z     vdW  Elec       q    Type
REMARK                         _______ _______ _______ _____ _____    ______ ____
ROOT
ATOM      1  C   UNL     1      -0.370  11.469  21.559  0.00  0.00    +0.000 C 
ATOM      2  C   UNL     1       0.377  10.303  20.965  0.00  0.00    +0.000 A 
ATOM      3  C   UNL     1       0.686  10.136  19.661  0.00  0.00    +0.000 A 
ATOM      4  C   UNL     1       0.287  11.086  18.560  0.00  0.00    +0.000 C 
ATOM      5  C   UNL     1       1.483   8.955  19.266  0.00  0.00    +0.000 A 
ATOM      6  C   UNL     1       1.950   8.727  17.963  0.00  0.00    +0.000 A 
ATOM      7  C   UNL     1       2.736   7.605  17.652  0.00  0.00    +0.000 A 
ATOM      8  C   UNL     1       3.057   6.676  18.639  0.00  0.00    +0.000 A 
ATOM      9  C   UNL     1       2.604   6.888  19.938  0.00  0.00    +0.000 A 
ATOM     10  C   UNL     1       1.831   8.016  20.231  0.00  0.00    +0.000 A 
ATOM     11  O   UNL     1       1.441   8.169  21.570  0.00  0.00    +0.000 OA
ATOM     12  C   UNL     1       0.767   9.298  22.000  0.00  0.00    +0.000 A 
ATOM     13  O   UNL     1       0.491   9.455  23.185  0.00  0.00    +0.000 OA
ENDROOT
BRANCH   8  14
ATOM     14  O   UNL     1       3.848   5.576  18.468  0.00  0.00    +0.000 OA
BRANCH  14  15
ATOM     15  C   UNL     1       3.740   4.911  17.203  0.00  0.00    +0.000 C 
BRANCH  15  16
ATOM     16  S   UNL     1       5.244   4.939  16.217  0.00  0.00    +0.000 S 
ATOM     17  O   UNL     1       5.728   3.581  16.042  0.00  0.00    +0.000 OA
ATOM     18  O   UNL     1       5.007   5.782  15.057  0.00  0.00    +0.000 OA
BRANCH  16  19
ATOM     19  C   UNL     1       6.409   5.794  17.257  0.00  0.00    +0.000 A 
ATOM     20  C   UNL     1       7.002   5.114  18.324  0.00  0.00    +0.000 A 
ATOM     21  C   UNL     1       7.927   5.773  19.130  0.00  0.00    +0.000 A 
ATOM     22  C   UNL     1       8.267   7.102  18.863  0.00  0.00    +0.000 A 
ATOM     23  C   UNL     1       7.688   7.770  17.781  0.00  0.00    +0.000 A 
ATOM     24  C   UNL     1       6.761   7.116  16.968  0.00  0.00    +0.000 A 
ENDBRANCH  16  19
ENDBRANCH  15  16
ENDBRANCH  14  15
ENDBRANCH   8  14
TORSDOF 4
ENDMDL
