MODEL 1
REMARK VINA RESULT:      -8.8      0.000      0.000
REMARK  Name = 
REMARK  7 active torsions:
REMARK  status: ('A' for Active; 'I' for Inactive)
REMARK    1  A    between atoms: C_1  and  C_2
REMARK    2  A    between atoms: C_2  and  C_3
REMARK    3  A    between atoms: C_6  and  C_7
REMARK    4  A    between atoms: C_11  and  N_12
REMARK    5  A    between atoms: C_13  and  C_15
REMARK    6  A    between atoms: C_15  and  C_16
REMARK    7  A    between atoms: C_16  and  C_17
REMARK                            x       y       z     vdW  Elec       q    Type
REMARK                         _______ _______ _______ _____ _____    ______ ____
ROOT
ATOM      1  C   UNL     1       8.393   9.090  18.132  0.00  0.00    +0.000 A 
ATOM      2  N   UNL     1       7.413   8.766  17.313  0.00  0.00    +0.000 NA
ATOM      3  C   UNL     1       7.140   7.469  17.634  0.00  0.00    +0.000 A 
ATOM      4  C   UNL     1       6.150   6.615  17.149  0.00  0.00    +0.000 A 
ATOM      5  C   UNL     1       6.036   5.321  17.673  0.00  0.00    +0.000 A 
ATOM      6  C   UNL     1       6.961   4.884  18.643  0.00  0.00    +0.000 A 
ATOM      7  C   UNL     1       7.975   5.731  19.142  0.00  0.00    +0.000 A 
ATOM      8  C   UNL     1       8.006   7.015  18.610  0.00  0.00    +0.000 A 
ATOM      9  O   UNL     1       8.834   8.056  18.933  0.00  0.00    +0.000 OA
ENDROOT
BRANCH   1  13
ATOM     10  C   UNL     1       9.965  13.015  18.817  0.00  0.00    +0.000 A 
ATOM     11  C   UNL     1       9.030  12.790  17.798  0.00  0.00    +0.000 A 
ATOM     12  C   UNL     1       8.546  11.497  17.564  0.00  0.00    +0.000 A 
ATOM     13  C   UNL     1       8.976  10.410  18.344  0.00  0.00    +0.000 A 
ATOM     14  C   UNL     1       9.919  10.643  19.349  0.00  0.00    +0.000 A 
ATOM     15  C   UNL     1      10.400  11.931  19.585  0.00  0.00    +0.000 A 
BRANCH  10  17
ATOM     16  C   UNL     1      10.011  15.419  18.084  0.00  0.00    +0.000 C 
ATOM     17  C   UNL     1      10.482  14.399  19.109  0.00  0.00    +0.000 C 
ENDBRANCH  10  17
ENDBRANCH   1  13
BRANCH   5  18
ATOM     18  N   UNL     1       5.017   4.436  17.236  0.00  0.00    +0.000 N 
ATOM     19  C   UNL     1       3.654   4.681  17.358  0.00  0.00    +0.000 C 
ATOM     20  O   UNL     1       3.150   5.609  17.988  0.00  0.00    +0.000 OA
ATOM     21  H   UNL     1       5.305   3.530  16.894  0.00  0.00    +0.000 HD
BRANCH  19  22
ATOM     22  C   UNL     1       2.771   3.642  16.695  0.00  0.00    +0.000 C 
BRANCH  22  23
ATOM     23  C   UNL     1       2.797   2.350  17.521  0.00  0.00    +0.000 C 
BRANCH  23  24
ATOM     24  C   UNL     1       2.396   2.551  18.960  0.00  0.00    +0.000 A 
ATOM     25  C   UNL     1       3.331   2.391  19.992  0.00  0.00    +0.000 A 
ATOM     26  C   UNL     1       2.959   2.599  21.321  0.00  0.00    +0.000 A 
ATOM     27  C   UNL     1       1.651   2.966  21.633  0.00  0.00    +0.000 A 
ATOM     28  C   UNL     1       0.716   3.133  20.613  0.00  0.00    +0.000 A 
ATOM     29  C   UNL     1       1.086   2.925  19.283  0.00  0.00    +0.000 A 
ENDBRANCH  23  24
ENDBRANCH  22  23
ENDBRANCH  19  22
ENDBRANCH   5  18
TORSDOF 6
ENDMDL
MODEL 2
REMARK VINA RESULT:      -8.7      0.334      1.357
REMARK  Name = 
REMARK  7 active torsions:
REMARK  status: ('A' for Active; 'I' for Inactive)
REMARK    1  A    between atoms: C_1  and  C_2
REMARK    2  A    between atoms: C_2  and  C_3
REMARK    3  A    between atoms: C_6  and  C_7
REMARK    4  A    between atoms: C_11  and  N_12
REMARK    5  A    between atoms: C_13  and  C_15
REMARK    6  A    between atoms: C_15  and  C_16
REMARK    7  A    between atoms: C_16  and  C_17
REMARK                            x       y       z     vdW  Elec       q    Type
REMARK                         _______ _______ _______ _____ _____    ______ ____
ROOT
ATOM      1  C   UNL     1       8.373   9.229  18.058  0.00  0.00    +0.000 A 
ATOM      2  N   UNL     1       7.418   8.850  17.234  0.00  0.00    +0.000 NA
ATOM      3  C   UNL     1       7.178   7.556  17.593  0.00  0.00    +0.000 A 
ATOM      4  C   UNL     1       6.224   6.657  17.118  0.00  0.00    +0.000 A 
ATOM      5  C   UNL     1       6.140   5.378  17.682  0.00  0.00    +0.000 A 
ATOM      6  C   UNL     1       7.060   5.000  18.682  0.00  0.00    +0.000 A 
ATOM      7  C   UNL     1       8.038   5.894  19.170  0.00  0.00    +0.000 A 
ATOM      8  C   UNL     1       8.041   7.160  18.598  0.00  0.00    +0.000 A 
ATOM      9  O   UNL     1       8.831   8.236  18.900  0.00  0.00    +0.000 OA
ENDROOT
BRANCH   1  13
ATOM     10  C   UNL     1      10.076  13.136  18.486  0.00  0.00    +0.000 A 
ATOM     11  C   UNL     1      10.680  12.026  19.090  0.00  0.00    +0.000 A 
ATOM     12  C   UNL     1      10.097  10.758  18.969  0.00  0.00    +0.000 A 
ATOM     13  C   UNL     1       8.912  10.573  18.237  0.00  0.00    +0.000 A 
ATOM     14  C   UNL     1       8.310  11.690  17.649  0.00  0.00    +0.000 A 
ATOM     15  C   UNL     1       8.892  12.953  17.767  0.00  0.00    +0.000 A 
BRANCH  10  17
ATOM     16  C   UNL     1      10.741  15.024  20.007  0.00  0.00    +0.000 C 
ATOM     17  C   UNL     1      10.695  14.507  18.577  0.00  0.00    +0.000 C 
ENDBRANCH  10  17
ENDBRANCH   1  13
BRANCH   5  18
ATOM     18  N   UNL     1       5.155   4.449  17.257  0.00  0.00    +0.000 N 
ATOM     19  C   UNL     1       3.784   4.646  17.368  0.00  0.00    +0.000 C 
ATOM     20  O   UNL     1       3.243   5.567  17.976  0.00  0.00    +0.000 OA
ATOM     21  H   UNL     1       5.478   3.547  16.935  0.00  0.00    +0.000 HD
BRANCH  19  22
ATOM     22  C   UNL     1       2.943   3.563  16.720  0.00  0.00    +0.000 C 
BRANCH  22  23
ATOM     23  C   UNL     1       2.970   2.305  17.596  0.00  0.00    +0.000 C 
BRANCH  23  24
ATOM     24  C   UNL     1       2.474   2.542  19.000  0.00  0.00    +0.000 A 
ATOM     25  C   UNL     1       1.165   2.988  19.230  0.00  0.00    +0.000 A 
ATOM     26  C   UNL     1       0.705   3.187  20.533  0.00  0.00    +0.000 A 
ATOM     27  C   UNL     1       1.547   2.945  21.617  0.00  0.00    +0.000 A 
ATOM     28  C   UNL     1       2.849   2.497  21.398  0.00  0.00    +0.000 A 
ATOM     29  C   UNL     1       3.311   2.299  20.096  0.00  0.00    +0.000 A 
ENDBRANCH  23  24
ENDBRANCH  22  23
ENDBRANCH  19  22
ENDBRANCH   5  18
TORSDOF 6
ENDMDL
MODEL 3
REMARK VINA RESULT:      -8.4      0.697      1.045
REMARK  Name = 
REMARK  7 active torsions:
REMARK  status: ('A' for Active; 'I' for Inactive)
REMARK    1  A    between atoms: C_1  and  C_2
REMARK    2  A    between atoms: C_2  and  C_3
REMARK    3  A    between atoms: C_6  and  C_7
REMARK    4  A    between atoms: C_11  and  N_12
REMARK    5  A    between atoms: C_13  and  C_15
REMARK    6  A    between atoms: C_15  and  C_16
REMARK    7  A    between atoms: C_16  and  C_17
REMARK                            x       y       z     vdW  Elec       q    Type
REMARK                         _______ _______ _______ _____ _____    ______ ____
ROOT
ATOM      1  C   UNL     1       8.560   9.111  18.306  0.00  0.00    +0.000 A 
ATOM      2  N   UNL     1       7.560   8.874  17.482  0.00  0.00    +0.000 NA
ATOM      3  C   UNL     1       7.237   7.573  17.732  0.00  0.00    +0.000 A 
ATOM      4  C   UNL     1       6.209   6.789  17.210  0.00  0.00    +0.000 A 
ATOM      5  C   UNL     1       6.047   5.473  17.661  0.00  0.00    +0.000 A 
ATOM      6  C   UNL     1       6.961   4.944  18.594  0.00  0.00    +0.000 A 
ATOM      7  C   UNL     1       8.013   5.720  19.130  0.00  0.00    +0.000 A 
ATOM      8  C   UNL     1       8.093   7.030  18.671  0.00  0.00    +0.000 A 
ATOM      9  O   UNL     1       8.966   8.016  19.043  0.00  0.00    +0.000 OA
ENDROOT
BRANCH   1  13
ATOM     10  C   UNL     1      10.553  12.795  19.204  0.00  0.00    +0.000 A 
ATOM     11  C   UNL     1       9.908  12.068  20.214  0.00  0.00    +0.000 A 
ATOM     12  C   UNL     1       9.234  10.881  19.904  0.00  0.00    +0.000 A 
ATOM     13  C   UNL     1       9.199  10.392  18.587  0.00  0.00    +0.000 A 
ATOM     14  C   UNL     1       9.834  11.131  17.583  0.00  0.00    +0.000 A 
ATOM     15  C   UNL     1      10.508  12.313  17.893  0.00  0.00    +0.000 A 
BRANCH  10  17
ATOM     16  C   UNL     1      10.814  14.731  20.786  0.00  0.00    +0.000 C 
ATOM     17  C   UNL     1      11.309  14.060  19.514  0.00  0.00    +0.000 C 
ENDBRANCH  10  17
ENDBRANCH   1  13
BRANCH   5  18
ATOM     18  N   UNL     1       4.988   4.657  17.186  0.00  0.00    +0.000 N 
ATOM     19  C   UNL     1       3.641   4.877  17.451  0.00  0.00    +0.000 C 
ATOM     20  O   UNL     1       3.197   5.705  18.245  0.00  0.00    +0.000 OA
ATOM     21  H   UNL     1       5.240   3.809  16.696  0.00  0.00    +0.000 HD
BRANCH  19  22
ATOM     22  C   UNL     1       2.699   3.941  16.720  0.00  0.00    +0.000 C 
BRANCH  22  23
ATOM     23  C   UNL     1       2.687   2.579  17.424  0.00  0.00    +0.000 C 
BRANCH  23  24
ATOM     24  C   UNL     1       2.362   2.668  18.893  0.00  0.00    +0.000 A 
ATOM     25  C   UNL     1       3.348   2.426  19.860  0.00  0.00    +0.000 A 
ATOM     26  C   UNL     1       3.047   2.530  21.219  0.00  0.00    +0.000 A 
ATOM     27  C   UNL     1       1.759   2.874  21.626  0.00  0.00    +0.000 A 
ATOM     28  C   UNL     1       0.773   3.122  20.672  0.00  0.00    +0.000 A 
ATOM     29  C   UNL     1       1.072   3.017  19.313  0.00  0.00    +0.000 A 
ENDBRANCH  23  24
ENDBRANCH  22  23
ENDBRANCH  19  22
ENDBRANCH   5  18
TORSDOF 6
ENDMDL
MODEL 4
REMARK VINA RESULT:      -8.1      0.987      1.351
REMARK  Name = 
REMARK  7 active torsions:
REMARK  status: ('A' for Active; 'I' for Inactive)
REMARK    1  A    between atoms: C_1  and  C_2
REMARK    2  A    between atoms: C_2  and  C_3
REMARK    3  A    between atoms: C_6  and  C_7
REMARK    4  A    between atoms: C_11  and  N_12
REMARK    5  A    between atoms: C_13  and  C_15
REMARK    6  A    between atoms: C_15  and  C_16
REMARK    7  A    between atoms: C_16  and  C_17
REMARK                            x       y       z     vdW  Elec       q    Type
REMARK                         _______ _______ _______ _____ _____    ______ ____
ROOT
ATOM      1  C   UNL     1       8.607   9.165  18.411  0.00  0.00    +0.000 A 
ATOM      2  N   UNL     1       7.509   9.095  17.687  0.00  0.00    +0.000 NA
ATOM      3  C   UNL     1       7.078   7.815  17.879  0.00  0.00    +0.000 A 
ATOM      4  C   UNL     1       5.925   7.180  17.419  0.00  0.00    +0.000 A 
ATOM      5  C   UNL     1       5.673   5.853  17.791  0.00  0.00    +0.000 A 
ATOM      6  C   UNL     1       6.618   5.164  18.578  0.00  0.00    +0.000 A 
ATOM      7  C   UNL     1       7.794   5.787  19.048  0.00  0.00    +0.000 A 
ATOM      8  C   UNL     1       7.964   7.116  18.677  0.00  0.00    +0.000 A 
ATOM      9  O   UNL     1       8.969   7.980  19.019  0.00  0.00    +0.000 OA
ENDROOT
BRANCH   1  13
ATOM     10  C   UNL     1      10.816  12.739  19.244  0.00  0.00    +0.000 A 
ATOM     11  C   UNL     1      10.545  12.361  17.923  0.00  0.00    +0.000 A 
ATOM     12  C   UNL     1       9.848  11.175  17.662  0.00  0.00    +0.000 A 
ATOM     13  C   UNL     1       9.402  10.352  18.710  0.00  0.00    +0.000 A 
ATOM     14  C   UNL     1       9.689  10.731  20.025  0.00  0.00    +0.000 A 
ATOM     15  C   UNL     1      10.381  11.914  20.285  0.00  0.00    +0.000 A 
BRANCH  10  17
ATOM     16  C   UNL     1      10.786  15.246  19.053  0.00  0.00    +0.000 C 
ATOM     17  C   UNL     1      11.540  14.023  19.555  0.00  0.00    +0.000 C 
ENDBRANCH  10  17
ENDBRANCH   1  13
BRANCH   5  18
ATOM     18  N   UNL     1       4.491   5.185  17.379  0.00  0.00    +0.000 N 
ATOM     19  C   UNL     1       4.467   3.991  16.667  0.00  0.00    +0.000 C 
ATOM     20  O   UNL     1       5.446   3.437  16.171  0.00  0.00    +0.000 OA
ATOM     21  H   UNL     1       3.612   5.657  17.539  0.00  0.00    +0.000 HD
BRANCH  19  22
ATOM     22  C   UNL     1       3.080   3.413  16.464  0.00  0.00    +0.000 C 
BRANCH  22  23
ATOM     23  C   UNL     1       2.890   2.207  17.392  0.00  0.00    +0.000 C 
BRANCH  23  24
ATOM     24  C   UNL     1       2.439   2.586  18.780  0.00  0.00    +0.000 A 
ATOM     25  C   UNL     1       1.140   3.063  19.006  0.00  0.00    +0.000 A 
ATOM     26  C   UNL     1       0.723   3.393  20.296  0.00  0.00    +0.000 A 
ATOM     27  C   UNL     1       1.597   3.251  21.372  0.00  0.00    +0.000 A 
ATOM     28  C   UNL     1       2.888   2.772  21.158  0.00  0.00    +0.000 A 
ATOM     29  C   UNL     1       3.308   2.443  19.869  0.00  0.00    +0.000 A 
ENDBRANCH  23  24
ENDBRANCH  22  23
ENDBRANCH  19  22
ENDBRANCH   5  18
TORSDOF 6
ENDMDL
MODEL 5
REMARK VINA RESULT:      -8.1      6.701      8.351
REMARK  Name = 
REMARK  7 active torsions:
REMARK  status: ('A' for Active; 'I' for Inactive)
REMARK    1  A    between atoms: C_1  and  C_2
REMARK    2  A    between atoms: C_2  and  C_3
REMARK    3  A    between atoms: C_6  and  C_7
REMARK    4  A    between atoms: C_11  and  N_12
REMARK    5  A    between atoms: C_13  and  C_15
REMARK    6  A    between atoms: C_15  and  C_16
REMARK    7  A    between atoms: C_16  and  C_17
REMARK                            x       y       z     vdW  Elec       q    Type
REMARK                         _______ _______ _______ _____ _____    ______ ____
ROOT
ATOM      1  C   UNL     1       0.027  10.586  21.160  0.00  0.00    +0.000 A 
ATOM      2  N   UNL     1       0.537   9.440  21.561  0.00  0.00    +0.000 NA
ATOM      3  C   UNL     1       1.100   8.925  20.430  0.00  0.00    +0.000 A 
ATOM      4  C   UNL     1       1.847   7.761  20.251  0.00  0.00    +0.000 A 
ATOM      5  C   UNL     1       2.366   7.461  18.986  0.00  0.00    +0.000 A 
ATOM      6  C   UNL     1       2.078   8.313  17.900  0.00  0.00    +0.000 A 
ATOM      7  C   UNL     1       1.318   9.493  18.059  0.00  0.00    +0.000 A 
ATOM      8  C   UNL     1       0.867   9.753  19.348  0.00  0.00    +0.000 A 
ATOM      9  O   UNL     1       0.159  10.830  19.807  0.00  0.00    +0.000 OA
ENDROOT
BRANCH   1  13
ATOM     10  C   UNL     1      -1.755  13.735  23.453  0.00  0.00    +0.000 A 
ATOM     11  C   UNL     1      -0.684  14.000  22.590  0.00  0.00    +0.000 A 
ATOM     12  C   UNL     1      -0.089  12.958  21.869  0.00  0.00    +0.000 A 
ATOM     13  C   UNL     1      -0.557  11.638  21.985  0.00  0.00    +0.000 A 
ATOM     14  C   UNL     1      -1.618  11.381  22.859  0.00  0.00    +0.000 A 
ATOM     15  C   UNL     1      -2.213  12.420  23.576  0.00  0.00    +0.000 A 
BRANCH  10  17
ATOM     16  C   UNL     1      -2.452  16.150  23.447  0.00  0.00    +0.000 C 
ATOM     17  C   UNL     1      -2.432  14.840  24.220  0.00  0.00    +0.000 C 
ENDBRANCH  10  17
ENDBRANCH   1  13
BRANCH   5  18
ATOM     18  N   UNL     1       3.166   6.309  18.771  0.00  0.00    +0.000 N 
ATOM     19  C   UNL     1       2.745   5.171  18.093  0.00  0.00    +0.000 C 
ATOM     20  O   UNL     1       1.594   4.946  17.724  0.00  0.00    +0.000 OA
ATOM     21  H   UNL     1       4.071   6.284  19.220  0.00  0.00    +0.000 HD
BRANCH  19  22
ATOM     22  C   UNL     1       3.830   4.132  17.883  0.00  0.00    +0.000 C 
BRANCH  22  23
ATOM     23  C   UNL     1       4.836   4.650  16.848  0.00  0.00    +0.000 C 
BRANCH  23  24
ATOM     24  C   UNL     1       5.955   5.459  17.453  0.00  0.00    +0.000 A 
ATOM     25  C   UNL     1       6.647   4.994  18.580  0.00  0.00    +0.000 A 
ATOM     26  C   UNL     1       7.694   5.738  19.124  0.00  0.00    +0.000 A 
ATOM     27  C   UNL     1       8.060   6.955  18.549  0.00  0.00    +0.000 A 
ATOM     28  C   UNL     1       7.381   7.423  17.426  0.00  0.00    +0.000 A 
ATOM     29  C   UNL     1       6.332   6.681  16.882  0.00  0.00    +0.000 A 
ENDBRANCH  23  24
ENDBRANCH  22  23
ENDBRANCH  19  22
ENDBRANCH   5  18
TORSDOF 6
ENDMDL
MODEL 6
REMARK VINA RESULT:      -8.0      7.422      9.742
REMARK  Name = 
REMARK  7 active torsions:
REMARK  status: ('A' for Active; 'I' for Inactive)
REMARK    1  A    between atoms: C_1  and  C_2
REMARK    2  A    between atoms: C_2  and  C_3
REMARK    3  A    between atoms: C_6  and  C_7
REMARK    4  A    between atoms: C_11  and  N_12
REMARK    5  A    between atoms: C_13  and  C_15
REMARK    6  A    between atoms: C_15  and  C_16
REMARK    7  A    between atoms: C_16  and  C_17
REMARK                            x       y       z     vdW  Elec       q    Type
REMARK                         _______ _______ _______ _____ _____    ______ ____
ROOT
ATOM      1  C   UNL     1       2.672   7.294  18.343  0.00  0.00    +0.000 A 
ATOM      2  N   UNL     1       2.094   8.398  17.917  0.00  0.00    +0.000 NA
ATOM      3  C   UNL     1       1.501   8.904  19.036  0.00  0.00    +0.000 A 
ATOM      4  C   UNL     1       0.799  10.096  19.217  0.00  0.00    +0.000 A 
ATOM      5  C   UNL     1       0.315  10.425  20.490  0.00  0.00    +0.000 A 
ATOM      6  C   UNL     1       0.497   9.519  21.555  0.00  0.00    +0.000 A 
ATOM      7  C   UNL     1       1.198   8.305  21.390  0.00  0.00    +0.000 A 
ATOM      8  C   UNL     1       1.688   8.058  20.112  0.00  0.00    +0.000 A 
ATOM      9  O   UNL     1       2.437   7.001  19.671  0.00  0.00    +0.000 OA
ENDROOT
BRANCH   1  13
ATOM     10  C   UNL     1       5.238   4.709  16.089  0.00  0.00    +0.000 A 
ATOM     11  C   UNL     1       4.270   4.178  16.951  0.00  0.00    +0.000 A 
ATOM     12  C   UNL     1       3.458   5.032  17.706  0.00  0.00    +0.000 A 
ATOM     13  C   UNL     1       3.587   6.428  17.608  0.00  0.00    +0.000 A 
ATOM     14  C   UNL     1       4.565   6.949  16.755  0.00  0.00    +0.000 A 
ATOM     15  C   UNL     1       5.373   6.098  16.001  0.00  0.00    +0.000 A 
BRANCH  10  17
ATOM     16  C   UNL     1       6.768   4.567  14.100  0.00  0.00    +0.000 C 
ATOM     17  C   UNL     1       6.108   3.815  15.245  0.00  0.00    +0.000 C 
ENDBRANCH  10  17
ENDBRANCH   1  13
BRANCH   5  18
ATOM     18  N   UNL     1      -0.366  11.647  20.725  0.00  0.00    +0.000 N 
ATOM     19  C   UNL     1      -1.575  12.003  20.137  0.00  0.00    +0.000 C 
ATOM     20  O   UNL     1      -2.135  11.388  19.231  0.00  0.00    +0.000 OA
ATOM     21  H   UNL     1       0.105  12.339  21.291  0.00  0.00    +0.000 HD
BRANCH  19  22
ATOM     22  C   UNL     1      -2.162  13.302  20.654  0.00  0.00    +0.000 C 
BRANCH  22  23
ATOM     23  C   UNL     1      -3.693  13.208  20.642  0.00  0.00    +0.000 C 
BRANCH  23  24
ATOM     24  C   UNL     1      -4.290  12.991  22.008  0.00  0.00    +0.000 A 
ATOM     25  C   UNL     1      -5.678  13.043  22.199  0.00  0.00    +0.000 A 
ATOM     26  C   UNL     1      -6.227  12.822  23.463  0.00  0.00    +0.000 A 
ATOM     27  C   UNL     1      -5.396  12.547  24.548  0.00  0.00    +0.000 A 
ATOM     28  C   UNL     1      -4.015  12.488  24.367  0.00  0.00    +0.000 A 
ATOM     29  C   UNL     1      -3.465  12.711  23.104  0.00  0.00    +0.000 A 
ENDBRANCH  23  24
ENDBRANCH  22  23
ENDBRANCH  19  22
ENDBRANCH   5  18
TORSDOF 6
ENDMDL
MODEL 7
REMARK VINA RESULT:      -7.9      1.522      1.941
REMARK  Name = 
REMARK  7 active torsions:
REMARK  status: ('A' for Active; 'I' for Inactive)
REMARK    1  A    between atoms: C_1  and  C_2
REMARK    2  A    between atoms: C_2  and  C_3
REMARK    3  A    between atoms: C_6  and  C_7
REMARK    4  A    between atoms: C_11  and  N_12
REMARK    5  A    between atoms: C_13  and  C_15
REMARK    6  A    between atoms: C_15  and  C_16
REMARK    7  A    between atoms: C_16  and  C_17
REMARK                            x       y       z     vdW  Elec       q    Type
REMARK                         _______ _______ _______ _____ _____    ______ ____
ROOT
ATOM      1  C   UNL     1       8.506   9.274  18.268  0.00  0.00    +0.000 A 
ATOM      2  N   UNL     1       7.499   9.059  17.446  0.00  0.00    +0.000 NA
ATOM      3  C   UNL     1       7.189   7.747  17.654  0.00  0.00    +0.000 A 
ATOM      4  C   UNL     1       6.161   6.973  17.115  0.00  0.00    +0.000 A 
ATOM      5  C   UNL     1       6.015   5.641  17.521  0.00  0.00    +0.000 A 
ATOM      6  C   UNL     1       6.944   5.087  18.426  0.00  0.00    +0.000 A 
ATOM      7  C   UNL     1       7.994   5.852  18.977  0.00  0.00    +0.000 A 
ATOM      8  C   UNL     1       8.059   7.178  18.564  0.00  0.00    +0.000 A 
ATOM      9  O   UNL     1       8.928   8.158  18.961  0.00  0.00    +0.000 OA
ENDROOT
BRANCH   1  13
ATOM     10  C   UNL     1      10.217  13.075  19.254  0.00  0.00    +0.000 A 
ATOM     11  C   UNL     1       9.371  12.940  18.145  0.00  0.00    +0.000 A 
ATOM     12  C   UNL     1       8.842  11.687  17.814  0.00  0.00    +0.000 A 
ATOM     13  C   UNL     1       9.137  10.550  18.586  0.00  0.00    +0.000 A 
ATOM     14  C   UNL     1       9.993  10.692  19.683  0.00  0.00    +0.000 A 
ATOM     15  C   UNL     1      10.518  11.942  20.014  0.00  0.00    +0.000 A 
BRANCH  10  17
ATOM     16  C   UNL     1      11.474  15.114  18.489  0.00  0.00    +0.000 C 
ATOM     17  C   UNL     1      10.779  14.416  19.649  0.00  0.00    +0.000 C 
ENDBRANCH  10  17
ENDBRANCH   1  13
BRANCH   5  18
ATOM     18  N   UNL     1       4.958   4.833  17.029  0.00  0.00    +0.000 N 
ATOM     19  C   UNL     1       4.344   3.812  17.746  0.00  0.00    +0.000 C 
ATOM     20  O   UNL     1       4.726   3.374  18.830  0.00  0.00    +0.000 OA
ATOM     21  H   UNL     1       4.696   4.952  16.060  0.00  0.00    +0.000 HD
BRANCH  19  22
ATOM     22  C   UNL     1       3.152   3.187  17.048  0.00  0.00    +0.000 C 
BRANCH  22  23
ATOM     23  C   UNL     1       1.873   3.523  17.824  0.00  0.00    +0.000 C 
BRANCH  23  24
ATOM     24  C   UNL     1       1.960   4.819  18.588  0.00  0.00    +0.000 A 
ATOM     25  C   UNL     1       2.246   6.022  17.926  0.00  0.00    +0.000 A 
ATOM     26  C   UNL     1       2.305   7.222  18.636  0.00  0.00    +0.000 A 
ATOM     27  C   UNL     1       2.080   7.234  20.011  0.00  0.00    +0.000 A 
ATOM     28  C   UNL     1       1.790   6.044  20.677  0.00  0.00    +0.000 A 
ATOM     29  C   UNL     1       1.732   4.843  19.969  0.00  0.00    +0.000 A 
ENDBRANCH  23  24
ENDBRANCH  22  23
ENDBRANCH  19  22
ENDBRANCH   5  18
TORSDOF 6
ENDMDL
MODEL 8
REMARK VINA RESULT:      -7.9      7.588     10.006
REMARK  Name = 
REMARK  7 active torsions:
REMARK  status: ('A' for Active; 'I' for Inactive)
REMARK    1  A    between atoms: C_1  and  C_2
REMARK    2  A    between atoms: C_2  and  C_3
REMARK    3  A    between atoms: C_6  and  C_7
REMARK    4  A    between atoms: C_11  and  N_12
REMARK    5  A    between atoms: C_13  and  C_15
REMARK    6  A    between atoms: C_15  and  C_16
REMARK    7  A    between atoms: C_16  and  C_17
REMARK                            x       y       z     vdW  Elec       q    Type
REMARK                         _______ _______ _______ _____ _____    ______ ____
ROOT
ATOM      1  C   UNL     1       2.728   7.510  18.362  0.00  0.00    +0.000 A 
ATOM      2  N   UNL     1       2.261   7.423  19.591  0.00  0.00    +0.000 NA
ATOM      3  C   UNL     1       1.463   8.521  19.712  0.00  0.00    +0.000 A 
ATOM      4  C   UNL     1       0.648   8.925  20.769  0.00  0.00    +0.000 A 
ATOM      5  C   UNL     1      -0.126  10.085  20.640  0.00  0.00    +0.000 A 
ATOM      6  C   UNL     1      -0.026  10.857  19.465  0.00  0.00    +0.000 A 
ATOM      7  C   UNL     1       0.798  10.469  18.386  0.00  0.00    +0.000 A 
ATOM      8  C   UNL     1       1.508   9.287  18.562  0.00  0.00    +0.000 A 
ATOM      9  O   UNL     1       2.337   8.646  17.681  0.00  0.00    +0.000 OA
ENDROOT
BRANCH   1  13
ATOM     10  C   UNL     1       5.148   4.640  16.301  0.00  0.00    +0.000 A 
ATOM     11  C   UNL     1       5.256   6.005  16.007  0.00  0.00    +0.000 A 
ATOM     12  C   UNL     1       4.438   6.932  16.665  0.00  0.00    +0.000 A 
ATOM     13  C   UNL     1       3.508   6.516  17.633  0.00  0.00    +0.000 A 
ATOM     14  C   UNL     1       3.398   5.150  17.910  0.00  0.00    +0.000 A 
ATOM     15  C   UNL     1       4.214   4.227  17.256  0.00  0.00    +0.000 A 
BRANCH  10  17
ATOM     16  C   UNL     1       6.319   3.979  14.177  0.00  0.00    +0.000 C 
ATOM     17  C   UNL     1       6.034   3.624  15.628  0.00  0.00    +0.000 C 
ENDBRANCH  10  17
ENDBRANCH   1  13
BRANCH   5  18
ATOM     18  N   UNL     1      -0.999  10.507  21.676  0.00  0.00    +0.000 N 
ATOM     19  C   UNL     1      -0.878  11.704  22.372  0.00  0.00    +0.000 C 
ATOM     20  O   UNL     1       0.072  12.480  22.296  0.00  0.00    +0.000 OA
ATOM     21  H   UNL     1      -1.703   9.849  21.985  0.00  0.00    +0.000 HD
BRANCH  19  22
ATOM     22  C   UNL     1      -2.014  11.982  23.338  0.00  0.00    +0.000 C 
BRANCH  22  23
ATOM     23  C   UNL     1      -2.816  13.192  22.846  0.00  0.00    +0.000 C 
BRANCH  23  24
ATOM     24  C   UNL     1      -4.307  12.968  22.861  0.00  0.00    +0.000 A 
ATOM     25  C   UNL     1      -5.014  12.777  21.666  0.00  0.00    +0.000 A 
ATOM     26  C   UNL     1      -6.391  12.551  21.688  0.00  0.00    +0.000 A 
ATOM     27  C   UNL     1      -7.075  12.515  22.902  0.00  0.00    +0.000 A 
ATOM     28  C   UNL     1      -6.380  12.698  24.095  0.00  0.00    +0.000 A 
ATOM     29  C   UNL     1      -5.003  12.926  24.076  0.00  0.00    +0.000 A 
ENDBRANCH  23  24
ENDBRANCH  22  23
ENDBRANCH  19  22
ENDBRANCH   5  18
TORSDOF 6
ENDMDL
MODEL 9
REMARK VINA RESULT:      -7.9      7.299      9.735
REMARK  Name = 
REMARK  7 active torsions:
REMARK  status: ('A' for Active; 'I' for Inactive)
REMARK    1  A    between atoms: C_1  and  C_2
REMARK    2  A    between atoms: C_2  and  C_3
REMARK    3  A    between atoms: C_6  and  C_7
REMARK    4  A    between atoms: C_11  and  N_12
REMARK    5  A    between atoms: C_13  and  C_15
REMARK    6  A    between atoms: C_15  and  C_16
REMARK    7  A    between atoms: C_16  and  C_17
REMARK                            x       y       z     vdW  Elec       q    Type
REMARK                         _______ _______ _______ _____ _____    ______ ____
ROOT
ATOM      1  C   UNL     1       2.866   7.032  18.235  0.00  0.00    +0.000 A 
ATOM      2  N   UNL     1       2.292   8.167  17.893  0.00  0.00    +0.000 NA
ATOM      3  C   UNL     1       1.651   8.560  19.032  0.00  0.00    +0.000 A 
ATOM      4  C   UNL     1       0.930   9.723  19.298  0.00  0.00    +0.000 A 
ATOM      5  C   UNL     1       0.395   9.927  20.576  0.00  0.00    +0.000 A 
ATOM      6  C   UNL     1       0.547   8.926  21.557  0.00  0.00    +0.000 A 
ATOM      7  C   UNL     1       1.268   7.738  21.305  0.00  0.00    +0.000 A 
ATOM      8  C   UNL     1       1.807   7.617  20.030  0.00  0.00    +0.000 A 
ATOM      9  O   UNL     1       2.585   6.612  19.520  0.00  0.00    +0.000 OA
ENDROOT
BRANCH   1  13
ATOM     10  C   UNL     1       5.543   4.691  15.848  0.00  0.00    +0.000 A 
ATOM     11  C   UNL     1       4.557   4.073  16.627  0.00  0.00    +0.000 A 
ATOM     12  C   UNL     1       3.707   4.846  17.427  0.00  0.00    +0.000 A 
ATOM     13  C   UNL     1       3.817   6.246  17.457  0.00  0.00    +0.000 A 
ATOM     14  C   UNL     1       4.814   6.854  16.687  0.00  0.00    +0.000 A 
ATOM     15  C   UNL     1       5.660   6.083  15.888  0.00  0.00    +0.000 A 
BRANCH  10  17
ATOM     16  C   UNL     1       5.951   3.827  13.523  0.00  0.00    +0.000 C 
ATOM     17  C   UNL     1       6.453   3.886  14.957  0.00  0.00    +0.000 C 
ENDBRANCH  10  17
ENDBRANCH   1  13
BRANCH   5  18
ATOM     18  N   UNL     1      -0.308  11.116  20.900  0.00  0.00    +0.000 N 
ATOM     19  C   UNL     1      -0.562  11.555  22.194  0.00  0.00    +0.000 C 
ATOM     20  O   UNL     1      -0.351  10.912  23.220  0.00  0.00    +0.000 OA
ATOM     21  H   UNL     1      -0.728  11.628  20.136  0.00  0.00    +0.000 HD
BRANCH  19  22
ATOM     22  C   UNL     1      -1.216  12.922  22.272  0.00  0.00    +0.000 C 
BRANCH  22  23
ATOM     23  C   UNL     1      -2.113  12.986  23.514  0.00  0.00    +0.000 C 
BRANCH  23  24
ATOM     24  C   UNL     1      -3.584  12.899  23.195  0.00  0.00    +0.000 A 
ATOM     25  C   UNL     1      -4.541  12.910  24.219  0.00  0.00    +0.000 A 
ATOM     26  C   UNL     1      -5.902  12.849  23.916  0.00  0.00    +0.000 A 
ATOM     27  C   UNL     1      -6.320  12.776  22.588  0.00  0.00    +0.000 A 
ATOM     28  C   UNL     1      -5.377  12.769  21.563  0.00  0.00    +0.000 A 
ATOM     29  C   UNL     1      -4.015  12.828  21.864  0.00  0.00    +0.000 A 
ENDBRANCH  23  24
ENDBRANCH  22  23
ENDBRANCH  19  22
ENDBRANCH   5  18
TORSDOF 6
ENDMDL
