MODEL 1
REMARK VINA RESULT:      -5.3      0.000      0.000
REMARK  Name = 
REMARK  29 active torsions:
REMARK  status: ('A' for Active; 'I' for Inactive)
REMARK    1  A    between atoms: C_1  and  C_2
REMARK    2  A    between atoms: C_2  and  C_3
REMARK    3  A    between atoms: C_3  and  C_4
REMARK    4  A    between atoms: C_4  and  C_5
REMARK    5  A    between atoms: C_5  and  C_6
REMARK    6  A    between atoms: C_6  and  C_7
REMARK    7  A    between atoms: C_7  and  C_8
REMARK    8  A    between atoms: C_8  and  C_9
REMARK    9  A    between atoms: C_10  and  C_11
REMARK   10  A    between atoms: C_11  and  C_12
REMARK   11  A    between atoms: C_12  and  C_13
REMARK   12  A    between atoms: C_13  and  C_14
REMARK   13  A    between atoms: C_14  and  C_15
REMARK   14  A    between atoms: C_15  and  C_16
REMARK   15  A    between atoms: C_16  and  C_17
REMARK   16  A    between atoms: C_17  and  C_18
REMARK   17  A    between atoms: C_18  and  C_19
REMARK   18  A    between atoms: C_20  and  O_21
REMARK   19  A    between atoms: O_21  and  C_22
REMARK   20  A    between atoms: C_22  and  C_23
REMARK   21  A    between atoms: C_23  and  O_24
REMARK   22  A    between atoms: C_23  and  C_25
REMARK   23  A    between atoms: C_25  and  O_26
REMARK   24  A    between atoms: O_26  and  P_27
REMARK   25  A    between atoms: P_27  and  O_29
REMARK   26  A    between atoms: P_27  and  O_30
REMARK   27  A    between atoms: O_30  and  C_31
REMARK   28  A    between atoms: C_31  and  C_32
REMARK   29  A    between atoms: C_32  and  N_33
REMARK                            x       y       z     vdW  Elec       q    Type
REMARK                         _______ _______ _______ _____ _____    ______ ____
ROOT
ATOM      1  C   UNL     1       1.247   9.500  18.448  0.00  0.00    +0.000 C 
ATOM      2  C   UNL     1       0.288  10.035  18.951  0.00  0.00    +0.000 C 
ENDROOT
BRANCH   2   3
ATOM      3  O   UNL     1      -0.784  10.604  19.503  0.00  0.00    +0.000 OA
BRANCH   3   4
ATOM      4  C   UNL     1      -1.842  10.707  18.551  0.00  0.00    +0.000 C 
BRANCH   4   5
ATOM      5  C   UNL     1      -2.347  12.148  18.579  0.00  0.00    +0.000 C 
BRANCH   5   6
ATOM      6  O   UNL     1      -3.755  12.106  18.320  0.00  0.00    +0.000 OA
ATOM      7  H   UNL     1      -4.110  12.950  18.666  0.00  0.00    +0.000 HD
ENDBRANCH   5   6
BRANCH   5   8
ATOM      8  C   UNL     1      -2.106  12.903  19.912  0.00  0.00    +0.000 C 
BRANCH   8   9
ATOM      9  O   UNL     1      -3.169  12.698  20.822  0.00  0.00    +0.000 OA
BRANCH   9  10
ATOM     10  P   UNL     1      -3.085  12.887  22.425  0.00  0.00    +0.000 P 
ATOM     11  O   UNL     1      -2.403  14.169  22.789  0.00  0.00    +0.000 OA
BRANCH  10  12
ATOM     12  O   UNL     1      -4.605  12.862  22.941  0.00  0.00    +0.000 OA
ATOM     13  H   UNL     1      -5.007  12.010  23.176  0.00  0.00    +0.000 HD
ENDBRANCH  10  12
BRANCH  10  14
ATOM     14  O   UNL     1      -2.338  11.610  23.071  0.00  0.00    +0.000 OA
BRANCH  14  15
ATOM     15  C   UNL     1      -0.967  11.307  22.939  0.00  0.00    +0.000 C 
BRANCH  15  16
ATOM     16  C   UNL     1      -0.666   9.805  22.919  0.00  0.00    +0.000 C 
BRANCH  16  17
ATOM     17  N   UNL     1       0.563   9.615  23.664  0.00  0.00    +0.000 NA
ATOM     18  H   UNL     1       1.396   9.830  23.119  0.00  0.00    +0.000 HD
ATOM     19  H   UNL     1       0.667   8.633  23.928  0.00  0.00    +0.000 HD
ENDBRANCH  16  17
ENDBRANCH  15  16
ENDBRANCH  14  15
ENDBRANCH  10  14
ENDBRANCH   9  10
ENDBRANCH   8   9
ENDBRANCH   5   8
ENDBRANCH   4   5
ENDBRANCH   3   4
ENDBRANCH   2   3
BRANCH   1  20
ATOM     20  C   UNL     1       2.393   8.816  17.829  0.00  0.00    +0.000 C 
BRANCH  20  21
ATOM     21  C   UNL     1       2.060   7.347  17.591  0.00  0.00    +0.000 C 
BRANCH  21  22
ATOM     22  C   UNL     1       2.929   6.441  18.451  0.00  0.00    +0.000 C 
BRANCH  22  23
ATOM     23  C   UNL     1       2.540   6.559  19.923  0.00  0.00    +0.000 C 
BRANCH  23  24
ATOM     24  C   UNL     1       1.372   5.635  20.225  0.00  0.00    +0.000 C 
BRANCH  24  25
ATOM     25  C   UNL     1       1.817   4.387  20.982  0.00  0.00    +0.000 C 
BRANCH  25  26
ATOM     26  C   UNL     1       1.344   3.107  20.291  0.00  0.00    +0.000 C 
BRANCH  26  27
ATOM     27  C   UNL     1       1.262   3.213  18.765  0.00  0.00    +0.000 C 
BRANCH  27  29
ATOM     28  C   UNL     1       3.275   1.791  18.242  0.00  0.00    +0.000 C 
ATOM     29  C   UNL     1       1.978   2.083  18.076  0.00  0.00    +0.000 C 
BRANCH  28  30
ATOM     30  C   UNL     1       4.142   2.557  19.185  0.00  0.00    +0.000 C 
BRANCH  30  31
ATOM     31  C   UNL     1       4.900   3.678  18.502  0.00  0.00    +0.000 C 
BRANCH  31  32
ATOM     32  C   UNL     1       5.620   4.497  19.565  0.00  0.00    +0.000 C 
BRANCH  32  33
ATOM     33  C   UNL     1       6.561   5.492  18.916  0.00  0.00    +0.000 C 
BRANCH  33  34
ATOM     34  C   UNL     1       6.664   5.226  17.421  0.00  0.00    +0.000 C 
BRANCH  34  35
ATOM     35  C   UNL     1       6.156   6.429  16.641  0.00  0.00    +0.000 C 
BRANCH  35  37
ATOM     36  C   UNL     1       5.616   4.593  15.033  0.00  0.00    +0.000 C 
ATOM     37  C   UNL     1       5.255   5.993  15.493  0.00  0.00    +0.000 C 
ENDBRANCH  35  37
ENDBRANCH  34  35
ENDBRANCH  33  34
ENDBRANCH  32  33
ENDBRANCH  31  32
ENDBRANCH  30  31
ENDBRANCH  28  30
ENDBRANCH  27  29
ENDBRANCH  26  27
ENDBRANCH  25  26
ENDBRANCH  24  25
ENDBRANCH  23  24
ENDBRANCH  22  23
ENDBRANCH  21  22
ENDBRANCH  20  21
ENDBRANCH   1  20
TORSDOF 28
ENDMDL
MODEL 2
REMARK VINA RESULT:      -5.3      2.807      5.223
REMARK  Name = 
REMARK  29 active torsions:
REMARK  status: ('A' for Active; 'I' for Inactive)
REMARK    1  A    between atoms: C_1  and  C_2
REMARK    2  A    between atoms: C_2  and  C_3
REMARK    3  A    between atoms: C_3  and  C_4
REMARK    4  A    between atoms: C_4  and  C_5
REMARK    5  A    between atoms: C_5  and  C_6
REMARK    6  A    between atoms: C_6  and  C_7
REMARK    7  A    between atoms: C_7  and  C_8
REMARK    8  A    between atoms: C_8  and  C_9
REMARK    9  A    between atoms: C_10  and  C_11
REMARK   10  A    between atoms: C_11  and  C_12
REMARK   11  A    between atoms: C_12  and  C_13
REMARK   12  A    between atoms: C_13  and  C_14
REMARK   13  A    between atoms: C_14  and  C_15
REMARK   14  A    between atoms: C_15  and  C_16
REMARK   15  A    between atoms: C_16  and  C_17
REMARK   16  A    between atoms: C_17  and  C_18
REMARK   17  A    between atoms: C_18  and  C_19
REMARK   18  A    between atoms: C_20  and  O_21
REMARK   19  A    between atoms: O_21  and  C_22
REMARK   20  A    between atoms: C_22  and  C_23
REMARK   21  A    between atoms: C_23  and  O_24
REMARK   22  A    between atoms: C_23  and  C_25
REMARK   23  A    between atoms: C_25  and  O_26
REMARK   24  A    between atoms: O_26  and  P_27
REMARK   25  A    between atoms: P_27  and  O_29
REMARK   26  A    between atoms: P_27  and  O_30
REMARK   27  A    between atoms: O_30  and  C_31
REMARK   28  A    between atoms: C_31  and  C_32
REMARK   29  A    between atoms: C_32  and  N_33
REMARK                            x       y       z     vdW  Elec       q    Type
REMARK                         _______ _______ _______ _____ _____    ______ ____
ROOT
ATOM      1  C   UNL     1       1.208   4.400  20.404  0.00  0.00    +0.000 C 
ATOM      2  C   UNL     1       1.560   5.501  20.758  0.00  0.00    +0.000 C 
ENDROOT
BRANCH   2   3
ATOM      3  O   UNL     1       1.931   6.714  21.167  0.00  0.00    +0.000 OA
BRANCH   3   4
ATOM      4  C   UNL     1       1.539   7.704  20.216  0.00  0.00    +0.000 C 
BRANCH   4   5
ATOM      5  C   UNL     1       0.585   8.666  20.923  0.00  0.00    +0.000 C 
BRANCH   5   6
ATOM      6  O   UNL     1       1.368   9.434  21.843  0.00  0.00    +0.000 OA
ATOM      7  H   UNL     1       0.844   9.464  22.671  0.00  0.00    +0.000 HD
ENDBRANCH   5   6
BRANCH   5   8
ATOM      8  C   UNL     1      -0.183   9.635  19.988  0.00  0.00    +0.000 C 
BRANCH   8   9
ATOM      9  O   UNL     1      -0.477  10.857  20.637  0.00  0.00    +0.000 OA
BRANCH   9  10
ATOM     10  P   UNL     1      -1.194  12.135  19.957  0.00  0.00    +0.000 P 
ATOM     11  O   UNL     1      -2.472  12.481  20.655  0.00  0.00    +0.000 OA
BRANCH  10  12
ATOM     12  O   UNL     1      -0.126  13.330  20.059  0.00  0.00    +0.000 OA
ATOM     13  H   UNL     1       0.432  13.394  20.852  0.00  0.00    +0.000 HD
ENDBRANCH  10  12
BRANCH  10  14
ATOM     14  O   UNL     1      -1.432  11.838  18.388  0.00  0.00    +0.000 OA
BRANCH  14  15
ATOM     15  C   UNL     1      -2.657  11.462  17.800  0.00  0.00    +0.000 C 
BRANCH  15  16
ATOM     16  C   UNL     1      -2.500  10.670  16.499  0.00  0.00    +0.000 C 
BRANCH  16  17
ATOM     17  N   UNL     1      -3.096  11.471  15.447  0.00  0.00    +0.000 NA
ATOM     18  H   UNL     1      -2.681  12.398  15.369  0.00  0.00    +0.000 HD
ATOM     19  H   UNL     1      -4.084  11.641  15.650  0.00  0.00    +0.000 HD
ENDBRANCH  16  17
ENDBRANCH  15  16
ENDBRANCH  14  15
ENDBRANCH  10  14
ENDBRANCH   9  10
ENDBRANCH   8   9
ENDBRANCH   5   8
ENDBRANCH   4   5
ENDBRANCH   3   4
ENDBRANCH   2   3
BRANCH   1  20
ATOM     20  C   UNL     1       0.751   3.061  20.003  0.00  0.00    +0.000 C 
BRANCH  20  21
ATOM     21  C   UNL     1       1.240   2.742  18.593  0.00  0.00    +0.000 C 
BRANCH  21  22
ATOM     22  C   UNL     1       2.597   2.056  18.625  0.00  0.00    +0.000 C 
BRANCH  22  23
ATOM     23  C   UNL     1       3.605   2.813  17.763  0.00  0.00    +0.000 C 
BRANCH  23  24
ATOM     24  C   UNL     1       2.958   4.062  17.187  0.00  0.00    +0.000 C 
BRANCH  24  25
ATOM     25  C   UNL     1       3.826   5.299  17.398  0.00  0.00    +0.000 C 
BRANCH  25  26
ATOM     26  C   UNL     1       4.420   5.340  18.807  0.00  0.00    +0.000 C 
BRANCH  26  27
ATOM     27  C   UNL     1       5.882   5.792  18.857  0.00  0.00    +0.000 C 
BRANCH  27  29
ATOM     28  C   UNL     1       7.439   4.548  17.316  0.00  0.00    +0.000 C 
ATOM     29  C   UNL     1       6.835   4.682  18.504  0.00  0.00    +0.000 C 
BRANCH  28  30
ATOM     30  C   UNL     1       7.247   5.539  16.217  0.00  0.00    +0.000 C 
BRANCH  30  31
ATOM     31  C   UNL     1       7.274   4.899  14.842  0.00  0.00    +0.000 C 
BRANCH  31  32
ATOM     32  C   UNL     1       5.861   4.905  14.275  0.00  0.00    +0.000 C 
BRANCH  32  33
ATOM     33  C   UNL     1       5.443   3.501  13.886  0.00  0.00    +0.000 C 
BRANCH  33  34
ATOM     34  C   UNL     1       5.505   3.330  12.375  0.00  0.00    +0.000 C 
BRANCH  34  35
ATOM     35  C   UNL     1       6.952   3.344  11.908  0.00  0.00    +0.000 C 
BRANCH  35  37
ATOM     36  C   UNL     1       6.087   1.148  11.084  0.00  0.00    +0.000 C 
ATOM     37  C   UNL     1       7.287   2.075  11.135  0.00  0.00    +0.000 C 
ENDBRANCH  35  37
ENDBRANCH  34  35
ENDBRANCH  33  34
ENDBRANCH  32  33
ENDBRANCH  31  32
ENDBRANCH  30  31
ENDBRANCH  28  30
ENDBRANCH  27  29
ENDBRANCH  26  27
ENDBRANCH  25  26
ENDBRANCH  24  25
ENDBRANCH  23  24
ENDBRANCH  22  23
ENDBRANCH  21  22
ENDBRANCH  20  21
ENDBRANCH   1  20
TORSDOF 28
ENDMDL
MODEL 3
REMARK VINA RESULT:      -5.2      5.674     10.152
REMARK  Name = 
REMARK  29 active torsions:
REMARK  status: ('A' for Active; 'I' for Inactive)
REMARK    1  A    between atoms: C_1  and  C_2
REMARK    2  A    between atoms: C_2  and  C_3
REMARK    3  A    between atoms: C_3  and  C_4
REMARK    4  A    between atoms: C_4  and  C_5
REMARK    5  A    between atoms: C_5  and  C_6
REMARK    6  A    between atoms: C_6  and  C_7
REMARK    7  A    between atoms: C_7  and  C_8
REMARK    8  A    between atoms: C_8  and  C_9
REMARK    9  A    between atoms: C_10  and  C_11
REMARK   10  A    between atoms: C_11  and  C_12
REMARK   11  A    between atoms: C_12  and  C_13
REMARK   12  A    between atoms: C_13  and  C_14
REMARK   13  A    between atoms: C_14  and  C_15
REMARK   14  A    between atoms: C_15  and  C_16
REMARK   15  A    between atoms: C_16  and  C_17
REMARK   16  A    between atoms: C_17  and  C_18
REMARK   17  A    between atoms: C_18  and  C_19
REMARK   18  A    between atoms: C_20  and  O_21
REMARK   19  A    between atoms: O_21  and  C_22
REMARK   20  A    between atoms: C_22  and  C_23
REMARK   21  A    between atoms: C_23  and  O_24
REMARK   22  A    between atoms: C_23  and  C_25
REMARK   23  A    between atoms: C_25  and  O_26
REMARK   24  A    between atoms: O_26  and  P_27
REMARK   25  A    between atoms: P_27  and  O_29
REMARK   26  A    between atoms: P_27  and  O_30
REMARK   27  A    between atoms: O_30  and  C_31
REMARK   28  A    between atoms: C_31  and  C_32
REMARK   29  A    between atoms: C_32  and  N_33
REMARK                            x       y       z     vdW  Elec       q    Type
REMARK                         _______ _______ _______ _____ _____    ______ ____
ROOT
ATOM      1  C   UNL     1       3.674   7.222  17.488  0.00  0.00    +0.000 C 
ATOM      2  C   UNL     1       4.660   6.964  16.840  0.00  0.00    +0.000 C 
ENDROOT
BRANCH   2   3
ATOM      3  O   UNL     1       5.736   6.687  16.104  0.00  0.00    +0.000 OA
BRANCH   3   4
ATOM      4  C   UNL     1       6.484   5.623  16.692  0.00  0.00    +0.000 C 
BRANCH   4   5
ATOM      5  C   UNL     1       5.524   4.455  16.914  0.00  0.00    +0.000 C 
BRANCH   5   6
ATOM      6  O   UNL     1       6.000   3.362  16.121  0.00  0.00    +0.000 OA
ATOM      7  H   UNL     1       6.845   3.088  16.534  0.00  0.00    +0.000 HD
ENDBRANCH   5   6
BRANCH   5   8
ATOM      8  C   UNL     1       5.390   3.985  18.385  0.00  0.00    +0.000 C 
BRANCH   8   9
ATOM      9  O   UNL     1       4.034   3.819  18.755  0.00  0.00    +0.000 OA
BRANCH   9  10
ATOM     10  P   UNL     1       3.048   2.657  18.219  0.00  0.00    +0.000 P 
ATOM     11  O   UNL     1       2.221   3.132  17.064  0.00  0.00    +0.000 OA
BRANCH  10  12
ATOM     12  O   UNL     1       4.008   1.442  17.793  0.00  0.00    +0.000 OA
ATOM     13  H   UNL     1       4.882   1.367  18.210  0.00  0.00    +0.000 HD
ENDBRANCH  10  12
BRANCH  10  14
ATOM     14  O   UNL     1       2.127   2.138  19.438  0.00  0.00    +0.000 OA
BRANCH  14  15
ATOM     15  C   UNL     1       1.157   2.902  20.119  0.00  0.00    +0.000 C 
BRANCH  15  16
ATOM     16  C   UNL     1       1.601   3.366  21.509  0.00  0.00    +0.000 C 
BRANCH  16  17
ATOM     17  N   UNL     1       2.714   2.521  21.897  0.00  0.00    +0.000 NA
ATOM     18  H   UNL     1       3.495   2.569  21.244  0.00  0.00    +0.000 HD
ATOM     19  H   UNL     1       2.430   1.540  21.896  0.00  0.00    +0.000 HD
ENDBRANCH  16  17
ENDBRANCH  15  16
ENDBRANCH  14  15
ENDBRANCH  10  14
ENDBRANCH   9  10
ENDBRANCH   8   9
ENDBRANCH   5   8
ENDBRANCH   4   5
ENDBRANCH   3   4
ENDBRANCH   2   3
BRANCH   1  20
ATOM     20  C   UNL     1       2.453   7.545  18.243  0.00  0.00    +0.000 C 
BRANCH  20  21
ATOM     21  C   UNL     1       2.517   6.921  19.634  0.00  0.00    +0.000 C 
BRANCH  21  22
ATOM     22  C   UNL     1       1.217   7.140  20.393  0.00  0.00    +0.000 C 
BRANCH  22  23
ATOM     23  C   UNL     1       1.354   8.302  21.374  0.00  0.00    +0.000 C 
BRANCH  23  24
ATOM     24  C   UNL     1      -0.002   8.948  21.603  0.00  0.00    +0.000 C 
BRANCH  24  25
ATOM     25  C   UNL     1      -0.027  10.399  21.131  0.00  0.00    +0.000 C 
BRANCH  25  26
ATOM     26  C   UNL     1      -0.863  10.567  19.862  0.00  0.00    +0.000 C 
BRANCH  26  27
ATOM     27  C   UNL     1      -0.174  11.378  18.761  0.00  0.00    +0.000 C 
BRANCH  27  29
ATOM     28  C   UNL     1      -0.310  13.893  18.700  0.00  0.00    +0.000 C 
ATOM     29  C   UNL     1      -0.864  12.690  18.502  0.00  0.00    +0.000 C 
BRANCH  28  30
ATOM     30  C   UNL     1       1.098  14.045  19.172  0.00  0.00    +0.000 C 
BRANCH  30  31
ATOM     31  C   UNL     1       1.249  13.780  20.657  0.00  0.00    +0.000 C 
BRANCH  31  32
ATOM     32  C   UNL     1       0.724  14.987  21.422  0.00  0.00    +0.000 C 
BRANCH  32  33
ATOM     33  C   UNL     1      -0.244  14.545  22.502  0.00  0.00    +0.000 C 
BRANCH  33  34
ATOM     34  C   UNL     1      -1.679  14.695  22.019  0.00  0.00    +0.000 C 
BRANCH  34  35
ATOM     35  C   UNL     1      -2.327  13.326  21.877  0.00  0.00    +0.000 C 
BRANCH  35  37
ATOM     36  C   UNL     1      -3.620  12.470  23.839  0.00  0.00    +0.000 C 
ATOM     37  C   UNL     1      -2.253  12.549  23.185  0.00  0.00    +0.000 C 
ENDBRANCH  35  37
ENDBRANCH  34  35
ENDBRANCH  33  34
ENDBRANCH  32  33
ENDBRANCH  31  32
ENDBRANCH  30  31
ENDBRANCH  28  30
ENDBRANCH  27  29
ENDBRANCH  26  27
ENDBRANCH  25  26
ENDBRANCH  24  25
ENDBRANCH  23  24
ENDBRANCH  22  23
ENDBRANCH  21  22
ENDBRANCH  20  21
ENDBRANCH   1  20
TORSDOF 28
ENDMDL
MODEL 4
REMARK VINA RESULT:      -5.2      8.243     11.887
REMARK  Name = 
REMARK  29 active torsions:
REMARK  status: ('A' for Active; 'I' for Inactive)
REMARK    1  A    between atoms: C_1  and  C_2
REMARK    2  A    between atoms: C_2  and  C_3
REMARK    3  A    between atoms: C_3  and  C_4
REMARK    4  A    between atoms: C_4  and  C_5
REMARK    5  A    between atoms: C_5  and  C_6
REMARK    6  A    between atoms: C_6  and  C_7
REMARK    7  A    between atoms: C_7  and  C_8
REMARK    8  A    between atoms: C_8  and  C_9
REMARK    9  A    between atoms: C_10  and  C_11
REMARK   10  A    between atoms: C_11  and  C_12
REMARK   11  A    between atoms: C_12  and  C_13
REMARK   12  A    between atoms: C_13  and  C_14
REMARK   13  A    between atoms: C_14  and  C_15
REMARK   14  A    between atoms: C_15  and  C_16
REMARK   15  A    between atoms: C_16  and  C_17
REMARK   16  A    between atoms: C_17  and  C_18
REMARK   17  A    between atoms: C_18  and  C_19
REMARK   18  A    between atoms: C_20  and  O_21
REMARK   19  A    between atoms: O_21  and  C_22
REMARK   20  A    between atoms: C_22  and  C_23
REMARK   21  A    between atoms: C_23  and  O_24
REMARK   22  A    between atoms: C_23  and  C_25
REMARK   23  A    between atoms: C_25  and  O_26
REMARK   24  A    between atoms: O_26  and  P_27
REMARK   25  A    between atoms: P_27  and  O_29
REMARK   26  A    between atoms: P_27  and  O_30
REMARK   27  A    between atoms: O_30  and  C_31
REMARK   28  A    between atoms: C_31  and  C_32
REMARK   29  A    between atoms: C_32  and  N_33
REMARK                            x       y       z     vdW  Elec       q    Type
REMARK                         _______ _______ _______ _____ _____    ______ ____
ROOT
ATOM      1  C   UNL     1       8.369   9.558  18.055  0.00  0.00    +0.000 C 
ATOM      2  C   UNL     1       7.772   8.611  17.598  0.00  0.00    +0.000 C 
ENDROOT
BRANCH   2   3
ATOM      3  O   UNL     1       7.096   7.571  17.111  0.00  0.00    +0.000 OA
BRANCH   3   4
ATOM      4  C   UNL     1       7.518   6.362  17.741  0.00  0.00    +0.000 C 
BRANCH   4   5
ATOM      5  C   UNL     1       7.334   5.230  16.731  0.00  0.00    +0.000 C 
BRANCH   5   6
ATOM      6  O   UNL     1       7.984   4.074  17.271  0.00  0.00    +0.000 OA
ATOM      7  H   UNL     1       7.795   3.349  16.640  0.00  0.00    +0.000 HD
ENDBRANCH   5   6
BRANCH   5   8
ATOM      8  C   UNL     1       5.861   4.870  16.407  0.00  0.00    +0.000 C 
BRANCH   8   9
ATOM      9  O   UNL     1       4.995   5.229  17.467  0.00  0.00    +0.000 OA
BRANCH   9  10
ATOM     10  P   UNL     1       4.570   4.272  18.698  0.00  0.00    +0.000 P 
ATOM     11  O   UNL     1       5.767   3.810  19.470  0.00  0.00    +0.000 OA
BRANCH  10  12
ATOM     12  O   UNL     1       3.589   5.157  19.611  0.00  0.00    +0.000 OA
ATOM     13  H   UNL     1       3.326   4.819  20.482  0.00  0.00    +0.000 HD
ENDBRANCH  10  12
BRANCH  10  14
ATOM     14  O   UNL     1       3.709   3.030  18.132  0.00  0.00    +0.000 OA
BRANCH  14  15
ATOM     15  C   UNL     1       2.881   2.186  18.901  0.00  0.00    +0.000 C 
BRANCH  15  16
ATOM     16  C   UNL     1       1.389   2.330  18.583  0.00  0.00    +0.000 C 
BRANCH  16  17
ATOM     17  N   UNL     1       1.210   3.649  18.008  0.00  0.00    +0.000 NA
ATOM     18  H   UNL     1       1.917   3.879  17.311  0.00  0.00    +0.000 HD
ATOM     19  H   UNL     1       1.308   4.366  18.729  0.00  0.00    +0.000 HD
ENDBRANCH  16  17
ENDBRANCH  15  16
ENDBRANCH  14  15
ENDBRANCH  10  14
ENDBRANCH   9  10
ENDBRANCH   8   9
ENDBRANCH   5   8
ENDBRANCH   4   5
ENDBRANCH   3   4
ENDBRANCH   2   3
BRANCH   1  20
ATOM     20  C   UNL     1       9.066  10.713  18.640  0.00  0.00    +0.000 C 
BRANCH  20  21
ATOM     21  C   UNL     1      10.352  10.994  17.868  0.00  0.00    +0.000 C 
BRANCH  21  22
ATOM     22  C   UNL     1      10.530  12.485  17.623  0.00  0.00    +0.000 C 
BRANCH  22  23
ATOM     23  C   UNL     1      11.975  12.906  17.881  0.00  0.00    +0.000 C 
BRANCH  23  24
ATOM     24  C   UNL     1      12.330  14.098  17.008  0.00  0.00    +0.000 C 
BRANCH  24  25
ATOM     25  C   UNL     1      11.925  15.418  17.658  0.00  0.00    +0.000 C 
BRANCH  25  26
ATOM     26  C   UNL     1      10.918  16.186  16.800  0.00  0.00    +0.000 C 
BRANCH  26  27
ATOM     27  C   UNL     1      10.484  17.529  17.394  0.00  0.00    +0.000 C 
BRANCH  27  29
ATOM     28  C   UNL     1       9.022  16.892  19.344  0.00  0.00    +0.000 C 
ATOM     29  C   UNL     1      10.151  17.423  18.858  0.00  0.00    +0.000 C 
BRANCH  28  30
ATOM     30  C   UNL     1       7.980  16.302  18.453  0.00  0.00    +0.000 C 
BRANCH  30  31
ATOM     31  C   UNL     1       7.715  14.839  18.752  0.00  0.00    +0.000 C 
BRANCH  31  32
ATOM     32  C   UNL     1       7.777  14.631  20.259  0.00  0.00    +0.000 C 
BRANCH  32  33
ATOM     33  C   UNL     1       8.819  13.586  20.604  0.00  0.00    +0.000 C 
BRANCH  33  34
ATOM     34  C   UNL     1       9.320  13.789  22.027  0.00  0.00    +0.000 C 
BRANCH  34  35
ATOM     35  C   UNL     1       8.953  12.587  22.885  0.00  0.00    +0.000 C 
BRANCH  35  37
ATOM     36  C   UNL     1       6.527  12.126  23.280  0.00  0.00    +0.000 C 
ATOM     37  C   UNL     1       7.745  12.893  23.762  0.00  0.00    +0.000 C 
ENDBRANCH  35  37
ENDBRANCH  34  35
ENDBRANCH  33  34
ENDBRANCH  32  33
ENDBRANCH  31  32
ENDBRANCH  30  31
ENDBRANCH  28  30
ENDBRANCH  27  29
ENDBRANCH  26  27
ENDBRANCH  25  26
ENDBRANCH  24  25
ENDBRANCH  23  24
ENDBRANCH  22  23
ENDBRANCH  21  22
ENDBRANCH  20  21
ENDBRANCH   1  20
TORSDOF 28
ENDMDL
MODEL 5
REMARK VINA RESULT:      -5.2      2.256      2.999
REMARK  Name = 
REMARK  29 active torsions:
REMARK  status: ('A' for Active; 'I' for Inactive)
REMARK    1  A    between atoms: C_1  and  C_2
REMARK    2  A    between atoms: C_2  and  C_3
REMARK    3  A    between atoms: C_3  and  C_4
REMARK    4  A    between atoms: C_4  and  C_5
REMARK    5  A    between atoms: C_5  and  C_6
REMARK    6  A    between atoms: C_6  and  C_7
REMARK    7  A    between atoms: C_7  and  C_8
REMARK    8  A    between atoms: C_8  and  C_9
REMARK    9  A    between atoms: C_10  and  C_11
REMARK   10  A    between atoms: C_11  and  C_12
REMARK   11  A    between atoms: C_12  and  C_13
REMARK   12  A    between atoms: C_13  and  C_14
REMARK   13  A    between atoms: C_14  and  C_15
REMARK   14  A    between atoms: C_15  and  C_16
REMARK   15  A    between atoms: C_16  and  C_17
REMARK   16  A    between atoms: C_17  and  C_18
REMARK   17  A    between atoms: C_18  and  C_19
REMARK   18  A    between atoms: C_20  and  O_21
REMARK   19  A    between atoms: O_21  and  C_22
REMARK   20  A    between atoms: C_22  and  C_23
REMARK   21  A    between atoms: C_23  and  O_24
REMARK   22  A    between atoms: C_23  and  C_25
REMARK   23  A    between atoms: C_25  and  O_26
REMARK   24  A    between atoms: O_26  and  P_27
REMARK   25  A    between atoms: P_27  and  O_29
REMARK   26  A    between atoms: P_27  and  O_30
REMARK   27  A    between atoms: O_30  and  C_31
REMARK   28  A    between atoms: C_31  and  C_32
REMARK   29  A    between atoms: C_32  and  N_33
REMARK                            x       y       z     vdW  Elec       q    Type
REMARK                         _______ _______ _______ _____ _____    ______ ____
ROOT
ATOM      1  C   UNL     1       1.590  10.161  18.559  0.00  0.00    +0.000 C 
ATOM      2  C   UNL     1       1.759  11.348  18.408  0.00  0.00    +0.000 C 
ENDROOT
BRANCH   2   3
ATOM      3  O   UNL     1       1.921  12.660  18.238  0.00  0.00    +0.000 OA
BRANCH   3   4
ATOM      4  C   UNL     1       1.521  13.369  19.410  0.00  0.00    +0.000 C 
BRANCH   4   5
ATOM      5  C   UNL     1       0.702  14.577  18.958  0.00  0.00    +0.000 C 
BRANCH   5   6
ATOM      6  O   UNL     1      -0.652  14.135  18.808  0.00  0.00    +0.000 OA
ATOM      7  H   UNL     1      -1.110  14.855  18.328  0.00  0.00    +0.000 HD
ENDBRANCH   5   6
BRANCH   5   8
ATOM      8  C   UNL     1       0.728  15.789  19.926  0.00  0.00    +0.000 C 
BRANCH   8   9
ATOM      9  O   UNL     1       0.788  15.371  21.277  0.00  0.00    +0.000 OA
BRANCH   9  10
ATOM     10  P   UNL     1      -0.484  15.142  22.247  0.00  0.00    +0.000 P 
ATOM     11  O   UNL     1      -0.104  15.289  23.688  0.00  0.00    +0.000 OA
BRANCH  10  12
ATOM     12  O   UNL     1      -1.564  16.246  21.808  0.00  0.00    +0.000 OA
ATOM     13  H   UNL     1      -1.535  17.123  22.226  0.00  0.00    +0.000 HD
ENDBRANCH  10  12
BRANCH  10  14
ATOM     14  O   UNL     1      -1.128  13.693  21.944  0.00  0.00    +0.000 OA
BRANCH  14  15
ATOM     15  C   UNL     1      -1.133  12.595  22.829  0.00  0.00    +0.000 C 
BRANCH  15  16
ATOM     16  C   UNL     1      -0.527  11.321  22.235  0.00  0.00    +0.000 C 
BRANCH  16  17
ATOM     17  N   UNL     1      -0.357  10.388  23.332  0.00  0.00    +0.000 NA
ATOM     18  H   UNL     1       0.318   9.653  23.127  0.00  0.00    +0.000 HD
ATOM     19  H   UNL     1      -1.234   9.896  23.516  0.00  0.00    +0.000 HD
ENDBRANCH  16  17
ENDBRANCH  15  16
ENDBRANCH  14  15
ENDBRANCH  10  14
ENDBRANCH   9  10
ENDBRANCH   8   9
ENDBRANCH   5   8
ENDBRANCH   4   5
ENDBRANCH   3   4
ENDBRANCH   2   3
BRANCH   1  20
ATOM     20  C   UNL     1       1.344   8.722  18.736  0.00  0.00    +0.000 C 
BRANCH  20  21
ATOM     21  C   UNL     1       2.528   7.920  18.205  0.00  0.00    +0.000 C 
BRANCH  21  22
ATOM     22  C   UNL     1       2.592   6.543  18.851  0.00  0.00    +0.000 C 
BRANCH  22  23
ATOM     23  C   UNL     1       2.031   6.587  20.270  0.00  0.00    +0.000 C 
BRANCH  23  24
ATOM     24  C   UNL     1       1.926   5.177  20.828  0.00  0.00    +0.000 C 
BRANCH  24  25
ATOM     25  C   UNL     1       1.513   4.172  19.756  0.00  0.00    +0.000 C 
BRANCH  25  26
ATOM     26  C   UNL     1       2.196   2.818  19.957  0.00  0.00    +0.000 C 
BRANCH  26  27
ATOM     27  C   UNL     1       3.373   2.563  19.011  0.00  0.00    +0.000 C 
BRANCH  27  29
ATOM     28  C   UNL     1       3.815   3.639  16.777  0.00  0.00    +0.000 C 
ATOM     29  C   UNL     1       3.041   2.901  17.583  0.00  0.00    +0.000 C 
BRANCH  28  30
ATOM     30  C   UNL     1       5.135   4.174  17.222  0.00  0.00    +0.000 C 
BRANCH  30  31
ATOM     31  C   UNL     1       5.305   5.647  16.907  0.00  0.00    +0.000 C 
BRANCH  31  32
ATOM     32  C   UNL     1       5.708   5.790  15.446  0.00  0.00    +0.000 C 
BRANCH  32  33
ATOM     33  C   UNL     1       6.942   4.958  15.157  0.00  0.00    +0.000 C 
BRANCH  33  34
ATOM     34  C   UNL     1       6.937   4.491  13.709  0.00  0.00    +0.000 C 
BRANCH  34  35
ATOM     35  C   UNL     1       5.810   3.493  13.487  0.00  0.00    +0.000 C 
BRANCH  35  37
ATOM     36  C   UNL     1       4.338   3.353  11.471  0.00  0.00    +0.000 C 
ATOM     37  C   UNL     1       5.726   3.082  12.023  0.00  0.00    +0.000 C 
ENDBRANCH  35  37
ENDBRANCH  34  35
ENDBRANCH  33  34
ENDBRANCH  32  33
ENDBRANCH  31  32
ENDBRANCH  30  31
ENDBRANCH  28  30
ENDBRANCH  27  29
ENDBRANCH  26  27
ENDBRANCH  25  26
ENDBRANCH  24  25
ENDBRANCH  23  24
ENDBRANCH  22  23
ENDBRANCH  21  22
ENDBRANCH  20  21
ENDBRANCH   1  20
TORSDOF 28
ENDMDL
MODEL 6
REMARK VINA RESULT:      -5.2      7.553     10.889
REMARK  Name = 
REMARK  29 active torsions:
REMARK  status: ('A' for Active; 'I' for Inactive)
REMARK    1  A    between atoms: C_1  and  C_2
REMARK    2  A    between atoms: C_2  and  C_3
REMARK    3  A    between atoms: C_3  and  C_4
REMARK    4  A    between atoms: C_4  and  C_5
REMARK    5  A    between atoms: C_5  and  C_6
REMARK    6  A    between atoms: C_6  and  C_7
REMARK    7  A    between atoms: C_7  and  C_8
REMARK    8  A    between atoms: C_8  and  C_9
REMARK    9  A    between atoms: C_10  and  C_11
REMARK   10  A    between atoms: C_11  and  C_12
REMARK   11  A    between atoms: C_12  and  C_13
REMARK   12  A    between atoms: C_13  and  C_14
REMARK   13  A    between atoms: C_14  and  C_15
REMARK   14  A    between atoms: C_15  and  C_16
REMARK   15  A    between atoms: C_16  and  C_17
REMARK   16  A    between atoms: C_17  and  C_18
REMARK   17  A    between atoms: C_18  and  C_19
REMARK   18  A    between atoms: C_20  and  O_21
REMARK   19  A    between atoms: O_21  and  C_22
REMARK   20  A    between atoms: C_22  and  C_23
REMARK   21  A    between atoms: C_23  and  O_24
REMARK   22  A    between atoms: C_23  and  C_25
REMARK   23  A    between atoms: C_25  and  O_26
REMARK   24  A    between atoms: O_26  and  P_27
REMARK   25  A    between atoms: P_27  and  O_29
REMARK   26  A    between atoms: P_27  and  O_30
REMARK   27  A    between atoms: O_30  and  C_31
REMARK   28  A    between atoms: C_31  and  C_32
REMARK   29  A    between atoms: C_32  and  N_33
REMARK                            x       y       z     vdW  Elec       q    Type
REMARK                         _______ _______ _______ _____ _____    ______ ____
ROOT
ATOM      1  C   UNL     1       8.240   8.573  18.146  0.00  0.00    +0.000 C 
ATOM      2  C   UNL     1       7.763   7.667  17.504  0.00  0.00    +0.000 C 
ENDROOT
BRANCH   2   3
ATOM      3  O   UNL     1       7.258   6.653  16.802  0.00  0.00    +0.000 OA
BRANCH   3   4
ATOM      4  C   UNL     1       5.928   6.362  17.230  0.00  0.00    +0.000 C 
BRANCH   4   5
ATOM      5  C   UNL     1       5.882   4.884  17.614  0.00  0.00    +0.000 C 
BRANCH   5   6
ATOM      6  O   UNL     1       7.223   4.388  17.541  0.00  0.00    +0.000 OA
ATOM      7  H   UNL     1       7.222   3.553  18.053  0.00  0.00    +0.000 HD
ENDBRANCH   5   6
BRANCH   5   8
ATOM      8  C   UNL     1       5.315   4.588  19.026  0.00  0.00    +0.000 C 
BRANCH   8   9
ATOM      9  O   UNL     1       4.451   5.620  19.464  0.00  0.00    +0.000 OA
BRANCH   9  10
ATOM     10  P   UNL     1       2.847   5.502  19.617  0.00  0.00    +0.000 P 
ATOM     11  O   UNL     1       2.262   4.606  18.570  0.00  0.00    +0.000 OA
BRANCH  10  12
ATOM     12  O   UNL     1       2.599   4.920  21.093  0.00  0.00    +0.000 OA
ATOM     13  H   UNL     1       2.781   3.981  21.264  0.00  0.00    +0.000 HD
ENDBRANCH  10  12
BRANCH  10  14
ATOM     14  O   UNL     1       2.199   6.979  19.568  0.00  0.00    +0.000 OA
BRANCH  14  15
ATOM     15  C   UNL     1       2.434   7.947  18.570  0.00  0.00    +0.000 C 
BRANCH  15  16
ATOM     16  C   UNL     1       1.531   9.179  18.680  0.00  0.00    +0.000 C 
BRANCH  16  17
ATOM     17  N   UNL     1       1.760   9.973  17.488  0.00  0.00    +0.000 NA
ATOM     18  H   UNL     1       2.748  10.132  17.300  0.00  0.00    +0.000 HD
ATOM     19  H   UNL     1       1.360  10.906  17.603  0.00  0.00    +0.000 HD
ENDBRANCH  16  17
ENDBRANCH  15  16
ENDBRANCH  14  15
ENDBRANCH  10  14
ENDBRANCH   9  10
ENDBRANCH   8   9
ENDBRANCH   5   8
ENDBRANCH   4   5
ENDBRANCH   3   4
ENDBRANCH   2   3
BRANCH   1  20
ATOM     20  C   UNL     1       8.851   9.653  18.936  0.00  0.00    +0.000 C 
BRANCH  20  21
ATOM     21  C   UNL     1       9.105  10.869  18.051  0.00  0.00    +0.000 C 
BRANCH  21  22
ATOM     22  C   UNL     1      10.517  11.403  18.245  0.00  0.00    +0.000 C 
BRANCH  22  23
ATOM     23  C   UNL     1      10.794  11.673  19.722  0.00  0.00    +0.000 C 
BRANCH  23  24
ATOM     24  C   UNL     1      11.950  12.649  19.861  0.00  0.00    +0.000 C 
BRANCH  24  25
ATOM     25  C   UNL     1      11.699  13.941  19.087  0.00  0.00    +0.000 C 
BRANCH  25  26
ATOM     26  C   UNL     1      10.414  14.633  19.543  0.00  0.00    +0.000 C 
BRANCH  26  27
ATOM     27  C   UNL     1      10.639  15.796  20.513  0.00  0.00    +0.000 C 
BRANCH  27  29
ATOM     28  C   UNL     1       9.402  15.329  22.657  0.00  0.00    +0.000 C 
ATOM     29  C   UNL     1      10.540  15.367  21.952  0.00  0.00    +0.000 C 
BRANCH  28  30
ATOM     30  C   UNL     1       8.085  15.682  22.051  0.00  0.00    +0.000 C 
BRANCH  30  31
ATOM     31  C   UNL     1       7.364  14.478  21.477  0.00  0.00    +0.000 C 
BRANCH  31  32
ATOM     32  C   UNL     1       7.112  13.481  22.600  0.00  0.00    +0.000 C 
BRANCH  32  33
ATOM     33  C   UNL     1       7.997  12.262  22.430  0.00  0.00    +0.000 C 
BRANCH  33  34
ATOM     34  C   UNL     1       8.061  11.471  23.728  0.00  0.00    +0.000 C 
BRANCH  34  35
ATOM     35  C   UNL     1       8.391  12.397  24.888  0.00  0.00    +0.000 C 
BRANCH  35  37
ATOM     36  C   UNL     1       6.275  11.290  25.628  0.00  0.00    +0.000 C 
ATOM     37  C   UNL     1       7.428  12.183  26.049  0.00  0.00    +0.000 C 
ENDBRANCH  35  37
ENDBRANCH  34  35
ENDBRANCH  33  34
ENDBRANCH  32  33
ENDBRANCH  31  32
ENDBRANCH  30  31
ENDBRANCH  28  30
ENDBRANCH  27  29
ENDBRANCH  26  27
ENDBRANCH  25  26
ENDBRANCH  24  25
ENDBRANCH  23  24
ENDBRANCH  22  23
ENDBRANCH  21  22
ENDBRANCH  20  21
ENDBRANCH   1  20
TORSDOF 28
ENDMDL
MODEL 7
REMARK VINA RESULT:      -5.1      2.212      4.382
REMARK  Name = 
REMARK  29 active torsions:
REMARK  status: ('A' for Active; 'I' for Inactive)
REMARK    1  A    between atoms: C_1  and  C_2
REMARK    2  A    between atoms: C_2  and  C_3
REMARK    3  A    between atoms: C_3  and  C_4
REMARK    4  A    between atoms: C_4  and  C_5
REMARK    5  A    between atoms: C_5  and  C_6
REMARK    6  A    between atoms: C_6  and  C_7
REMARK    7  A    between atoms: C_7  and  C_8
REMARK    8  A    between atoms: C_8  and  C_9
REMARK    9  A    between atoms: C_10  and  C_11
REMARK   10  A    between atoms: C_11  and  C_12
REMARK   11  A    between atoms: C_12  and  C_13
REMARK   12  A    between atoms: C_13  and  C_14
REMARK   13  A    between atoms: C_14  and  C_15
REMARK   14  A    between atoms: C_15  and  C_16
REMARK   15  A    between atoms: C_16  and  C_17
REMARK   16  A    between atoms: C_17  and  C_18
REMARK   17  A    between atoms: C_18  and  C_19
REMARK   18  A    between atoms: C_20  and  O_21
REMARK   19  A    between atoms: O_21  and  C_22
REMARK   20  A    between atoms: C_22  and  C_23
REMARK   21  A    between atoms: C_23  and  O_24
REMARK   22  A    between atoms: C_23  and  C_25
REMARK   23  A    between atoms: C_25  and  O_26
REMARK   24  A    between atoms: O_26  and  P_27
REMARK   25  A    between atoms: P_27  and  O_29
REMARK   26  A    between atoms: P_27  and  O_30
REMARK   27  A    between atoms: O_30  and  C_31
REMARK   28  A    between atoms: C_31  and  C_32
REMARK   29  A    between atoms: C_32  and  N_33
REMARK                            x       y       z     vdW  Elec       q    Type
REMARK                         _______ _______ _______ _____ _____    ______ ____
ROOT
ATOM      1  C   UNL     1       1.207   5.567  20.632  0.00  0.00    +0.000 C 
ATOM      2  C   UNL     1       1.385   6.758  20.729  0.00  0.00    +0.000 C 
ENDROOT
BRANCH   2   3
ATOM      3  O   UNL     1       1.603   8.069  20.825  0.00  0.00    +0.000 OA
BRANCH   3   4
ATOM      4  C   UNL     1       1.004   8.591  22.010  0.00  0.00    +0.000 C 
BRANCH   4   5
ATOM      5  C   UNL     1       0.015   9.676  21.586  0.00  0.00    +0.000 C 
BRANCH   5   6
ATOM      6  O   UNL     1       0.309  10.841  22.366  0.00  0.00    +0.000 OA
ATOM      7  H   UNL     1       1.198  11.133  22.076  0.00  0.00    +0.000 HD
ENDBRANCH   5   6
BRANCH   5   8
ATOM      8  C   UNL     1       0.059  10.055  20.084  0.00  0.00    +0.000 C 
BRANCH   8   9
ATOM      9  O   UNL     1      -1.134  10.697  19.676  0.00  0.00    +0.000 OA
BRANCH   9  10
ATOM     10  P   UNL     1      -1.221  12.061  18.814  0.00  0.00    +0.000 P 
ATOM     11  O   UNL     1      -1.700  11.796  17.420  0.00  0.00    +0.000 OA
BRANCH  10  12
ATOM     12  O   UNL     1      -2.238  13.011  19.615  0.00  0.00    +0.000 OA
ATOM     13  H   UNL     1      -3.094  13.228  19.211  0.00  0.00    +0.000 HD
ENDBRANCH  10  12
BRANCH  10  14
ATOM     14  O   UNL     1       0.221  12.786  18.821  0.00  0.00    +0.000 OA
BRANCH  14  15
ATOM     15  C   UNL     1       0.513  14.028  19.421  0.00  0.00    +0.000 C 
BRANCH  15  16
ATOM     16  C   UNL     1       0.881  13.926  20.904  0.00  0.00    +0.000 C 
BRANCH  16  17
ATOM     17  N   UNL     1       1.972  12.977  21.000  0.00  0.00    +0.000 NA
ATOM     18  H   UNL     1       1.660  12.033  21.222  0.00  0.00    +0.000 HD
ATOM     19  H   UNL     1       2.599  13.234  21.766  0.00  0.00    +0.000 HD
ENDBRANCH  16  17
ENDBRANCH  15  16
ENDBRANCH  14  15
ENDBRANCH  10  14
ENDBRANCH   9  10
ENDBRANCH   8   9
ENDBRANCH   5   8
ENDBRANCH   4   5
ENDBRANCH   3   4
ENDBRANCH   2   3
BRANCH   1  20
ATOM     20  C   UNL     1       1.028   4.113  20.498  0.00  0.00    +0.000 C 
BRANCH  20  21
ATOM     21  C   UNL     1       1.422   3.415  21.796  0.00  0.00    +0.000 C 
BRANCH  21  22
ATOM     22  C   UNL     1       2.674   2.571  21.606  0.00  0.00    +0.000 C 
BRANCH  22  23
ATOM     23  C   UNL     1       3.008   2.428  20.123  0.00  0.00    +0.000 C 
BRANCH  23  24
ATOM     24  C   UNL     1       4.487   2.695  19.898  0.00  0.00    +0.000 C 
BRANCH  24  25
ATOM     25  C   UNL     1       4.762   3.210  18.488  0.00  0.00    +0.000 C 
BRANCH  25  26
ATOM     26  C   UNL     1       3.537   3.064  17.583  0.00  0.00    +0.000 C 
BRANCH  26  27
ATOM     27  C   UNL     1       3.099   4.365  16.907  0.00  0.00    +0.000 C 
BRANCH  27  29
ATOM     28  C   UNL     1       3.678   6.661  17.767  0.00  0.00    +0.000 C 
ATOM     29  C   UNL     1       3.004   5.510  17.880  0.00  0.00    +0.000 C 
BRANCH  28  30
ATOM     30  C   UNL     1       4.580   6.938  16.610  0.00  0.00    +0.000 C 
BRANCH  30  31
ATOM     31  C   UNL     1       5.954   6.318  16.779  0.00  0.00    +0.000 C 
BRANCH  31  32
ATOM     32  C   UNL     1       6.528   6.025  15.400  0.00  0.00    +0.000 C 
BRANCH  32  33
ATOM     33  C   UNL     1       7.218   4.675  15.393  0.00  0.00    +0.000 C 
BRANCH  33  34
ATOM     34  C   UNL     1       6.217   3.570  15.091  0.00  0.00    +0.000 C 
BRANCH  34  35
ATOM     35  C   UNL     1       5.312   3.987  13.941  0.00  0.00    +0.000 C 
BRANCH  35  37
ATOM     36  C   UNL     1       4.684   3.303  11.620  0.00  0.00    +0.000 C 
ATOM     37  C   UNL     1       5.821   3.431  12.618  0.00  0.00    +0.000 C 
ENDBRANCH  35  37
ENDBRANCH  34  35
ENDBRANCH  33  34
ENDBRANCH  32  33
ENDBRANCH  31  32
ENDBRANCH  30  31
ENDBRANCH  28  30
ENDBRANCH  27  29
ENDBRANCH  26  27
ENDBRANCH  25  26
ENDBRANCH  24  25
ENDBRANCH  23  24
ENDBRANCH  22  23
ENDBRANCH  21  22
ENDBRANCH  20  21
ENDBRANCH   1  20
TORSDOF 28
ENDMDL
MODEL 8
REMARK VINA RESULT:      -5.1      7.508     11.057
REMARK  Name = 
REMARK  29 active torsions:
REMARK  status: ('A' for Active; 'I' for Inactive)
REMARK    1  A    between atoms: C_1  and  C_2
REMARK    2  A    between atoms: C_2  and  C_3
REMARK    3  A    between atoms: C_3  and  C_4
REMARK    4  A    between atoms: C_4  and  C_5
REMARK    5  A    between atoms: C_5  and  C_6
REMARK    6  A    between atoms: C_6  and  C_7
REMARK    7  A    between atoms: C_7  and  C_8
REMARK    8  A    between atoms: C_8  and  C_9
REMARK    9  A    between atoms: C_10  and  C_11
REMARK   10  A    between atoms: C_11  and  C_12
REMARK   11  A    between atoms: C_12  and  C_13
REMARK   12  A    between atoms: C_13  and  C_14
REMARK   13  A    between atoms: C_14  and  C_15
REMARK   14  A    between atoms: C_15  and  C_16
REMARK   15  A    between atoms: C_16  and  C_17
REMARK   16  A    between atoms: C_17  and  C_18
REMARK   17  A    between atoms: C_18  and  C_19
REMARK   18  A    between atoms: C_20  and  O_21
REMARK   19  A    between atoms: O_21  and  C_22
REMARK   20  A    between atoms: C_22  and  C_23
REMARK   21  A    between atoms: C_23  and  O_24
REMARK   22  A    between atoms: C_23  and  C_25
REMARK   23  A    between atoms: C_25  and  O_26
REMARK   24  A    between atoms: O_26  and  P_27
REMARK   25  A    between atoms: P_27  and  O_29
REMARK   26  A    between atoms: P_27  and  O_30
REMARK   27  A    between atoms: O_30  and  C_31
REMARK   28  A    between atoms: C_31  and  C_32
REMARK   29  A    between atoms: C_32  and  N_33
REMARK                            x       y       z     vdW  Elec       q    Type
REMARK                         _______ _______ _______ _____ _____    ______ ____
ROOT
ATOM      1  C   UNL     1       8.255   8.924  18.060  0.00  0.00    +0.000 C 
ATOM      2  C   UNL     1       7.844   7.951  17.473  0.00  0.00    +0.000 C 
ENDROOT
BRANCH   2   3
ATOM      3  O   UNL     1       7.374   6.892  16.814  0.00  0.00    +0.000 OA
BRANCH   3   4
ATOM      4  C   UNL     1       7.397   5.734  17.647  0.00  0.00    +0.000 C 
BRANCH   4   5
ATOM      5  C   UNL     1       6.149   4.913  17.326  0.00  0.00    +0.000 C 
BRANCH   5   6
ATOM      6  O   UNL     1       6.574   3.787  16.549  0.00  0.00    +0.000 OA
ATOM      7  H   UNL     1       5.897   3.682  15.849  0.00  0.00    +0.000 HD
ENDBRANCH   5   6
BRANCH   5   8
ATOM      8  C   UNL     1       5.363   4.401  18.561  0.00  0.00    +0.000 C 
BRANCH   8   9
ATOM      9  O   UNL     1       3.986   4.253  18.274  0.00  0.00    +0.000 OA
BRANCH   9  10
ATOM     10  P   UNL     1       2.864   5.405  18.427  0.00  0.00    +0.000 P 
ATOM     11  O   UNL     1       3.260   6.653  17.702  0.00  0.00    +0.000 OA
BRANCH  10  12
ATOM     12  O   UNL     1       1.516   4.775  17.822  0.00  0.00    +0.000 OA
ATOM     13  H   UNL     1       0.671   4.962  18.264  0.00  0.00    +0.000 HD
ENDBRANCH  10  12
BRANCH  10  14
ATOM     14  O   UNL     1       2.601   5.684  19.995  0.00  0.00    +0.000 OA
BRANCH  14  15
ATOM     15  C   UNL     1       1.534   5.163  20.755  0.00  0.00    +0.000 C 
BRANCH  15  16
ATOM     16  C   UNL     1       1.643   3.659  21.022  0.00  0.00    +0.000 C 
BRANCH  16  17
ATOM     17  N   UNL     1       0.611   3.018  20.230  0.00  0.00    +0.000 NA
ATOM     18  H   UNL     1       0.372   2.087  20.567  0.00  0.00    +0.000 HD
ATOM     19  H   UNL     1       0.938   2.875  19.272  0.00  0.00    +0.000 HD
ENDBRANCH  16  17
ENDBRANCH  15  16
ENDBRANCH  14  15
ENDBRANCH  10  14
ENDBRANCH   9  10
ENDBRANCH   8   9
ENDBRANCH   5   8
ENDBRANCH   4   5
ENDBRANCH   3   4
ENDBRANCH   2   3
BRANCH   1  20
ATOM     20  C   UNL     1       8.726  10.130  18.758  0.00  0.00    +0.000 C 
BRANCH  20  21
ATOM     21  C   UNL     1       9.753  10.863  17.902  0.00  0.00    +0.000 C 
BRANCH  21  22
ATOM     22  C   UNL     1       9.328  12.302  17.647  0.00  0.00    +0.000 C 
BRANCH  22  23
ATOM     23  C   UNL     1      10.531  13.160  17.262  0.00  0.00    +0.000 C 
BRANCH  23  24
ATOM     24  C   UNL     1      11.766  12.683  18.008  0.00  0.00    +0.000 C 
BRANCH  24  25
ATOM     25  C   UNL     1      11.985  13.464  19.301  0.00  0.00    +0.000 C 
BRANCH  25  26
ATOM     26  C   UNL     1      11.150  12.900  20.451  0.00  0.00    +0.000 C 
BRANCH  26  27
ATOM     27  C   UNL     1      10.330  13.951  21.205  0.00  0.00    +0.000 C 
BRANCH  27  29
ATOM     28  C   UNL     1       8.841  15.426  19.807  0.00  0.00    +0.000 C 
ATOM     29  C   UNL     1      10.033  15.158  20.356  0.00  0.00    +0.000 C 
BRANCH  28  30
ATOM     30  C   UNL     1       7.655  14.547  20.025  0.00  0.00    +0.000 C 
BRANCH  30  31
ATOM     31  C   UNL     1       6.542  15.244  20.784  0.00  0.00    +0.000 C 
BRANCH  31  32
ATOM     32  C   UNL     1       6.379  14.567  22.138  0.00  0.00    +0.000 C 
BRANCH  32  33
ATOM     33  C   UNL     1       6.324  15.605  23.242  0.00  0.00    +0.000 C 
BRANCH  33  34
ATOM     34  C   UNL     1       7.348  15.285  24.321  0.00  0.00    +0.000 C 
BRANCH  34  35
ATOM     35  C   UNL     1       8.231  14.130  23.874  0.00  0.00    +0.000 C 
BRANCH  35  37
ATOM     36  C   UNL     1       8.118  11.643  24.100  0.00  0.00    +0.000 C 
ATOM     37  C   UNL     1       8.137  12.963  24.848  0.00  0.00    +0.000 C 
ENDBRANCH  35  37
ENDBRANCH  34  35
ENDBRANCH  33  34
ENDBRANCH  32  33
ENDBRANCH  31  32
ENDBRANCH  30  31
ENDBRANCH  28  30
ENDBRANCH  27  29
ENDBRANCH  26  27
ENDBRANCH  25  26
ENDBRANCH  24  25
ENDBRANCH  23  24
ENDBRANCH  22  23
ENDBRANCH  21  22
ENDBRANCH  20  21
ENDBRANCH   1  20
TORSDOF 28
ENDMDL
MODEL 9
REMARK VINA RESULT:      -5.1      2.800      4.857
REMARK  Name = 
REMARK  29 active torsions:
REMARK  status: ('A' for Active; 'I' for Inactive)
REMARK    1  A    between atoms: C_1  and  C_2
REMARK    2  A    between atoms: C_2  and  C_3
REMARK    3  A    between atoms: C_3  and  C_4
REMARK    4  A    between atoms: C_4  and  C_5
REMARK    5  A    between atoms: C_5  and  C_6
REMARK    6  A    between atoms: C_6  and  C_7
REMARK    7  A    between atoms: C_7  and  C_8
REMARK    8  A    between atoms: C_8  and  C_9
REMARK    9  A    between atoms: C_10  and  C_11
REMARK   10  A    between atoms: C_11  and  C_12
REMARK   11  A    between atoms: C_12  and  C_13
REMARK   12  A    between atoms: C_13  and  C_14
REMARK   13  A    between atoms: C_14  and  C_15
REMARK   14  A    between atoms: C_15  and  C_16
REMARK   15  A    between atoms: C_16  and  C_17
REMARK   16  A    between atoms: C_17  and  C_18
REMARK   17  A    between atoms: C_18  and  C_19
REMARK   18  A    between atoms: C_20  and  O_21
REMARK   19  A    between atoms: O_21  and  C_22
REMARK   20  A    between atoms: C_22  and  C_23
REMARK   21  A    between atoms: C_23  and  O_24
REMARK   22  A    between atoms: C_23  and  C_25
REMARK   23  A    between atoms: C_25  and  O_26
REMARK   24  A    between atoms: O_26  and  P_27
REMARK   25  A    between atoms: P_27  and  O_29
REMARK   26  A    between atoms: P_27  and  O_30
REMARK   27  A    between atoms: O_30  and  C_31
REMARK   28  A    between atoms: C_31  and  C_32
REMARK   29  A    between atoms: C_32  and  N_33
REMARK                            x       y       z     vdW  Elec       q    Type
REMARK                         _______ _______ _______ _____ _____    ______ ____
ROOT
ATOM      1  C   UNL     1      -0.227  10.861  18.640  0.00  0.00    +0.000 C 
ATOM      2  C   UNL     1      -1.161  10.424  18.008  0.00  0.00    +0.000 C 
ENDROOT
BRANCH   2   3
ATOM      3  O   UNL     1      -2.192   9.924  17.329  0.00  0.00    +0.000 OA
BRANCH   3   4
ATOM      4  C   UNL     1      -2.504  10.752  16.210  0.00  0.00    +0.000 C 
BRANCH   4   5
ATOM      5  C   UNL     1      -3.879  11.369  16.463  0.00  0.00    +0.000 C 
BRANCH   5   6
ATOM      6  O   UNL     1      -4.751  10.888  15.435  0.00  0.00    +0.000 OA
ATOM      7  H   UNL     1      -5.460  11.560  15.357  0.00  0.00    +0.000 HD
ENDBRANCH   5   6
BRANCH   5   8
ATOM      8  C   UNL     1      -4.503  11.039  17.844  0.00  0.00    +0.000 C 
BRANCH   8   9
ATOM      9  O   UNL     1      -5.051  12.192  18.453  0.00  0.00    +0.000 OA
BRANCH   9  10
ATOM     10  P   UNL     1      -6.593  12.664  18.358  0.00  0.00    +0.000 P 
ATOM     11  O   UNL     1      -6.738  14.123  18.661  0.00  0.00    +0.000 OA
BRANCH  10  12
ATOM     12  O   UNL     1      -7.053  12.327  16.857  0.00  0.00    +0.000 OA
ATOM     13  H   UNL     1      -7.998  12.192  16.675  0.00  0.00    +0.000 HD
ENDBRANCH  10  12
BRANCH  10  14
ATOM     14  O   UNL     1      -7.487  11.757  19.350  0.00  0.00    +0.000 OA
BRANCH  14  15
ATOM     15  C   UNL     1      -7.202  11.495  20.706  0.00  0.00    +0.000 C 
BRANCH  15  16
ATOM     16  C   UNL     1      -6.786  12.737  21.500  0.00  0.00    +0.000 C 
BRANCH  16  17
ATOM     17  N   UNL     1      -5.786  12.306  22.457  0.00  0.00    +0.000 NA
ATOM     18  H   UNL     1      -4.840  12.324  22.078  0.00  0.00    +0.000 HD
ATOM     19  H   UNL     1      -5.945  11.332  22.720  0.00  0.00    +0.000 HD
ENDBRANCH  16  17
ENDBRANCH  15  16
ENDBRANCH  14  15
ENDBRANCH  10  14
ENDBRANCH   9  10
ENDBRANCH   8   9
ENDBRANCH   5   8
ENDBRANCH   4   5
ENDBRANCH   3   4
ENDBRANCH   2   3
BRANCH   1  20
ATOM     20  C   UNL     1       0.905  11.363  19.433  0.00  0.00    +0.000 C 
BRANCH  20  21
ATOM     21  C   UNL     1       0.464  11.618  20.871  0.00  0.00    +0.000 C 
BRANCH  21  22
ATOM     22  C   UNL     1       1.152  10.661  21.834  0.00  0.00    +0.000 C 
BRANCH  22  23
ATOM     23  C   UNL     1       0.163   9.629  22.369  0.00  0.00    +0.000 C 
BRANCH  23  24
ATOM     24  C   UNL     1       0.100   8.437  21.429  0.00  0.00    +0.000 C 
BRANCH  24  25
ATOM     25  C   UNL     1       1.487   7.873  21.134  0.00  0.00    +0.000 C 
BRANCH  25  26
ATOM     26  C   UNL     1       1.756   7.790  19.630  0.00  0.00    +0.000 C 
BRANCH  26  27
ATOM     27  C   UNL     1       2.998   6.975  19.260  0.00  0.00    +0.000 C 
BRANCH  27  29
ATOM     28  C   UNL     1       4.434   6.562  17.232  0.00  0.00    +0.000 C 
ATOM     29  C   UNL     1       3.435   7.215  17.840  0.00  0.00    +0.000 C 
BRANCH  28  30
ATOM     30  C   UNL     1       5.200   5.478  17.914  0.00  0.00    +0.000 C 
BRANCH  30  31
ATOM     31  C   UNL     1       5.203   4.180  17.130  0.00  0.00    +0.000 C 
BRANCH  31  32
ATOM     32  C   UNL     1       3.773   3.854  16.722  0.00  0.00    +0.000 C 
BRANCH  32  33
ATOM     33  C   UNL     1       3.058   3.127  17.844  0.00  0.00    +0.000 C 
BRANCH  33  34
ATOM     34  C   UNL     1       1.720   3.790  18.137  0.00  0.00    +0.000 C 
BRANCH  34  35
ATOM     35  C   UNL     1       1.054   3.116  19.326  0.00  0.00    +0.000 C 
BRANCH  35  37
ATOM     36  C   UNL     1       2.218   4.036  21.339  0.00  0.00    +0.000 C 
ATOM     37  C   UNL     1       0.950   4.073  20.507  0.00  0.00    +0.000 C 
ENDBRANCH  35  37
ENDBRANCH  34  35
ENDBRANCH  33  34
ENDBRANCH  32  33
ENDBRANCH  31  32
ENDBRANCH  30  31
ENDBRANCH  28  30
ENDBRANCH  27  29
ENDBRANCH  26  27
ENDBRANCH  25  26
ENDBRANCH  24  25
ENDBRANCH  23  24
ENDBRANCH  22  23
ENDBRANCH  21  22
ENDBRANCH  20  21
ENDBRANCH   1  20
TORSDOF 28
ENDMDL
