MODEL 1
REMARK VINA RESULT:      -7.2      0.000      0.000
REMARK  Name = 
REMARK  7 active torsions:
REMARK  status: ('A' for Active; 'I' for Inactive)
REMARK    1  A    between atoms: C_1  and  C_2
REMARK    2  A    between atoms: C_2  and  C_3
REMARK    3  A    between atoms: C_2  and  C_4
REMARK    4  A    between atoms: C_4  and  C_5
REMARK    5  A    between atoms: C_4  and  O_6
REMARK    6  A    between atoms: C_4  and  C_7
REMARK    7  A    between atoms: C_15  and  C_16
REMARK                            x       y       z     vdW  Elec       q    Type
REMARK                         _______ _______ _______ _____ _____    ______ ____
ROOT
ATOM      1  C   UNL     1       1.538  11.603  18.840  0.00  0.00    +0.000 C 
ATOM      2  C   UNL     1       2.320  10.432  18.166  0.00  0.00    +0.000 C 
ATOM      3  N   UNL     1       1.618   9.187  18.500  0.00  0.00    +0.000 N 
ATOM      4  C   UNL     1       2.336   8.009  18.568  0.00  0.00    +0.000 A 
ATOM      5  C   UNL     1       1.866   7.006  19.417  0.00  0.00    +0.000 A 
ATOM      6  C   UNL     1       2.617   5.857  19.620  0.00  0.00    +0.000 A 
ATOM      7  C   UNL     1       3.827   5.700  18.956  0.00  0.00    +0.000 A 
ATOM      8 CL   UNL     1       4.661   4.213  19.222  0.00  0.00    +0.000 Cl
ATOM      9  C   UNL     1       4.242   6.727  18.101  0.00  0.00    +0.000 A 
ATOM     10  N   UNL     1       3.512   7.875  17.920  0.00  0.00    +0.000 NA
ATOM     11  C   UNL     1       0.238   9.153  17.999  0.00  0.00    +0.000 C 
ATOM     12  C   UNL     1      -0.544  10.329  18.630  0.00  0.00    +0.000 C 
ATOM     13  N   UNL     1       0.101  11.636  18.425  0.00  0.00    +0.000 NA
ATOM     14  H   UNL     1      -0.354  12.359  18.986  0.00  0.00    +0.000 HD
ENDROOT
BRANCH   9  15
ATOM     15  C   UNL     1       5.458   6.627  17.277  0.00  0.00    +0.000 A 
ATOM     16  N   UNL     1       6.588   7.314  17.560  0.00  0.00    +0.000 NA
ATOM     17  N   UNL     1       7.490   6.851  16.679  0.00  0.00    +0.000 N 
ATOM     18  C   UNL     1       6.989   5.949  15.795  0.00  0.00    +0.000 A 
ATOM     19  N   UNL     1       7.679   5.328  14.818  0.00  0.00    +0.000 NA
ATOM     20  C   UNL     1       6.907   4.480  14.099  0.00  0.00    +0.000 A 
ATOM     21  C   UNL     1       5.551   4.250  14.300  0.00  0.00    +0.000 A 
ATOM     22  C   UNL     1       4.893   4.917  15.336  0.00  0.00    +0.000 A 
ATOM     23  C   UNL     1       5.651   5.801  16.122  0.00  0.00    +0.000 A 
ATOM     24  H   UNL     1       8.446   7.180  16.730  0.00  0.00    +0.000 HD
ENDBRANCH   9  15
BRANCH   1  25
ATOM     25  C   UNL     1       2.227  13.010  18.679  0.00  0.00    +0.000 C 
ATOM     26  C   UNL     1       1.207  13.992  18.063  0.00  0.00    +0.000 C 
BRANCH  25  28
ATOM     27  C   UNL     1       4.047  14.528  19.766  0.00  0.00    +0.000 C 
ATOM     28  C   UNL     1       2.849  13.597  19.995  0.00  0.00    +0.000 C 
ATOM     29  C   UNL     1       1.833  14.372  20.852  0.00  0.00    +0.000 C 
ENDBRANCH  25  28
BRANCH  25  30
ATOM     30  O   UNL     1       3.269  12.839  17.690  0.00  0.00    +0.000 OA
ATOM     31  H   UNL     1       2.950  12.213  17.018  0.00  0.00    +0.000 HD
ENDBRANCH  25  30
ENDBRANCH   1  25
TORSDOF 4
ENDMDL
MODEL 2
REMARK VINA RESULT:      -6.8      6.101     11.458
REMARK  Name = 
REMARK  7 active torsions:
REMARK  status: ('A' for Active; 'I' for Inactive)
REMARK    1  A    between atoms: C_1  and  C_2
REMARK    2  A    between atoms: C_2  and  C_3
REMARK    3  A    between atoms: C_2  and  C_4
REMARK    4  A    between atoms: C_4  and  C_5
REMARK    5  A    between atoms: C_4  and  O_6
REMARK    6  A    between atoms: C_4  and  C_7
REMARK    7  A    between atoms: C_15  and  C_16
REMARK                            x       y       z     vdW  Elec       q    Type
REMARK                         _______ _______ _______ _____ _____    ______ ____
ROOT
ATOM      1  C   UNL     1       0.861  11.314  19.845  0.00  0.00    +0.000 C 
ATOM      2  C   UNL     1      -0.446  11.851  20.509  0.00  0.00    +0.000 C 
ATOM      3  N   UNL     1      -0.205  13.251  20.880  0.00  0.00    +0.000 N 
ATOM      4  C   UNL     1      -0.889  13.788  21.952  0.00  0.00    +0.000 A 
ATOM      5  C   UNL     1      -0.282  14.827  22.660  0.00  0.00    +0.000 A 
ATOM      6  C   UNL     1      -0.867  15.314  23.820  0.00  0.00    +0.000 A 
ATOM      7  C   UNL     1      -2.071  14.780  24.260  0.00  0.00    +0.000 A 
ATOM      8 CL   UNL     1      -2.755  15.490  25.676  0.00  0.00    +0.000 Cl
ATOM      9  C   UNL     1      -2.647  13.753  23.501  0.00  0.00    +0.000 A 
ATOM     10  N   UNL     1      -2.056  13.254  22.369  0.00  0.00    +0.000 NA
ATOM     11  C   UNL     1       0.100  14.107  19.725  0.00  0.00    +0.000 C 
ATOM     12  C   UNL     1       1.374  13.567  19.034  0.00  0.00    +0.000 C 
ATOM     13  N   UNL     1       1.284  12.143  18.675  0.00  0.00    +0.000 NA
ATOM     14  H   UNL     1       2.193  11.786  18.370  0.00  0.00    +0.000 HD
ENDROOT
BRANCH   9  15
ATOM     15  C   UNL     1      -3.964  13.178  23.822  0.00  0.00    +0.000 A 
ATOM     16  N   UNL     1      -4.109  11.948  24.363  0.00  0.00    +0.000 NA
ATOM     17  N   UNL     1      -5.422  11.852  24.630  0.00  0.00    +0.000 N 
ATOM     18  C   UNL     1      -6.149  12.929  24.229  0.00  0.00    +0.000 A 
ATOM     19  N   UNL     1      -7.477  13.091  24.382  0.00  0.00    +0.000 NA
ATOM     20  C   UNL     1      -7.915  14.271  23.884  0.00  0.00    +0.000 A 
ATOM     21  C   UNL     1      -7.125  15.233  23.265  0.00  0.00    +0.000 A 
ATOM     22  C   UNL     1      -5.751  15.011  23.144  0.00  0.00    +0.000 A 
ATOM     23  C   UNL     1      -5.242  13.806  23.657  0.00  0.00    +0.000 A 
ATOM     24  H   UNL     1      -5.774  11.028  25.100  0.00  0.00    +0.000 HD
ENDBRANCH   9  15
BRANCH   1  25
ATOM     25  C   UNL     1       0.815   9.779  19.491  0.00  0.00    +0.000 C 
ATOM     26  C   UNL     1       1.663   9.540  18.223  0.00  0.00    +0.000 C 
BRANCH  25  28
ATOM     27  C   UNL     1       0.132   8.469  21.638  0.00  0.00    +0.000 C 
ATOM     28  C   UNL     1       1.254   8.818  20.651  0.00  0.00    +0.000 C 
ATOM     29  C   UNL     1       1.842   7.488  20.148  0.00  0.00    +0.000 C 
ENDBRANCH  25  28
BRANCH  25  30
ATOM     30  O   UNL     1      -0.554   9.492  19.120  0.00  0.00    +0.000 OA
ATOM     31  H   UNL     1      -0.586   8.594  18.749  0.00  0.00    +0.000 HD
ENDBRANCH  25  30
ENDBRANCH   1  25
TORSDOF 4
ENDMDL
MODEL 3
REMARK VINA RESULT:      -6.6      3.290      5.512
REMARK  Name = 
REMARK  7 active torsions:
REMARK  status: ('A' for Active; 'I' for Inactive)
REMARK    1  A    between atoms: C_1  and  C_2
REMARK    2  A    between atoms: C_2  and  C_3
REMARK    3  A    between atoms: C_2  and  C_4
REMARK    4  A    between atoms: C_4  and  C_5
REMARK    5  A    between atoms: C_4  and  O_6
REMARK    6  A    between atoms: C_4  and  C_7
REMARK    7  A    between atoms: C_15  and  C_16
REMARK                            x       y       z     vdW  Elec       q    Type
REMARK                         _______ _______ _______ _____ _____    ______ ____
ROOT
ATOM      1  C   UNL     1      -0.918  10.810  17.839  0.00  0.00    +0.000 C 
ATOM      2  C   UNL     1      -0.270   9.465  18.297  0.00  0.00    +0.000 C 
ATOM      3  N   UNL     1       1.184   9.665  18.318  0.00  0.00    +0.000 N 
ATOM      4  C   UNL     1       2.013   8.582  18.102  0.00  0.00    +0.000 A 
ATOM      5  C   UNL     1       3.269   8.823  17.543  0.00  0.00    +0.000 A 
ATOM      6  C   UNL     1       4.088   7.761  17.188  0.00  0.00    +0.000 A 
ATOM      7  C   UNL     1       3.662   6.458  17.413  0.00  0.00    +0.000 A 
ATOM      8 CL   UNL     1       4.772   5.204  16.997  0.00  0.00    +0.000 Cl
ATOM      9  C   UNL     1       2.402   6.273  17.995  0.00  0.00    +0.000 A 
ATOM     10  N   UNL     1       1.581   7.323  18.323  0.00  0.00    +0.000 NA
ATOM     11  C   UNL     1       1.606  10.712  19.258  0.00  0.00    +0.000 C 
ATOM     12  C   UNL     1       0.945  12.046  18.840  0.00  0.00    +0.000 C 
ATOM     13  N   UNL     1      -0.519  11.956  18.712  0.00  0.00    +0.000 NA
ATOM     14  H   UNL     1      -0.900  12.804  18.284  0.00  0.00    +0.000 HD
ENDROOT
BRANCH   9  15
ATOM     15  C   UNL     1       1.889   4.943  18.363  0.00  0.00    +0.000 A 
ATOM     16  N   UNL     1       1.321   4.108  17.465  0.00  0.00    +0.000 NA
ATOM     17  N   UNL     1       1.120   2.968  18.148  0.00  0.00    +0.000 N 
ATOM     18  C   UNL     1       1.466   3.041  19.460  0.00  0.00    +0.000 A 
ATOM     19  N   UNL     1       1.373   2.044  20.362  0.00  0.00    +0.000 NA
ATOM     20  C   UNL     1       1.797   2.417  21.591  0.00  0.00    +0.000 A 
ATOM     21  C   UNL     1       2.271   3.678  21.938  0.00  0.00    +0.000 A 
ATOM     22  C   UNL     1       2.352   4.668  20.955  0.00  0.00    +0.000 A 
ATOM     23  C   UNL     1       1.937   4.329  19.657  0.00  0.00    +0.000 A 
ATOM     24  H   UNL     1       0.750   2.160  17.665  0.00  0.00    +0.000 HD
ENDBRANCH   9  15
BRANCH   1  25
ATOM     25  C   UNL     1      -2.481  10.735  17.648  0.00  0.00    +0.000 C 
ATOM     26  C   UNL     1      -3.151  11.633  18.710  0.00  0.00    +0.000 C 
BRANCH  25  28
ATOM     27  C   UNL     1      -2.830   9.961  15.183  0.00  0.00    +0.000 C 
ATOM     28  C   UNL     1      -2.988  11.093  16.207  0.00  0.00    +0.000 C 
ATOM     29  C   UNL     1      -4.464  11.528  16.174  0.00  0.00    +0.000 C 
ENDBRANCH  25  28
BRANCH  25  30
ATOM     30  O   UNL     1      -2.862   9.377  17.968  0.00  0.00    +0.000 OA
ATOM     31  H   UNL     1      -3.571   9.409  18.633  0.00  0.00    +0.000 HD
ENDBRANCH  25  30
ENDBRANCH   1  25
TORSDOF 4
ENDMDL
MODEL 4
REMARK VINA RESULT:      -6.6      0.829      1.163
REMARK  Name = 
REMARK  7 active torsions:
REMARK  status: ('A' for Active; 'I' for Inactive)
REMARK    1  A    between atoms: C_1  and  C_2
REMARK    2  A    between atoms: C_2  and  C_3
REMARK    3  A    between atoms: C_2  and  C_4
REMARK    4  A    between atoms: C_4  and  C_5
REMARK    5  A    between atoms: C_4  and  O_6
REMARK    6  A    between atoms: C_4  and  C_7
REMARK    7  A    between atoms: C_15  and  C_16
REMARK                            x       y       z     vdW  Elec       q    Type
REMARK                         _______ _______ _______ _____ _____    ______ ____
ROOT
ATOM      1  C   UNL     1       1.408  11.602  18.950  0.00  0.00    +0.000 C 
ATOM      2  C   UNL     1       2.204  10.470  18.227  0.00  0.00    +0.000 C 
ATOM      3  N   UNL     1       1.474   9.215  18.443  0.00  0.00    +0.000 N 
ATOM      4  C   UNL     1       2.175   8.025  18.458  0.00  0.00    +0.000 A 
ATOM      5  C   UNL     1       1.658   6.971  19.214  0.00  0.00    +0.000 A 
ATOM      6  C   UNL     1       2.387   5.801  19.366  0.00  0.00    +0.000 A 
ATOM      7  C   UNL     1       3.621   5.673  18.743  0.00  0.00    +0.000 A 
ATOM      8 CL   UNL     1       4.426   4.159  18.937  0.00  0.00    +0.000 Cl
ATOM      9  C   UNL     1       4.084   6.752  17.980  0.00  0.00    +0.000 A 
ATOM     10  N   UNL     1       3.376   7.919  17.850  0.00  0.00    +0.000 NA
ATOM     11  C   UNL     1       0.116   9.237  17.885  0.00  0.00    +0.000 C 
ATOM     12  C   UNL     1      -0.678  10.377  18.565  0.00  0.00    +0.000 C 
ATOM     13  N   UNL     1      -0.010  11.685  18.479  0.00  0.00    +0.000 NA
ATOM     14  H   UNL     1      -0.480  12.374  19.071  0.00  0.00    +0.000 HD
ENDROOT
BRANCH   9  15
ATOM     15  C   UNL     1       5.333   6.691  17.202  0.00  0.00    +0.000 A 
ATOM     16  N   UNL     1       6.412   7.450  17.498  0.00  0.00    +0.000 NA
ATOM     17  N   UNL     1       7.369   7.009  16.664  0.00  0.00    +0.000 N 
ATOM     18  C   UNL     1       6.950   6.050  15.797  0.00  0.00    +0.000 A 
ATOM     19  N   UNL     1       7.707   5.436  14.867  0.00  0.00    +0.000 NA
ATOM     20  C   UNL     1       7.010   4.522  14.154  0.00  0.00    +0.000 A 
ATOM     21  C   UNL     1       5.662   4.223  14.317  0.00  0.00    +0.000 A 
ATOM     22  C   UNL     1       4.932   4.887  15.306  0.00  0.00    +0.000 A 
ATOM     23  C   UNL     1       5.612   5.839  16.085  0.00  0.00    +0.000 A 
ATOM     24  H   UNL     1       8.303   7.393  16.736  0.00  0.00    +0.000 HD
ENDBRANCH   9  15
BRANCH   1  25
ATOM     25  C   UNL     1       2.120  13.007  18.917  0.00  0.00    +0.000 C 
ATOM     26  C   UNL     1       3.159  13.006  17.775  0.00  0.00    +0.000 C 
BRANCH  25  28
ATOM     27  C   UNL     1       0.412  14.586  20.094  0.00  0.00    +0.000 C 
ATOM     28  C   UNL     1       1.152  14.236  18.796  0.00  0.00    +0.000 C 
ATOM     29  C   UNL     1       1.856  15.519  18.319  0.00  0.00    +0.000 C 
ENDBRANCH  25  28
BRANCH  25  30
ATOM     30  O   UNL     1       2.873  13.107  20.148  0.00  0.00    +0.000 OA
ATOM     31  H   UNL     1       2.482  13.815  20.687  0.00  0.00    +0.000 HD
ENDBRANCH  25  30
ENDBRANCH   1  25
TORSDOF 4
ENDMDL
MODEL 5
REMARK VINA RESULT:      -6.5      2.086      2.772
REMARK  Name = 
REMARK  7 active torsions:
REMARK  status: ('A' for Active; 'I' for Inactive)
REMARK    1  A    between atoms: C_1  and  C_2
REMARK    2  A    between atoms: C_2  and  C_3
REMARK    3  A    between atoms: C_2  and  C_4
REMARK    4  A    between atoms: C_4  and  C_5
REMARK    5  A    between atoms: C_4  and  O_6
REMARK    6  A    between atoms: C_4  and  C_7
REMARK    7  A    between atoms: C_15  and  C_16
REMARK                            x       y       z     vdW  Elec       q    Type
REMARK                         _______ _______ _______ _____ _____    ______ ____
ROOT
ATOM      1  C   UNL     1       1.211  13.055  19.283  0.00  0.00    +0.000 C 
ATOM      2  C   UNL     1       1.419  11.575  18.833  0.00  0.00    +0.000 C 
ATOM      3  N   UNL     1       0.516  10.742  19.637  0.00  0.00    +0.000 N 
ATOM      4  C   UNL     1       0.866   9.432  19.899  0.00  0.00    +0.000 A 
ATOM      5  C   UNL     1       0.385   8.850  21.073  0.00  0.00    +0.000 A 
ATOM      6  C   UNL     1       0.811   7.583  21.446  0.00  0.00    +0.000 A 
ATOM      7  C   UNL     1       1.698   6.888  20.635  0.00  0.00    +0.000 A 
ATOM      8 CL   UNL     1       2.123   5.296  21.147  0.00  0.00    +0.000 Cl
ATOM      9  C   UNL     1       2.134   7.510  19.458  0.00  0.00    +0.000 A 
ATOM     10  N   UNL     1       1.733   8.773  19.102  0.00  0.00    +0.000 NA
ATOM     11  C   UNL     1      -0.901  11.077  19.442  0.00  0.00    +0.000 C 
ATOM     12  C   UNL     1      -1.119  12.553  19.850  0.00  0.00    +0.000 C 
ATOM     13  N   UNL     1      -0.216  13.488  19.160  0.00  0.00    +0.000 NA
ATOM     14  H   UNL     1      -0.279  14.424  19.569  0.00  0.00    +0.000 HD
ENDROOT
BRANCH   9  15
ATOM     15  C   UNL     1       2.999   6.832  18.479  0.00  0.00    +0.000 A 
ATOM     16  N   UNL     1       4.087   7.424  17.937  0.00  0.00    +0.000 NA
ATOM     17  N   UNL     1       4.674   6.451  17.220  0.00  0.00    +0.000 N 
ATOM     18  C   UNL     1       3.988   5.277  17.213  0.00  0.00    +0.000 A 
ATOM     19  N   UNL     1       4.358   4.146  16.581  0.00  0.00    +0.000 NA
ATOM     20  C   UNL     1       3.471   3.140  16.761  0.00  0.00    +0.000 A 
ATOM     21  C   UNL     1       2.293   3.219  17.495  0.00  0.00    +0.000 A 
ATOM     22  C   UNL     1       1.969   4.418  18.135  0.00  0.00    +0.000 A 
ATOM     23  C   UNL     1       2.863   5.491  17.992  0.00  0.00    +0.000 A 
ATOM     24  H   UNL     1       5.554   6.639  16.757  0.00  0.00    +0.000 HD
ENDBRANCH   9  15
BRANCH   1  25
ATOM     25  C   UNL     1       2.195  14.077  18.597  0.00  0.00    +0.000 C 
ATOM     26  C   UNL     1       1.461  15.424  18.418  0.00  0.00    +0.000 C 
BRANCH  25  28
ATOM     27  C   UNL     1       4.595  15.095  18.550  0.00  0.00    +0.000 C 
ATOM     28  C   UNL     1       3.563  14.276  19.339  0.00  0.00    +0.000 C 
ATOM     29  C   UNL     1       3.416  14.945  20.716  0.00  0.00    +0.000 C 
ENDBRANCH  25  28
BRANCH  25  30
ATOM     30  O   UNL     1       2.439  13.570  17.264  0.00  0.00    +0.000 OA
ATOM     31  H   UNL     1       1.969  14.140  16.632  0.00  0.00    +0.000 HD
ENDBRANCH  25  30
ENDBRANCH   1  25
TORSDOF 4
ENDMDL
MODEL 6
REMARK VINA RESULT:      -6.4      6.313     10.435
REMARK  Name = 
REMARK  7 active torsions:
REMARK  status: ('A' for Active; 'I' for Inactive)
REMARK    1  A    between atoms: C_1  and  C_2
REMARK    2  A    between atoms: C_2  and  C_3
REMARK    3  A    between atoms: C_2  and  C_4
REMARK    4  A    between atoms: C_4  and  C_5
REMARK    5  A    between atoms: C_4  and  O_6
REMARK    6  A    between atoms: C_4  and  C_7
REMARK    7  A    between atoms: C_15  and  C_16
REMARK                            x       y       z     vdW  Elec       q    Type
REMARK                         _______ _______ _______ _____ _____    ______ ____
ROOT
ATOM      1  C   UNL     1      10.528  13.568  18.769  0.00  0.00    +0.000 C 
ATOM      2  C   UNL     1       9.101  14.096  18.423  0.00  0.00    +0.000 C 
ATOM      3  N   UNL     1       9.108  15.548  18.638  0.00  0.00    +0.000 N 
ATOM      4  C   UNL     1       7.931  16.181  18.986  0.00  0.00    +0.000 A 
ATOM      5  C   UNL     1       8.017  17.352  19.741  0.00  0.00    +0.000 A 
ATOM      6  C   UNL     1       6.865  17.954  20.226  0.00  0.00    +0.000 A 
ATOM      7  C   UNL     1       5.625  17.400  19.936  0.00  0.00    +0.000 A 
ATOM      8 CL   UNL     1       4.246  18.252  20.527  0.00  0.00    +0.000 Cl
ATOM      9  C   UNL     1       5.594  16.237  19.157  0.00  0.00    +0.000 A 
ATOM     10  N   UNL     1       6.734  15.627  18.700  0.00  0.00    +0.000 NA
ATOM     11  C   UNL     1      10.069  16.252  17.778  0.00  0.00    +0.000 C 
ATOM     12  C   UNL     1      11.487  15.715  18.082  0.00  0.00    +0.000 C 
ATOM     13  N   UNL     1      11.593  14.251  17.971  0.00  0.00    +0.000 NA
ATOM     14  H   UNL     1      12.492  13.922  18.331  0.00  0.00    +0.000 HD
ENDROOT
BRANCH   9  15
ATOM     15  C   UNL     1       4.334  15.618  18.712  0.00  0.00    +0.000 A 
ATOM     16  N   UNL     1       3.975  15.556  17.410  0.00  0.00    +0.000 NA
ATOM     17  N   UNL     1       2.858  14.808  17.407  0.00  0.00    +0.000 N 
ATOM     18  C   UNL     1       2.436  14.437  18.644  0.00  0.00    +0.000 A 
ATOM     19  N   UNL     1       1.355  13.683  18.921  0.00  0.00    +0.000 NA
ATOM     20  C   UNL     1       1.193  13.479  20.249  0.00  0.00    +0.000 A 
ATOM     21  C   UNL     1       2.015  13.978  21.253  0.00  0.00    +0.000 A 
ATOM     22  C   UNL     1       3.128  14.747  20.902  0.00  0.00    +0.000 A 
ATOM     23  C   UNL     1       3.350  14.979  19.534  0.00  0.00    +0.000 A 
ATOM     24  H   UNL     1       2.425  14.569  16.524  0.00  0.00    +0.000 HD
ENDBRANCH   9  15
BRANCH   1  25
ATOM     25  C   UNL     1      10.663  11.999  18.704  0.00  0.00    +0.000 C 
ATOM     26  C   UNL     1      11.954  11.585  19.444  0.00  0.00    +0.000 C 
BRANCH  25  28
ATOM     27  C   UNL     1       9.167   9.871  18.536  0.00  0.00    +0.000 C 
ATOM     28  C   UNL     1       9.424  11.206  19.248  0.00  0.00    +0.000 C 
ATOM     29  C   UNL     1       9.510  10.903  20.755  0.00  0.00    +0.000 C 
ENDBRANCH  25  28
BRANCH  25  30
ATOM     30  O   UNL     1      10.873  11.668  17.312  0.00  0.00    +0.000 OA
ATOM     31  H   UNL     1      10.659  10.729  17.187  0.00  0.00    +0.000 HD
ENDBRANCH  25  30
ENDBRANCH   1  25
TORSDOF 4
ENDMDL
MODEL 7
REMARK VINA RESULT:      -6.3      6.101      8.100
REMARK  Name = 
REMARK  7 active torsions:
REMARK  status: ('A' for Active; 'I' for Inactive)
REMARK    1  A    between atoms: C_1  and  C_2
REMARK    2  A    between atoms: C_2  and  C_3
REMARK    3  A    between atoms: C_2  and  C_4
REMARK    4  A    between atoms: C_4  and  C_5
REMARK    5  A    between atoms: C_4  and  O_6
REMARK    6  A    between atoms: C_4  and  C_7
REMARK    7  A    between atoms: C_15  and  C_16
REMARK                            x       y       z     vdW  Elec       q    Type
REMARK                         _______ _______ _______ _____ _____    ______ ____
ROOT
ATOM      1  C   UNL     1      -2.298  14.640  24.759  0.00  0.00    +0.000 C 
ATOM      2  C   UNL     1      -1.733  14.033  23.436  0.00  0.00    +0.000 C 
ATOM      3  N   UNL     1      -2.058  12.601  23.437  0.00  0.00    +0.000 N 
ATOM      4  C   UNL     1      -1.233  11.726  22.759  0.00  0.00    +0.000 A 
ATOM      5  C   UNL     1      -1.163  10.408  23.215  0.00  0.00    +0.000 A 
ATOM      6  C   UNL     1      -0.255   9.524  22.651  0.00  0.00    +0.000 A 
ATOM      7  C   UNL     1       0.566   9.948  21.614  0.00  0.00    +0.000 A 
ATOM      8 CL   UNL     1       1.618   8.763  20.933  0.00  0.00    +0.000 Cl
ATOM      9  C   UNL     1       0.440  11.274  21.180  0.00  0.00    +0.000 A 
ATOM     10  N   UNL     1      -0.440  12.156  21.755  0.00  0.00    +0.000 NA
ATOM     11  C   UNL     1      -3.503  12.340  23.471  0.00  0.00    +0.000 C 
ATOM     12  C   UNL     1      -4.086  12.966  24.760  0.00  0.00    +0.000 C 
ATOM     13  N   UNL     1      -3.765  14.394  24.912  0.00  0.00    +0.000 NA
ATOM     14  H   UNL     1      -4.027  14.729  25.843  0.00  0.00    +0.000 HD
ENDROOT
BRANCH   9  15
ATOM     15  C   UNL     1       1.191  11.803  20.030  0.00  0.00    +0.000 A 
ATOM     16  N   UNL     1       1.065  11.295  18.783  0.00  0.00    +0.000 NA
ATOM     17  N   UNL     1       1.788  12.124  18.011  0.00  0.00    +0.000 N 
ATOM     18  C   UNL     1       2.431  13.103  18.699  0.00  0.00    +0.000 A 
ATOM     19  N   UNL     1       3.212  14.065  18.168  0.00  0.00    +0.000 NA
ATOM     20  C   UNL     1       3.713  14.901  19.107  0.00  0.00    +0.000 A 
ATOM     21  C   UNL     1       3.487  14.812  20.476  0.00  0.00    +0.000 A 
ATOM     22  C   UNL     1       2.659  13.798  20.965  0.00  0.00    +0.000 A 
ATOM     23  C   UNL     1       2.102  12.909  20.031  0.00  0.00    +0.000 A 
ATOM     24  H   UNL     1       1.802  11.981  17.009  0.00  0.00    +0.000 HD
ENDBRANCH   9  15
BRANCH   1  25
ATOM     25  C   UNL     1      -1.931  16.157  24.975  0.00  0.00    +0.000 C 
ATOM     26  C   UNL     1      -1.077  16.280  26.256  0.00  0.00    +0.000 C 
BRANCH  25  28
ATOM     27  C   UNL     1      -1.857  18.176  23.328  0.00  0.00    +0.000 C 
ATOM     28  C   UNL     1      -1.222  16.846  23.757  0.00  0.00    +0.000 C 
ATOM     29  C   UNL     1       0.273  17.118  24.000  0.00  0.00    +0.000 C 
ENDBRANCH  25  28
BRANCH  25  30
ATOM     30  O   UNL     1      -3.177  16.837  25.255  0.00  0.00    +0.000 OA
ATOM     31  H   UNL     1      -3.243  16.968  26.216  0.00  0.00    +0.000 HD
ENDBRANCH  25  30
ENDBRANCH   1  25
TORSDOF 4
ENDMDL
MODEL 8
REMARK VINA RESULT:      -6.3      2.919      8.266
REMARK  Name = 
REMARK  7 active torsions:
REMARK  status: ('A' for Active; 'I' for Inactive)
REMARK    1  A    between atoms: C_1  and  C_2
REMARK    2  A    between atoms: C_2  and  C_3
REMARK    3  A    between atoms: C_2  and  C_4
REMARK    4  A    between atoms: C_4  and  C_5
REMARK    5  A    between atoms: C_4  and  O_6
REMARK    6  A    between atoms: C_4  and  C_7
REMARK    7  A    between atoms: C_15  and  C_16
REMARK                            x       y       z     vdW  Elec       q    Type
REMARK                         _______ _______ _______ _____ _____    ______ ____
ROOT
ATOM      1  C   UNL     1       3.901   6.442  17.274  0.00  0.00    +0.000 C 
ATOM      2  C   UNL     1       3.677   7.861  17.885  0.00  0.00    +0.000 C 
ATOM      3  N   UNL     1       2.339   7.872  18.489  0.00  0.00    +0.000 N 
ATOM      4  C   UNL     1       1.647   9.064  18.565  0.00  0.00    +0.000 A 
ATOM      5  C   UNL     1       0.252   9.011  18.561  0.00  0.00    +0.000 A 
ATOM      6  C   UNL     1      -0.489  10.183  18.506  0.00  0.00    +0.000 A 
ATOM      7  C   UNL     1       0.164  11.409  18.480  0.00  0.00    +0.000 A 
ATOM      8 CL   UNL     1      -0.840  12.813  18.475  0.00  0.00    +0.000 Cl
ATOM      9  C   UNL     1       1.564  11.406  18.507  0.00  0.00    +0.000 A 
ATOM     10  N   UNL     1       2.297  10.247  18.535  0.00  0.00    +0.000 NA
ATOM     11  C   UNL     1       2.189   6.888  19.569  0.00  0.00    +0.000 C 
ATOM     12  C   UNL     1       2.442   5.476  18.989  0.00  0.00    +0.000 C 
ATOM     13  N   UNL     1       3.731   5.356  18.290  0.00  0.00    +0.000 NA
ATOM     14  H   UNL     1       3.792   4.467  17.788  0.00  0.00    +0.000 HD
ENDROOT
BRANCH   9  15
ATOM     15  C   UNL     1       2.355  12.645  18.577  0.00  0.00    +0.000 A 
ATOM     16  N   UNL     1       3.144  13.063  17.562  0.00  0.00    +0.000 NA
ATOM     17  N   UNL     1       3.574  14.276  17.949  0.00  0.00    +0.000 N 
ATOM     18  C   UNL     1       3.159  14.640  19.191  0.00  0.00    +0.000 A 
ATOM     19  N   UNL     1       3.440  15.801  19.813  0.00  0.00    +0.000 NA
ATOM     20  C   UNL     1       2.883  15.877  21.044  0.00  0.00    +0.000 A 
ATOM     21  C   UNL     1       2.111  14.890  21.647  0.00  0.00    +0.000 A 
ATOM     22  C   UNL     1       1.847  13.710  20.947  0.00  0.00    +0.000 A 
ATOM     23  C   UNL     1       2.391  13.585  19.658  0.00  0.00    +0.000 A 
ATOM     24  H   UNL     1       4.145  14.824  17.319  0.00  0.00    +0.000 HD
ENDBRANCH   9  15
BRANCH   1  25
ATOM     25  C   UNL     1       5.252   6.293  16.478  0.00  0.00    +0.000 C 
ATOM     26  C   UNL     1       6.365   7.032  17.252  0.00  0.00    +0.000 C 
BRANCH  25  28
ATOM     27  C   UNL     1       5.642   4.457  14.668  0.00  0.00    +0.000 C 
ATOM     28  C   UNL     1       5.674   4.815  16.160  0.00  0.00    +0.000 C 
ATOM     29  C   UNL     1       7.078   4.460  16.680  0.00  0.00    +0.000 C 
ENDBRANCH  25  28
BRANCH  25  30
ATOM     30  O   UNL     1       5.073   7.019  15.239  0.00  0.00    +0.000 OA
ATOM     31  H   UNL     1       5.916   7.444  15.011  0.00  0.00    +0.000 HD
ENDBRANCH  25  30
ENDBRANCH   1  25
TORSDOF 4
ENDMDL
MODEL 9
REMARK VINA RESULT:      -6.3      7.439      9.255
REMARK  Name = 
REMARK  7 active torsions:
REMARK  status: ('A' for Active; 'I' for Inactive)
REMARK    1  A    between atoms: C_1  and  C_2
REMARK    2  A    between atoms: C_2  and  C_3
REMARK    3  A    between atoms: C_2  and  C_4
REMARK    4  A    between atoms: C_4  and  C_5
REMARK    5  A    between atoms: C_4  and  O_6
REMARK    6  A    between atoms: C_4  and  C_7
REMARK    7  A    between atoms: C_15  and  C_16
REMARK                            x       y       z     vdW  Elec       q    Type
REMARK                         _______ _______ _______ _____ _____    ______ ____
ROOT
ATOM      1  C   UNL     1       0.477  14.641  21.844  0.00  0.00    +0.000 C 
ATOM      2  C   UNL     1      -0.771  14.356  20.950  0.00  0.00    +0.000 C 
ATOM      3  N   UNL     1      -1.963  14.643  21.758  0.00  0.00    +0.000 N 
ATOM      4  C   UNL     1      -3.134  13.962  21.492  0.00  0.00    +0.000 A 
ATOM      5  C   UNL     1      -4.031  13.769  22.544  0.00  0.00    +0.000 A 
ATOM      6  C   UNL     1      -5.159  12.982  22.361  0.00  0.00    +0.000 A 
ATOM      7  C   UNL     1      -5.404  12.409  21.120  0.00  0.00    +0.000 A 
ATOM      8 CL   UNL     1      -6.863  11.499  20.969  0.00  0.00    +0.000 Cl
ATOM      9  C   UNL     1      -4.483  12.651  20.093  0.00  0.00    +0.000 A 
ATOM     10  N   UNL     1      -3.354  13.408  20.281  0.00  0.00    +0.000 NA
ATOM     11  C   UNL     1      -2.035  16.042  22.199  0.00  0.00    +0.000 C 
ATOM     12  C   UNL     1      -0.786  16.354  23.058  0.00  0.00    +0.000 C 
ATOM     13  N   UNL     1       0.481  16.038  22.380  0.00  0.00    +0.000 NA
ATOM     14  H   UNL     1       1.269  16.104  23.030  0.00  0.00    +0.000 HD
ENDROOT
BRANCH   9  15
ATOM     15  C   UNL     1      -4.690  12.172  18.717  0.00  0.00    +0.000 A 
ATOM     16  N   UNL     1      -5.764  12.528  17.976  0.00  0.00    +0.000 NA
ATOM     17  N   UNL     1      -5.518  12.010  16.761  0.00  0.00    +0.000 N 
ATOM     18  C   UNL     1      -4.373  11.281  16.690  0.00  0.00    +0.000 A 
ATOM     19  N   UNL     1      -3.891  10.664  15.594  0.00  0.00    +0.000 NA
ATOM     20  C   UNL     1      -2.728  10.017  15.834  0.00  0.00    +0.000 A 
ATOM     21  C   UNL     1      -2.071   9.956  17.058  0.00  0.00    +0.000 A 
ATOM     22  C   UNL     1      -2.616  10.626  18.157  0.00  0.00    +0.000 A 
ATOM     23  C   UNL     1      -3.818  11.325  17.959  0.00  0.00    +0.000 A 
ATOM     24  H   UNL     1      -6.164  12.195  16.004  0.00  0.00    +0.000 HD
ENDBRANCH   9  15
BRANCH   1  25
ATOM     25  C   UNL     1       1.849  14.270  21.164  0.00  0.00    +0.000 C 
ATOM     26  C   UNL     1       1.746  12.838  20.597  0.00  0.00    +0.000 C 
BRANCH  25  28
ATOM     27  C   UNL     1       3.819  15.663  20.177  0.00  0.00    +0.000 C 
ATOM     28  C   UNL     1       2.337  15.277  20.065  0.00  0.00    +0.000 C 
ATOM     29  C   UNL     1       2.111  14.767  18.631  0.00  0.00    +0.000 C 
ENDBRANCH  25  28
BRANCH  25  30
ATOM     30  O   UNL     1       2.825  14.211  22.231  0.00  0.00    +0.000 OA
ATOM     31  H   UNL     1       3.416  14.978  22.145  0.00  0.00    +0.000 HD
ENDBRANCH  25  30
ENDBRANCH   1  25
TORSDOF 4
ENDMDL
