MODEL 1
REMARK VINA RESULT:      -7.0      0.000      0.000
REMARK  Name = 
REMARK  6 active torsions:
REMARK  status: ('A' for Active; 'I' for Inactive)
REMARK    1  A    between atoms: C_1  and  C_2
REMARK    2  A    between atoms: C_2  and  C_3
REMARK    3  A    between atoms: C_6  and  C_7
REMARK    4  A    between atoms: C_13  and  C_14
REMARK    5  A    between atoms: C_21  and  C_22
REMARK    6  A    between atoms: C_22  and  C_23
REMARK                            x       y       z     vdW  Elec       q    Type
REMARK                         _______ _______ _______ _____ _____    ______ ____
ROOT
ATOM      1  C   UNL     1      -3.318  10.595  14.672  0.00  0.00    +0.000 C 
ATOM      2  C   UNL     1      -3.329  10.478  16.201  0.00  0.00    +0.000 C 
ATOM      3  C   UNL     1      -3.266   8.992  16.596  0.00  0.00    +0.000 C 
ATOM      4  C   UNL     1      -2.120  11.238  16.822  0.00  0.00    +0.000 C 
ATOM      5  C   UNL     1      -2.686  11.779  18.081  0.00  0.00    +0.000 A 
ATOM      6  C   UNL     1      -2.271  12.313  19.276  0.00  0.00    +0.000 A 
ATOM      7  C   UNL     1      -3.498  12.631  20.007  0.00  0.00    +0.000 A 
ATOM      8  C   UNL     1      -4.587  12.232  19.210  0.00  0.00    +0.000 A 
ATOM      9  N   UNL     1      -4.048  11.735  18.066  0.00  0.00    +0.000 N 
ATOM     10  C   UNL     1      -4.577  11.161  16.831  0.00  0.00    +0.000 C 
ENDROOT
BRANCH   7  11
ATOM     11  C   UNL     1      -3.619  13.272  21.329  0.00  0.00    +0.000 A 
ATOM     12  C   UNL     1      -3.696  14.671  21.429  0.00  0.00    +0.000 A 
ATOM     13  C   UNL     1      -3.594  15.314  22.667  0.00  0.00    +0.000 A 
ATOM     14  C   UNL     1      -3.503  14.560  23.831  0.00  0.00    +0.000 A 
ATOM     15 CL   UNL     1      -3.346  15.344  25.354  0.00  0.00    +0.000 Cl
ATOM     16  C   UNL     1      -3.513  13.172  23.764  0.00  0.00    +0.000 A 
ATOM     17  C   UNL     1      -3.544  12.535  22.518  0.00  0.00    +0.000 A 
ENDBRANCH   7  11
BRANCH   6  18
ATOM     18  C   UNL     1      -0.859  12.478  19.636  0.00  0.00    +0.000 A 
ATOM     19  C   UNL     1      -0.066  13.478  19.052  0.00  0.00    +0.000 A 
ATOM     20  C   UNL     1       1.267  13.655  19.436  0.00  0.00    +0.000 A 
ATOM     21  C   UNL     1       1.813  12.866  20.444  0.00  0.00    +0.000 A 
ATOM     22  C   UNL     1       1.041  11.872  21.035  0.00  0.00    +0.000 A 
ATOM     23  C   UNL     1      -0.269  11.655  20.605  0.00  0.00    +0.000 A 
ENDBRANCH   6  18
BRANCH   8  24
ATOM     24  C   UNL     1      -6.074  12.341  19.414  0.00  0.00    +0.000 C 
BRANCH  24  25
ATOM     25  C   UNL     1      -6.712  11.131  20.001  0.00  0.00    +0.000 A 
ATOM     26  N   UNL     1      -7.078  10.943  21.256  0.00  0.00    +0.000 NA
ATOM     27  N   UNL     1      -7.583   9.669  21.322  0.00  0.00    +0.000 NA
ATOM     28  N   UNL     1      -7.535   9.077  20.138  0.00  0.00    +0.000 NA
ATOM     29  N   UNL     1      -6.987   9.979  19.318  0.00  0.00    +0.000 N 
ATOM     30  H   UNL     1      -6.809   9.741  18.350  0.00  0.00    +0.000 HD
ENDBRANCH  24  25
ENDBRANCH   8  24
TORSDOF 4
ENDMDL
MODEL 2
REMARK VINA RESULT:      -6.7      0.744      1.340
REMARK  Name = 
REMARK  6 active torsions:
REMARK  status: ('A' for Active; 'I' for Inactive)
REMARK    1  A    between atoms: C_1  and  C_2
REMARK    2  A    between atoms: C_2  and  C_3
REMARK    3  A    between atoms: C_6  and  C_7
REMARK    4  A    between atoms: C_13  and  C_14
REMARK    5  A    between atoms: C_21  and  C_22
REMARK    6  A    between atoms: C_22  and  C_23
REMARK                            x       y       z     vdW  Elec       q    Type
REMARK                         _______ _______ _______ _____ _____    ______ ____
ROOT
ATOM      1  C   UNL     1      -3.387  10.438  15.196  0.00  0.00    +0.000 C 
ATOM      2  C   UNL     1      -3.453  10.472  16.728  0.00  0.00    +0.000 C 
ATOM      3  C   UNL     1      -3.403   9.032  17.268  0.00  0.00    +0.000 C 
ATOM      4  C   UNL     1      -2.268  11.295  17.314  0.00  0.00    +0.000 C 
ATOM      5  C   UNL     1      -2.880  11.954  18.493  0.00  0.00    +0.000 A 
ATOM      6  C   UNL     1      -2.509  12.604  19.644  0.00  0.00    +0.000 A 
ATOM      7  C   UNL     1      -3.763  12.987  20.295  0.00  0.00    +0.000 A 
ATOM      8  C   UNL     1      -4.822  12.507  19.503  0.00  0.00    +0.000 A 
ATOM      9  N   UNL     1      -4.240  11.903  18.433  0.00  0.00    +0.000 N 
ATOM     10  C   UNL     1      -4.723  11.207  17.243  0.00  0.00    +0.000 C 
ENDROOT
BRANCH   7  11
ATOM     11  C   UNL     1      -3.932  13.754  21.543  0.00  0.00    +0.000 A 
ATOM     12  C   UNL     1      -4.262  15.118  21.492  0.00  0.00    +0.000 A 
ATOM     13  C   UNL     1      -4.217  15.916  22.640  0.00  0.00    +0.000 A 
ATOM     14  C   UNL     1      -3.928  15.339  23.871  0.00  0.00    +0.000 A 
ATOM     15 CL   UNL     1      -3.841  16.320  25.281  0.00  0.00    +0.000 Cl
ATOM     16  C   UNL     1      -3.684  13.974  23.959  0.00  0.00    +0.000 A 
ATOM     17  C   UNL     1      -3.660  13.194  22.799  0.00  0.00    +0.000 A 
ENDBRANCH   7  11
BRANCH   6  18
ATOM     18  C   UNL     1      -1.111  12.811  20.037  0.00  0.00    +0.000 A 
ATOM     19  C   UNL     1      -0.309  11.746  20.475  0.00  0.00    +0.000 A 
ATOM     20  C   UNL     1       1.036  11.947  20.804  0.00  0.00    +0.000 A 
ATOM     21  C   UNL     1       1.609  13.206  20.655  0.00  0.00    +0.000 A 
ATOM     22  C   UNL     1       0.829  14.272  20.221  0.00  0.00    +0.000 A 
ATOM     23  C   UNL     1      -0.528  14.082  19.954  0.00  0.00    +0.000 A 
ENDBRANCH   6  18
BRANCH   8  24
ATOM     24  C   UNL     1      -6.315  12.628  19.642  0.00  0.00    +0.000 C 
BRANCH  24  25
ATOM     25  C   UNL     1      -6.934  11.652  20.579  0.00  0.00    +0.000 A 
ATOM     26  N   UNL     1      -7.411  10.455  20.295  0.00  0.00    +0.000 NA
ATOM     27  N   UNL     1      -7.908   9.949  21.471  0.00  0.00    +0.000 NA
ATOM     28  N   UNL     1      -7.743  10.810  22.464  0.00  0.00    +0.000 NA
ATOM     29  N   UNL     1      -7.147  11.872  21.913  0.00  0.00    +0.000 N 
ATOM     30  H   UNL     1      -6.949  12.690  22.475  0.00  0.00    +0.000 HD
ENDBRANCH  24  25
ENDBRANCH   8  24
TORSDOF 4
ENDMDL
MODEL 3
REMARK VINA RESULT:      -6.5      0.756      1.360
REMARK  Name = 
REMARK  6 active torsions:
REMARK  status: ('A' for Active; 'I' for Inactive)
REMARK    1  A    between atoms: C_1  and  C_2
REMARK    2  A    between atoms: C_2  and  C_3
REMARK    3  A    between atoms: C_6  and  C_7
REMARK    4  A    between atoms: C_13  and  C_14
REMARK    5  A    between atoms: C_21  and  C_22
REMARK    6  A    between atoms: C_22  and  C_23
REMARK                            x       y       z     vdW  Elec       q    Type
REMARK                         _______ _______ _______ _____ _____    ______ ____
ROOT
ATOM      1  C   UNL     1      -3.455  10.333  15.265  0.00  0.00    +0.000 C 
ATOM      2  C   UNL     1      -3.441  10.437  16.796  0.00  0.00    +0.000 C 
ATOM      3  C   UNL     1      -3.426   9.021  17.398  0.00  0.00    +0.000 C 
ATOM      4  C   UNL     1      -2.193  11.229  17.284  0.00  0.00    +0.000 C 
ATOM      5  C   UNL     1      -2.715  11.966  18.461  0.00  0.00    +0.000 A 
ATOM      6  C   UNL     1      -2.257  12.648  19.561  0.00  0.00    +0.000 A 
ATOM      7  C   UNL     1      -3.458  13.116  20.255  0.00  0.00    +0.000 A 
ATOM      8  C   UNL     1      -4.576  12.651  19.539  0.00  0.00    +0.000 A 
ATOM      9  N   UNL     1      -4.077  11.975  18.471  0.00  0.00    +0.000 N 
ATOM     10  C   UNL     1      -4.650  11.251  17.338  0.00  0.00    +0.000 C 
ENDROOT
BRANCH   7  11
ATOM     11  C   UNL     1      -3.529  13.943  21.473  0.00  0.00    +0.000 A 
ATOM     12  C   UNL     1      -3.890  13.361  22.699  0.00  0.00    +0.000 A 
ATOM     13  C   UNL     1      -4.175  14.150  23.819  0.00  0.00    +0.000 A 
ATOM     14  C   UNL     1      -4.015  15.530  23.750  0.00  0.00    +0.000 A 
ATOM     15 CL   UNL     1      -4.392  16.509  25.112  0.00  0.00    +0.000 Cl
ATOM     16  C   UNL     1      -3.573  16.121  22.572  0.00  0.00    +0.000 A 
ATOM     17  C   UNL     1      -3.358  15.334  21.435  0.00  0.00    +0.000 A 
ENDBRANCH   7  11
BRANCH   6  18
ATOM     18  C   UNL     1      -0.833  12.808  19.874  0.00  0.00    +0.000 A 
ATOM     19  C   UNL     1      -0.179  14.037  19.704  0.00  0.00    +0.000 A 
ATOM     20  C   UNL     1       1.168  14.189  20.049  0.00  0.00    +0.000 A 
ATOM     21  C   UNL     1       1.867  13.127  20.613  0.00  0.00    +0.000 A 
ATOM     22  C   UNL     1       1.234  11.902  20.791  0.00  0.00    +0.000 A 
ATOM     23  C   UNL     1      -0.092  11.735  20.387  0.00  0.00    +0.000 A 
ENDBRANCH   6  18
BRANCH   8  24
ATOM     24  C   UNL     1      -6.054  12.846  19.746  0.00  0.00    +0.000 C 
BRANCH  24  25
ATOM     25  C   UNL     1      -6.729  11.745  20.485  0.00  0.00    +0.000 A 
ATOM     26  N   UNL     1      -7.103  10.570  20.014  0.00  0.00    +0.000 NA
ATOM     27  N   UNL     1      -7.712   9.914  21.055  0.00  0.00    +0.000 NA
ATOM     28  N   UNL     1      -7.715  10.660  22.149  0.00  0.00    +0.000 NA
ATOM     29  N   UNL     1      -7.114  11.802  21.796  0.00  0.00    +0.000 N 
ATOM     30  H   UNL     1      -7.030  12.556  22.465  0.00  0.00    +0.000 HD
ENDBRANCH  24  25
ENDBRANCH   8  24
TORSDOF 4
ENDMDL
MODEL 4
REMARK VINA RESULT:      -6.5      0.731      1.436
REMARK  Name = 
REMARK  6 active torsions:
REMARK  status: ('A' for Active; 'I' for Inactive)
REMARK    1  A    between atoms: C_1  and  C_2
REMARK    2  A    between atoms: C_2  and  C_3
REMARK    3  A    between atoms: C_6  and  C_7
REMARK    4  A    between atoms: C_13  and  C_14
REMARK    5  A    between atoms: C_21  and  C_22
REMARK    6  A    between atoms: C_22  and  C_23
REMARK                            x       y       z     vdW  Elec       q    Type
REMARK                         _______ _______ _______ _____ _____    ______ ____
ROOT
ATOM      1  C   UNL     1      -3.438  10.454  15.197  0.00  0.00    +0.000 C 
ATOM      2  C   UNL     1      -3.444  10.528  16.729  0.00  0.00    +0.000 C 
ATOM      3  C   UNL     1      -3.416   9.101  17.304  0.00  0.00    +0.000 C 
ATOM      4  C   UNL     1      -2.212  11.328  17.248  0.00  0.00    +0.000 C 
ATOM      5  C   UNL     1      -2.758  12.035  18.432  0.00  0.00    +0.000 A 
ATOM      6  C   UNL     1      -2.323  12.702  19.550  0.00  0.00    +0.000 A 
ATOM      7  C   UNL     1      -3.538  13.140  20.239  0.00  0.00    +0.000 A 
ATOM      8  C   UNL     1      -4.641  12.673  19.500  0.00  0.00    +0.000 A 
ATOM      9  N   UNL     1      -4.120  12.025  18.425  0.00  0.00    +0.000 N 
ATOM     10  C   UNL     1      -4.670  11.316  17.272  0.00  0.00    +0.000 C 
ENDROOT
BRANCH   7  11
ATOM     11  C   UNL     1      -3.635  13.942  21.472  0.00  0.00    +0.000 A 
ATOM     12  C   UNL     1      -4.097  13.354  22.660  0.00  0.00    +0.000 A 
ATOM     13  C   UNL     1      -4.403  14.132  23.781  0.00  0.00    +0.000 A 
ATOM     14  C   UNL     1      -4.165  15.502  23.757  0.00  0.00    +0.000 A 
ATOM     15 CL   UNL     1      -4.567  16.470  25.119  0.00  0.00    +0.000 Cl
ATOM     16  C   UNL     1      -3.625  16.094  22.620  0.00  0.00    +0.000 A 
ATOM     17  C   UNL     1      -3.387  15.322  21.478  0.00  0.00    +0.000 A 
ENDBRANCH   7  11
BRANCH   6  18
ATOM     18  C   UNL     1      -0.905  12.874  19.884  0.00  0.00    +0.000 A 
ATOM     19  C   UNL     1      -0.171  11.855  20.511  0.00  0.00    +0.000 A 
ATOM     20  C   UNL     1       1.192  12.014  20.784  0.00  0.00    +0.000 A 
ATOM     21  C   UNL     1       1.850  13.175  20.392  0.00  0.00    +0.000 A 
ATOM     22  C   UNL     1       1.139  14.194  19.768  0.00  0.00    +0.000 A 
ATOM     23  C   UNL     1      -0.234  14.059  19.554  0.00  0.00    +0.000 A 
ENDBRANCH   6  18
BRANCH   8  24
ATOM     24  C   UNL     1      -6.123  12.845  19.693  0.00  0.00    +0.000 C 
BRANCH  24  25
ATOM     25  C   UNL     1      -6.797  11.709  20.378  0.00  0.00    +0.000 A 
ATOM     26  N   UNL     1      -7.110  11.611  21.657  0.00  0.00    +0.000 NA
ATOM     27  N   UNL     1      -7.682  10.374  21.820  0.00  0.00    +0.000 NA
ATOM     28  N   UNL     1      -7.727   9.717  20.670  0.00  0.00    +0.000 NA
ATOM     29  N   UNL     1      -7.171  10.539  19.775  0.00  0.00    +0.000 N 
ATOM     30  H   UNL     1      -7.056  10.238  18.815  0.00  0.00    +0.000 HD
ENDBRANCH  24  25
ENDBRANCH   8  24
TORSDOF 4
ENDMDL
MODEL 5
REMARK VINA RESULT:      -6.5      3.375      6.407
REMARK  Name = 
REMARK  6 active torsions:
REMARK  status: ('A' for Active; 'I' for Inactive)
REMARK    1  A    between atoms: C_1  and  C_2
REMARK    2  A    between atoms: C_2  and  C_3
REMARK    3  A    between atoms: C_6  and  C_7
REMARK    4  A    between atoms: C_13  and  C_14
REMARK    5  A    between atoms: C_21  and  C_22
REMARK    6  A    between atoms: C_22  and  C_23
REMARK                            x       y       z     vdW  Elec       q    Type
REMARK                         _______ _______ _______ _____ _____    ______ ____
ROOT
ATOM      1  C   UNL     1      -0.347  16.894  25.789  0.00  0.00    +0.000 C 
ATOM      2  C   UNL     1      -1.145  16.364  24.591  0.00  0.00    +0.000 C 
ATOM      3  C   UNL     1      -2.413  17.217  24.410  0.00  0.00    +0.000 C 
ATOM      4  C   UNL     1      -0.288  16.414  23.291  0.00  0.00    +0.000 C 
ATOM      5  C   UNL     1      -0.730  15.201  22.562  0.00  0.00    +0.000 A 
ATOM      6  C   UNL     1      -0.683  14.657  21.302  0.00  0.00    +0.000 A 
ATOM      7  C   UNL     1      -1.362  13.364  21.412  0.00  0.00    +0.000 A 
ATOM      8  C   UNL     1      -1.809  13.227  22.739  0.00  0.00    +0.000 A 
ATOM      9  N   UNL     1      -1.400  14.349  23.387  0.00  0.00    +0.000 N 
ATOM     10  C   UNL     1      -1.513  14.861  24.751  0.00  0.00    +0.000 C 
ENDROOT
BRANCH   7  11
ATOM     11  C   UNL     1      -1.547  12.352  20.357  0.00  0.00    +0.000 A 
ATOM     12  C   UNL     1      -0.516  11.444  20.064  0.00  0.00    +0.000 A 
ATOM     13  C   UNL     1      -0.577  10.621  18.934  0.00  0.00    +0.000 A 
ATOM     14  C   UNL     1      -1.712  10.632  18.132  0.00  0.00    +0.000 A 
ATOM     15 CL   UNL     1      -1.782   9.645  16.726  0.00  0.00    +0.000 Cl
ATOM     16  C   UNL     1      -2.782  11.459  18.453  0.00  0.00    +0.000 A 
ATOM     17  C   UNL     1      -2.687  12.331  19.543  0.00  0.00    +0.000 A 
ENDBRANCH   7  11
BRANCH   6  18
ATOM     18  C   UNL     1      -0.057  15.328  20.158  0.00  0.00    +0.000 A 
ATOM     19  C   UNL     1      -0.760  16.261  19.382  0.00  0.00    +0.000 A 
ATOM     20  C   UNL     1      -0.139  16.928  18.321  0.00  0.00    +0.000 A 
ATOM     21  C   UNL     1       1.207  16.706  18.051  0.00  0.00    +0.000 A 
ATOM     22  C   UNL     1       1.920  15.786  18.811  0.00  0.00    +0.000 A 
ATOM     23  C   UNL     1       1.281  15.075  19.828  0.00  0.00    +0.000 A 
ENDBRANCH   6  18
BRANCH   8  24
ATOM     24  C   UNL     1      -2.525  12.108  23.446  0.00  0.00    +0.000 C 
BRANCH  24  25
ATOM     25  C   UNL     1      -4.006  12.246  23.489  0.00  0.00    +0.000 A 
ATOM     26  N   UNL     1      -4.807  12.632  22.513  0.00  0.00    +0.000 NA
ATOM     27  N   UNL     1      -6.076  12.637  23.037  0.00  0.00    +0.000 NA
ATOM     28  N   UNL     1      -6.067  12.261  24.307  0.00  0.00    +0.000 NA
ATOM     29  N   UNL     1      -4.783  12.027  24.594  0.00  0.00    +0.000 N 
ATOM     30  H   UNL     1      -4.515  11.759  25.532  0.00  0.00    +0.000 HD
ENDBRANCH  24  25
ENDBRANCH   8  24
TORSDOF 4
ENDMDL
MODEL 6
REMARK VINA RESULT:      -6.5      3.491      6.520
REMARK  Name = 
REMARK  6 active torsions:
REMARK  status: ('A' for Active; 'I' for Inactive)
REMARK    1  A    between atoms: C_1  and  C_2
REMARK    2  A    between atoms: C_2  and  C_3
REMARK    3  A    between atoms: C_6  and  C_7
REMARK    4  A    between atoms: C_13  and  C_14
REMARK    5  A    between atoms: C_21  and  C_22
REMARK    6  A    between atoms: C_22  and  C_23
REMARK                            x       y       z     vdW  Elec       q    Type
REMARK                         _______ _______ _______ _____ _____    ______ ____
ROOT
ATOM      1  C   UNL     1      -0.250  17.025  25.914  0.00  0.00    +0.000 C 
ATOM      2  C   UNL     1      -1.103  16.489  24.757  0.00  0.00    +0.000 C 
ATOM      3  C   UNL     1      -2.431  17.264  24.706  0.00  0.00    +0.000 C 
ATOM      4  C   UNL     1      -0.352  16.642  23.401  0.00  0.00    +0.000 C 
ATOM      5  C   UNL     1      -0.773  15.431  22.656  0.00  0.00    +0.000 A 
ATOM      6  C   UNL     1      -0.788  14.937  21.375  0.00  0.00    +0.000 A 
ATOM      7  C   UNL     1      -1.375  13.600  21.481  0.00  0.00    +0.000 A 
ATOM      8  C   UNL     1      -1.711  13.385  22.830  0.00  0.00    +0.000 A 
ATOM      9  N   UNL     1      -1.323  14.507  23.493  0.00  0.00    +0.000 N 
ATOM     10  C   UNL     1      -1.364  14.960  24.881  0.00  0.00    +0.000 C 
ENDROOT
BRANCH   7  11
ATOM     11  C   UNL     1      -1.577  12.618  20.401  0.00  0.00    +0.000 A 
ATOM     12  C   UNL     1      -0.496  11.849  19.937  0.00  0.00    +0.000 A 
ATOM     13  C   UNL     1      -0.606  11.071  18.780  0.00  0.00    +0.000 A 
ATOM     14  C   UNL     1      -1.827  10.983  18.120  0.00  0.00    +0.000 A 
ATOM     15 CL   UNL     1      -1.961  10.054  16.680  0.00  0.00    +0.000 Cl
ATOM     16  C   UNL     1      -2.934  11.666  18.611  0.00  0.00    +0.000 A 
ATOM     17  C   UNL     1      -2.800  12.498  19.728  0.00  0.00    +0.000 A 
ENDBRANCH   7  11
BRANCH   6  18
ATOM     18  C   UNL     1      -0.294  15.689  20.217  0.00  0.00    +0.000 A 
ATOM     19  C   UNL     1       1.025  15.546  19.760  0.00  0.00    +0.000 A 
ATOM     20  C   UNL     1       1.473  16.234  18.627  0.00  0.00    +0.000 A 
ATOM     21  C   UNL     1       0.595  17.038  17.908  0.00  0.00    +0.000 A 
ATOM     22  C   UNL     1      -0.717  17.190  18.346  0.00  0.00    +0.000 A 
ATOM     23  C   UNL     1      -1.143  16.553  19.512  0.00  0.00    +0.000 A 
ENDBRANCH   6  18
BRANCH   8  24
ATOM     24  C   UNL     1      -2.300  12.197  23.541  0.00  0.00    +0.000 C 
BRANCH  24  25
ATOM     25  C   UNL     1      -3.776  12.250  23.723  0.00  0.00    +0.000 A 
ATOM     26  N   UNL     1      -4.459  12.027  24.831  0.00  0.00    +0.000 NA
ATOM     27  N   UNL     1      -5.784  12.157  24.499  0.00  0.00    +0.000 NA
ATOM     28  N   UNL     1      -5.925  12.456  23.216  0.00  0.00    +0.000 NA
ATOM     29  N   UNL     1      -4.680  12.506  22.730  0.00  0.00    +0.000 N 
ATOM     30  H   UNL     1      -4.529  12.683  21.745  0.00  0.00    +0.000 HD
ENDBRANCH  24  25
ENDBRANCH   8  24
TORSDOF 4
ENDMDL
MODEL 7
REMARK VINA RESULT:      -6.5      4.057      7.015
REMARK  Name = 
REMARK  6 active torsions:
REMARK  status: ('A' for Active; 'I' for Inactive)
REMARK    1  A    between atoms: C_1  and  C_2
REMARK    2  A    between atoms: C_2  and  C_3
REMARK    3  A    between atoms: C_6  and  C_7
REMARK    4  A    between atoms: C_13  and  C_14
REMARK    5  A    between atoms: C_21  and  C_22
REMARK    6  A    between atoms: C_22  and  C_23
REMARK                            x       y       z     vdW  Elec       q    Type
REMARK                         _______ _______ _______ _____ _____    ______ ____
ROOT
ATOM      1  C   UNL     1      -0.628  16.779  25.873  0.00  0.00    +0.000 C 
ATOM      2  C   UNL     1      -1.570  16.221  24.798  0.00  0.00    +0.000 C 
ATOM      3  C   UNL     1      -3.007  16.689  25.094  0.00  0.00    +0.000 C 
ATOM      4  C   UNL     1      -1.141  16.706  23.382  0.00  0.00    +0.000 C 
ATOM      5  C   UNL     1      -1.458  15.537  22.527  0.00  0.00    +0.000 A 
ATOM      6  C   UNL     1      -1.627  15.219  21.202  0.00  0.00    +0.000 A 
ATOM      7  C   UNL     1      -1.916  13.784  21.181  0.00  0.00    +0.000 A 
ATOM      8  C   UNL     1      -1.936  13.331  22.513  0.00  0.00    +0.000 A 
ATOM      9  N   UNL     1      -1.649  14.416  23.278  0.00  0.00    +0.000 N 
ATOM     10  C   UNL     1      -1.505  14.670  24.710  0.00  0.00    +0.000 C 
ENDROOT
BRANCH   7  11
ATOM     11  C   UNL     1      -2.132  12.926  20.002  0.00  0.00    +0.000 A 
ATOM     12  C   UNL     1      -1.075  12.676  19.110  0.00  0.00    +0.000 A 
ATOM     13  C   UNL     1      -1.301  12.051  17.879  0.00  0.00    +0.000 A 
ATOM     14  C   UNL     1      -2.573  11.587  17.563  0.00  0.00    +0.000 A 
ATOM     15 CL   UNL     1      -2.864  10.845  16.040  0.00  0.00    +0.000 Cl
ATOM     16  C   UNL     1      -3.616  11.745  18.468  0.00  0.00    +0.000 A 
ATOM     17  C   UNL     1      -3.400  12.434  19.667  0.00  0.00    +0.000 A 
ENDBRANCH   7  11
BRANCH   6  18
ATOM     18  C   UNL     1      -1.520  16.201  20.119  0.00  0.00    +0.000 A 
ATOM     19  C   UNL     1      -0.455  16.172  19.207  0.00  0.00    +0.000 A 
ATOM     20  C   UNL     1      -0.387  17.086  18.150  0.00  0.00    +0.000 A 
ATOM     21  C   UNL     1      -1.407  18.013  17.964  0.00  0.00    +0.000 A 
ATOM     22  C   UNL     1      -2.472  18.055  18.857  0.00  0.00    +0.000 A 
ATOM     23  C   UNL     1      -2.505  17.183  19.947  0.00  0.00    +0.000 A 
ENDBRANCH   6  18
BRANCH   8  24
ATOM     24  C   UNL     1      -2.138  11.962  23.105  0.00  0.00    +0.000 C 
BRANCH  24  25
ATOM     25  C   UNL     1      -0.985  11.036  22.940  0.00  0.00    +0.000 A 
ATOM     26  N   UNL     1       0.184  11.298  22.386  0.00  0.00    +0.000 NA
ATOM     27  N   UNL     1       0.903  10.129  22.433  0.00  0.00    +0.000 NA
ATOM     28  N   UNL     1       0.199   9.163  23.004  0.00  0.00    +0.000 NA
ATOM     29  N   UNL     1      -0.976   9.720  23.311  0.00  0.00    +0.000 N 
ATOM     30  H   UNL     1      -1.708   9.159  23.729  0.00  0.00    +0.000 HD
ENDBRANCH  24  25
ENDBRANCH   8  24
TORSDOF 4
ENDMDL
MODEL 8
REMARK VINA RESULT:      -6.4      4.066      7.064
REMARK  Name = 
REMARK  6 active torsions:
REMARK  status: ('A' for Active; 'I' for Inactive)
REMARK    1  A    between atoms: C_1  and  C_2
REMARK    2  A    between atoms: C_2  and  C_3
REMARK    3  A    between atoms: C_6  and  C_7
REMARK    4  A    between atoms: C_13  and  C_14
REMARK    5  A    between atoms: C_21  and  C_22
REMARK    6  A    between atoms: C_22  and  C_23
REMARK                            x       y       z     vdW  Elec       q    Type
REMARK                         _______ _______ _______ _____ _____    ______ ____
ROOT
ATOM      1  C   UNL     1      -0.726  16.573  25.869  0.00  0.00    +0.000 C 
ATOM      2  C   UNL     1      -1.656  16.046  24.768  0.00  0.00    +0.000 C 
ATOM      3  C   UNL     1      -3.107  16.437  25.102  0.00  0.00    +0.000 C 
ATOM      4  C   UNL     1      -1.259  16.634  23.382  0.00  0.00    +0.000 C 
ATOM      5  C   UNL     1      -1.539  15.508  22.458  0.00  0.00    +0.000 A 
ATOM      6  C   UNL     1      -1.708  15.266  21.118  0.00  0.00    +0.000 A 
ATOM      7  C   UNL     1      -1.940  13.825  21.009  0.00  0.00    +0.000 A 
ATOM      8  C   UNL     1      -1.930  13.290  22.310  0.00  0.00    +0.000 A 
ATOM      9  N   UNL     1      -1.679  14.337  23.140  0.00  0.00    +0.000 N 
ATOM     10  C   UNL     1      -1.531  14.507  24.584  0.00  0.00    +0.000 C 
ENDROOT
BRANCH   7  11
ATOM     11  C   UNL     1      -2.133  13.034  19.780  0.00  0.00    +0.000 A 
ATOM     12  C   UNL     1      -3.373  12.429  19.520  0.00  0.00    +0.000 A 
ATOM     13  C   UNL     1      -3.523  11.502  18.483  0.00  0.00    +0.000 A 
ATOM     14  C   UNL     1      -2.454  11.238  17.634  0.00  0.00    +0.000 A 
ATOM     15 CL   UNL     1      -2.621  10.078  16.376  0.00  0.00    +0.000 Cl
ATOM     16  C   UNL     1      -1.241  11.892  17.819  0.00  0.00    +0.000 A 
ATOM     17  C   UNL     1      -1.077  12.763  18.900  0.00  0.00    +0.000 A 
ENDBRANCH   7  11
BRANCH   6  18
ATOM     18  C   UNL     1      -1.649  16.317  20.096  0.00  0.00    +0.000 A 
ATOM     19  C   UNL     1      -0.607  16.370  19.159  0.00  0.00    +0.000 A 
ATOM     20  C   UNL     1      -0.585  17.350  18.161  0.00  0.00    +0.000 A 
ATOM     21  C   UNL     1      -1.630  18.263  18.059  0.00  0.00    +0.000 A 
ATOM     22  C   UNL     1      -2.672  18.225  18.978  0.00  0.00    +0.000 A 
ATOM     23  C   UNL     1      -2.659  17.286  20.011  0.00  0.00    +0.000 A 
ENDBRANCH   6  18
BRANCH   8  24
ATOM     24  C   UNL     1      -2.073  11.881  22.818  0.00  0.00    +0.000 C 
BRANCH  24  25
ATOM     25  C   UNL     1      -0.832  11.063  22.742  0.00  0.00    +0.000 A 
ATOM     26  N   UNL     1      -0.392  10.185  23.623  0.00  0.00    +0.000 NA
ATOM     27  N   UNL     1       0.803   9.716  23.135  0.00  0.00    +0.000 NA
ATOM     28  N   UNL     1       1.099  10.286  21.977  0.00  0.00    +0.000 NA
ATOM     29  N   UNL     1       0.091  11.130  21.734  0.00  0.00    +0.000 N 
ATOM     30  H   UNL     1       0.111  11.717  20.910  0.00  0.00    +0.000 HD
ENDBRANCH  24  25
ENDBRANCH   8  24
TORSDOF 4
ENDMDL
MODEL 9
REMARK VINA RESULT:      -6.4      4.101      7.057
REMARK  Name = 
REMARK  6 active torsions:
REMARK  status: ('A' for Active; 'I' for Inactive)
REMARK    1  A    between atoms: C_1  and  C_2
REMARK    2  A    between atoms: C_2  and  C_3
REMARK    3  A    between atoms: C_6  and  C_7
REMARK    4  A    between atoms: C_13  and  C_14
REMARK    5  A    between atoms: C_21  and  C_22
REMARK    6  A    between atoms: C_22  and  C_23
REMARK                            x       y       z     vdW  Elec       q    Type
REMARK                         _______ _______ _______ _____ _____    ______ ____
ROOT
ATOM      1  C   UNL     1      -0.463  16.759  25.710  0.00  0.00    +0.000 C 
ATOM      2  C   UNL     1      -1.439  16.182  24.677  0.00  0.00    +0.000 C 
ATOM      3  C   UNL     1      -2.872  16.607  25.042  0.00  0.00    +0.000 C 
ATOM      4  C   UNL     1      -1.089  16.686  23.245  0.00  0.00    +0.000 C 
ATOM      5  C   UNL     1      -1.414  15.513  22.398  0.00  0.00    +0.000 A 
ATOM      6  C   UNL     1      -1.636  15.198  21.081  0.00  0.00    +0.000 A 
ATOM      7  C   UNL     1      -1.886  13.755  21.063  0.00  0.00    +0.000 A 
ATOM      8  C   UNL     1      -1.831  13.295  22.391  0.00  0.00    +0.000 A 
ATOM      9  N   UNL     1      -1.539  14.383  23.150  0.00  0.00    +0.000 N 
ATOM     10  C   UNL     1      -1.335  14.633  24.575  0.00  0.00    +0.000 C 
ENDROOT
BRANCH   7  11
ATOM     11  C   UNL     1      -2.133  12.899  19.889  0.00  0.00    +0.000 A 
ATOM     12  C   UNL     1      -1.105  12.660  18.962  0.00  0.00    +0.000 A 
ATOM     13  C   UNL     1      -1.366  12.036  17.738  0.00  0.00    +0.000 A 
ATOM     14  C   UNL     1      -2.643  11.561  17.463  0.00  0.00    +0.000 A 
ATOM     15 CL   UNL     1      -2.978  10.820  15.948  0.00  0.00    +0.000 Cl
ATOM     16  C   UNL     1      -3.657  11.707  18.403  0.00  0.00    +0.000 A 
ATOM     17  C   UNL     1      -3.408  12.395  19.595  0.00  0.00    +0.000 A 
ENDBRANCH   7  11
BRANCH   6  18
ATOM     18  C   UNL     1      -1.607  16.188  20.000  0.00  0.00    +0.000 A 
ATOM     19  C   UNL     1      -2.573  17.202  19.909  0.00  0.00    +0.000 A 
ATOM     20  C   UNL     1      -2.509  18.168  18.899  0.00  0.00    +0.000 A 
ATOM     21  C   UNL     1      -1.452  18.163  17.995  0.00  0.00    +0.000 A 
ATOM     22  C   UNL     1      -0.484  17.167  18.072  0.00  0.00    +0.000 A 
ATOM     23  C   UNL     1      -0.585  16.167  19.040  0.00  0.00    +0.000 A 
ENDBRANCH   6  18
BRANCH   8  24
ATOM     24  C   UNL     1      -1.968  11.918  22.983  0.00  0.00    +0.000 C 
BRANCH  24  25
ATOM     25  C   UNL     1      -0.761  11.059  22.845  0.00  0.00    +0.000 A 
ATOM     26  N   UNL     1      -0.372  10.084  23.646  0.00  0.00    +0.000 NA
ATOM     27  N   UNL     1       0.810   9.612  23.131  0.00  0.00    +0.000 NA
ATOM     28  N   UNL     1       1.148  10.274  22.035  0.00  0.00    +0.000 NA
ATOM     29  N   UNL     1       0.180  11.179  21.860  0.00  0.00    +0.000 N 
ATOM     30  H   UNL     1       0.237  11.840  21.095  0.00  0.00    +0.000 HD
ENDBRANCH  24  25
ENDBRANCH   8  24
TORSDOF 4
ENDMDL
