MODEL 1
REMARK VINA RESULT:      -8.6      0.000      0.000
REMARK  Name = 
REMARK  6 active torsions:
REMARK  status: ('A' for Active; 'I' for Inactive)
REMARK    1  A    between atoms: N_1  and  C_2
REMARK    2  A    between atoms: C_2  and  C_3
REMARK    3  A    between atoms: C_6  and  C_7
REMARK    4  A    between atoms: C_11  and  C_12
REMARK    5  A    between atoms: C_29  and  O_30
REMARK    6  A    between atoms: C_29  and  C_31
REMARK                            x       y       z     vdW  Elec       q    Type
REMARK                         _______ _______ _______ _____ _____    ______ ____
ROOT
ATOM      1  C   UNL     1       0.452   9.888  19.831  0.00  0.00    +0.000 A 
ATOM      2  N   UNL     1      -0.185  10.192  21.082  0.00  0.00    +0.000 NA
ATOM      3  C   UNL     1      -1.019  11.221  20.770  0.00  0.00    +0.000 A 
ATOM      4  N   UNL     1      -1.047  11.171  19.389  0.00  0.00    +0.000 N 
ATOM      5  C   UNL     1       0.310  11.049  19.075  0.00  0.00    +0.000 A 
ATOM      6  C   UNL     1      -2.023  12.008  18.741  0.00  0.00    +0.000 C 
ATOM      7  O   UNL     1      -1.614  13.354  18.929  0.00  0.00    +0.000 OA
ATOM      8  C   UNL     1      -1.430  13.620  20.281  0.00  0.00    +0.000 A 
ATOM      9  C   UNL     1      -1.271  14.978  20.548  0.00  0.00    +0.000 A 
ATOM     10  C   UNL     1      -1.228  15.396  21.860  0.00  0.00    +0.000 A 
ATOM     11  C   UNL     1      -1.377  14.445  22.879  0.00  0.00    +0.000 A 
ATOM     12  C   UNL     1      -1.399  13.055  22.601  0.00  0.00    +0.000 A 
ATOM     13  F   UNL     1      -1.511  12.208  23.632  0.00  0.00    +0.000 F 
ATOM     14  C   UNL     1      -1.351  12.603  21.294  0.00  0.00    +0.000 A 
ENDROOT
BRANCH   1  18
ATOM     15  C   UNL     1       3.170   6.687  18.492  0.00  0.00    +0.000 A 
ATOM     16  C   UNL     1       2.864   7.812  17.685  0.00  0.00    +0.000 A 
ATOM     17  C   UNL     1       2.042   8.906  18.105  0.00  0.00    +0.000 A 
ATOM     18  C   UNL     1       1.465   8.924  19.361  0.00  0.00    +0.000 A 
ATOM     19  C   UNL     1       1.746   7.807  20.187  0.00  0.00    +0.000 A 
ATOM     20  C   UNL     1       2.556   6.728  19.763  0.00  0.00    +0.000 A 
BRANCH  15  21
ATOM     21  C   UNL     1       4.159   5.481  18.086  0.00  0.00    +0.000 C 
ATOM     22  C   UNL     1       3.718   4.286  17.213  0.00  0.00    +0.000 C 
ATOM     23  C   UNL     1       3.741   3.374  18.487  0.00  0.00    +0.000 C 
ATOM     24  C   UNL     1       4.679   4.455  19.127  0.00  0.00    +0.000 C 
BRANCH  21  25
ATOM     25  N   UNL     1       5.354   6.077  17.433  0.00  0.00    +0.000 NA
ATOM     26  H   UNL     1       6.197   5.554  17.586  0.00  0.00    +0.000 HD
ATOM     27  H   UNL     1       5.542   7.047  17.692  0.00  0.00    +0.000 HD
ENDBRANCH  21  25
BRANCH  23  28
ATOM     28  C   UNL     1       2.391   3.158  19.178  0.00  0.00    +0.000 C 
ATOM     29  C   UNL     1       1.074   3.435  18.502  0.00  0.00    +0.000 C 
ATOM     30  C   UNL     1       1.437   2.033  18.884  0.00  0.00    +0.000 C 
ENDBRANCH  23  28
BRANCH  23  31
ATOM     31  O   UNL     1       4.438   2.111  18.242  0.00  0.00    +0.000 OA
ATOM     32  H   UNL     1       4.953   1.952  19.052  0.00  0.00    +0.000 HD
ENDBRANCH  23  31
ENDBRANCH  15  21
ENDBRANCH   1  18
BRANCH   5  33
ATOM     33  C   UNL     1       1.402  12.112  19.300  0.00  0.00    +0.000 A 
ATOM     34  C   UNL     1       1.905  12.523  20.552  0.00  0.00    +0.000 A 
ATOM     35  C   UNL     1       2.788  13.589  20.436  0.00  0.00    +0.000 A 
ATOM     36  S   UNL     1       3.015  14.079  18.815  0.00  0.00    +0.000 S 
ATOM     37  C   UNL     1       1.865  12.934  18.287  0.00  0.00    +0.000 A 
ENDBRANCH   5  33
TORSDOF 6
ENDMDL
MODEL 2
REMARK VINA RESULT:      -8.2      1.656      2.683
REMARK  Name = 
REMARK  6 active torsions:
REMARK  status: ('A' for Active; 'I' for Inactive)
REMARK    1  A    between atoms: N_1  and  C_2
REMARK    2  A    between atoms: C_2  and  C_3
REMARK    3  A    between atoms: C_6  and  C_7
REMARK    4  A    between atoms: C_11  and  C_12
REMARK    5  A    between atoms: C_29  and  O_30
REMARK    6  A    between atoms: C_29  and  C_31
REMARK                            x       y       z     vdW  Elec       q    Type
REMARK                         _______ _______ _______ _____ _____    ______ ____
ROOT
ATOM      1  C   UNL     1       0.517   9.682  19.740  0.00  0.00    +0.000 A 
ATOM      2  N   UNL     1      -0.087   9.899  21.025  0.00  0.00    +0.000 NA
ATOM      3  C   UNL     1      -0.968  10.910  20.794  0.00  0.00    +0.000 A 
ATOM      4  N   UNL     1      -1.040  10.929  19.414  0.00  0.00    +0.000 N 
ATOM      5  C   UNL     1       0.308  10.874  19.050  0.00  0.00    +0.000 A 
ATOM      6  C   UNL     1      -2.068  11.761  18.842  0.00  0.00    +0.000 C 
ATOM      7  O   UNL     1      -1.701  13.110  19.087  0.00  0.00    +0.000 OA
ATOM      8  C   UNL     1      -1.481  13.314  20.444  0.00  0.00    +0.000 A 
ATOM      9  C   UNL     1      -1.362  14.662  20.776  0.00  0.00    +0.000 A 
ATOM     10  C   UNL     1      -1.289  15.014  22.107  0.00  0.00    +0.000 A 
ATOM     11  C   UNL     1      -1.369  14.007  23.079  0.00  0.00    +0.000 A 
ATOM     12  C   UNL     1      -1.351  12.633  22.730  0.00  0.00    +0.000 A 
ATOM     13  F   UNL     1      -1.397  11.731  23.718  0.00  0.00    +0.000 F 
ATOM     14  C   UNL     1      -1.331  12.250  21.399  0.00  0.00    +0.000 A 
ENDROOT
BRANCH   1  18
ATOM     15  C   UNL     1       3.298   6.660  18.141  0.00  0.00    +0.000 A 
ATOM     16  C   UNL     1       2.943   7.826  17.416  0.00  0.00    +0.000 A 
ATOM     17  C   UNL     1       2.099   8.865  17.923  0.00  0.00    +0.000 A 
ATOM     18  C   UNL     1       1.548   8.782  19.188  0.00  0.00    +0.000 A 
ATOM     19  C   UNL     1       1.878   7.623  19.933  0.00  0.00    +0.000 A 
ATOM     20  C   UNL     1       2.709   6.599  19.423  0.00  0.00    +0.000 A 
BRANCH  15  21
ATOM     21  C   UNL     1       4.313   5.514  17.637  0.00  0.00    +0.000 C 
ATOM     22  C   UNL     1       5.520   5.030  18.470  0.00  0.00    +0.000 C 
ATOM     23  C   UNL     1       6.476   5.783  17.483  0.00  0.00    +0.000 C 
ATOM     24  C   UNL     1       5.293   5.742  16.455  0.00  0.00    +0.000 C 
BRANCH  21  25
ATOM     25  N   UNL     1       3.506   4.311  17.302  0.00  0.00    +0.000 NA
ATOM     26  H   UNL     1       2.554   4.520  17.064  0.00  0.00    +0.000 HD
ATOM     27  H   UNL     1       3.492   3.593  18.029  0.00  0.00    +0.000 HD
ENDBRANCH  21  25
BRANCH  23  28
ATOM     28  C   UNL     1       6.935   7.175  17.929  0.00  0.00    +0.000 C 
ATOM     29  C   UNL     1       8.268   7.425  18.584  0.00  0.00    +0.000 C 
ATOM     30  C   UNL     1       7.979   8.007  17.235  0.00  0.00    +0.000 C 
ENDBRANCH  23  28
BRANCH  23  31
ATOM     31  O   UNL     1       7.601   4.944  17.066  0.00  0.00    +0.000 OA
ATOM     32  H   UNL     1       8.008   5.429  16.326  0.00  0.00    +0.000 HD
ENDBRANCH  23  31
ENDBRANCH  15  21
ENDBRANCH   1  18
BRANCH   5  33
ATOM     33  C   UNL     1       1.369  11.965  19.296  0.00  0.00    +0.000 A 
ATOM     34  C   UNL     1       1.865  12.362  20.554  0.00  0.00    +0.000 A 
ATOM     35  C   UNL     1       2.714  13.458  20.459  0.00  0.00    +0.000 A 
ATOM     36  S   UNL     1       2.918  13.991  18.849  0.00  0.00    +0.000 S 
ATOM     37  C   UNL     1       1.801  12.824  18.300  0.00  0.00    +0.000 A 
ENDBRANCH   5  33
TORSDOF 6
ENDMDL
MODEL 3
REMARK VINA RESULT:      -8.2      0.910      1.089
REMARK  Name = 
REMARK  6 active torsions:
REMARK  status: ('A' for Active; 'I' for Inactive)
REMARK    1  A    between atoms: N_1  and  C_2
REMARK    2  A    between atoms: C_2  and  C_3
REMARK    3  A    between atoms: C_6  and  C_7
REMARK    4  A    between atoms: C_11  and  C_12
REMARK    5  A    between atoms: C_29  and  O_30
REMARK    6  A    between atoms: C_29  and  C_31
REMARK                            x       y       z     vdW  Elec       q    Type
REMARK                         _______ _______ _______ _____ _____    ______ ____
ROOT
ATOM      1  C   UNL     1       0.038  10.339  20.223  0.00  0.00    +0.000 A 
ATOM      2  N   UNL     1      -0.436  10.713  21.527  0.00  0.00    +0.000 NA
ATOM      3  C   UNL     1      -1.331  11.704  21.267  0.00  0.00    +0.000 A 
ATOM      4  N   UNL     1      -1.539  11.564  19.907  0.00  0.00    +0.000 N 
ATOM      5  C   UNL     1      -0.233  11.446  19.423  0.00  0.00    +0.000 A 
ATOM      6  C   UNL     1      -2.614  12.341  19.345  0.00  0.00    +0.000 C 
ATOM      7  O   UNL     1      -2.219  13.703  19.393  0.00  0.00    +0.000 OA
ATOM      8  C   UNL     1      -1.865  14.060  20.689  0.00  0.00    +0.000 A 
ATOM      9  C   UNL     1      -1.708  15.435  20.848  0.00  0.00    +0.000 A 
ATOM     10  C   UNL     1      -1.502  15.937  22.115  0.00  0.00    +0.000 A 
ATOM     11  C   UNL     1      -1.491  15.052  23.201  0.00  0.00    +0.000 A 
ATOM     12  C   UNL     1      -1.513  13.646  23.015  0.00  0.00    +0.000 A 
ATOM     13  F   UNL     1      -1.465  12.866  24.102  0.00  0.00    +0.000 F 
ATOM     14  C   UNL     1      -1.626  13.111  21.743  0.00  0.00    +0.000 A 
ENDROOT
BRANCH   1  18
ATOM     15  C   UNL     1       2.636   7.107  18.731  0.00  0.00    +0.000 A 
ATOM     16  C   UNL     1       2.205   8.179  17.907  0.00  0.00    +0.000 A 
ATOM     17  C   UNL     1       1.418   9.283  18.367  0.00  0.00    +0.000 A 
ATOM     18  C   UNL     1       1.005   9.365  19.683  0.00  0.00    +0.000 A 
ATOM     19  C   UNL     1       1.412   8.302  20.528  0.00  0.00    +0.000 A 
ATOM     20  C   UNL     1       2.186   7.213  20.065  0.00  0.00    +0.000 A 
BRANCH  15  21
ATOM     21  C   UNL     1       3.592   5.895  18.269  0.00  0.00    +0.000 C 
ATOM     22  C   UNL     1       3.052   4.517  17.825  0.00  0.00    +0.000 C 
ATOM     23  C   UNL     1       3.560   3.905  19.174  0.00  0.00    +0.000 C 
ATOM     24  C   UNL     1       4.514   5.146  19.268  0.00  0.00    +0.000 C 
BRANCH  21  25
ATOM     25  N   UNL     1       4.460   6.395  17.173  0.00  0.00    +0.000 NA
ATOM     26  H   UNL     1       5.441   6.323  17.372  0.00  0.00    +0.000 HD
ATOM     27  H   UNL     1       4.274   7.359  16.888  0.00  0.00    +0.000 HD
ENDBRANCH  21  25
BRANCH  23  28
ATOM     28  C   UNL     1       2.513   3.775  20.285  0.00  0.00    +0.000 C 
ATOM     29  C   UNL     1       1.037   3.657  20.005  0.00  0.00    +0.000 C 
ATOM     30  C   UNL     1       1.771   2.513  20.633  0.00  0.00    +0.000 C 
ENDBRANCH  23  28
BRANCH  23  31
ATOM     31  O   UNL     1       4.295   2.657  18.966  0.00  0.00    +0.000 OA
ATOM     32  H   UNL     1       4.751   2.495  19.811  0.00  0.00    +0.000 HD
ENDBRANCH  23  31
ENDBRANCH  15  21
ENDBRANCH   1  18
BRANCH   5  33
ATOM     33  C   UNL     1       0.851  12.541  19.434  0.00  0.00    +0.000 A 
ATOM     34  C   UNL     1       1.171  13.393  18.357  0.00  0.00    +0.000 A 
ATOM     35  C   UNL     1       2.279  14.185  18.628  0.00  0.00    +0.000 A 
ATOM     36  S   UNL     1       2.918  13.906  20.188  0.00  0.00    +0.000 S 
ATOM     37  C   UNL     1       1.777  12.665  20.455  0.00  0.00    +0.000 A 
ENDBRANCH   5  33
TORSDOF 6
ENDMDL
MODEL 4
REMARK VINA RESULT:      -8.2      2.200      3.080
REMARK  Name = 
REMARK  6 active torsions:
REMARK  status: ('A' for Active; 'I' for Inactive)
REMARK    1  A    between atoms: N_1  and  C_2
REMARK    2  A    between atoms: C_2  and  C_3
REMARK    3  A    between atoms: C_6  and  C_7
REMARK    4  A    between atoms: C_11  and  C_12
REMARK    5  A    between atoms: C_29  and  O_30
REMARK    6  A    between atoms: C_29  and  C_31
REMARK                            x       y       z     vdW  Elec       q    Type
REMARK                         _______ _______ _______ _____ _____    ______ ____
ROOT
ATOM      1  C   UNL     1       1.386   9.343  18.449  0.00  0.00    +0.000 A 
ATOM      2  N   UNL     1       0.138   9.661  17.813  0.00  0.00    +0.000 NA
ATOM      3  C   UNL     1      -0.117  10.930  18.234  0.00  0.00    +0.000 A 
ATOM      4  N   UNL     1       1.106  11.324  18.743  0.00  0.00    +0.000 N 
ATOM      5  C   UNL     1       1.463  10.222  19.526  0.00  0.00    +0.000 A 
ATOM      6  C   UNL     1       1.235  12.718  19.082  0.00  0.00    +0.000 C 
ATOM      7  O   UNL     1       0.412  12.953  20.213  0.00  0.00    +0.000 OA
ATOM      8  C   UNL     1      -0.891  12.539  19.959  0.00  0.00    +0.000 A 
ATOM      9  C   UNL     1      -1.793  12.967  20.930  0.00  0.00    +0.000 A 
ATOM     10  C   UNL     1      -3.140  12.752  20.726  0.00  0.00    +0.000 A 
ATOM     11  C   UNL     1      -3.555  12.140  19.536  0.00  0.00    +0.000 A 
ATOM     12  C   UNL     1      -2.624  11.585  18.621  0.00  0.00    +0.000 A 
ATOM     13  F   UNL     1      -3.101  10.987  17.522  0.00  0.00    +0.000 F 
ATOM     14  C   UNL     1      -1.264  11.706  18.848  0.00  0.00    +0.000 A 
ENDROOT
BRANCH   1  18
ATOM     15  C   UNL     1       3.719   5.609  18.627  0.00  0.00    +0.000 A 
ATOM     16  C   UNL     1       3.811   6.511  17.537  0.00  0.00    +0.000 A 
ATOM     17  C   UNL     1       3.124   7.765  17.469  0.00  0.00    +0.000 A 
ATOM     18  C   UNL     1       2.290   8.178  18.491  0.00  0.00    +0.000 A 
ATOM     19  C   UNL     1       2.172   7.291  19.590  0.00  0.00    +0.000 A 
ATOM     20  C   UNL     1       2.850   6.052  19.648  0.00  0.00    +0.000 A 
BRANCH  15  21
ATOM     21  C   UNL     1       4.542   4.231  18.777  0.00  0.00    +0.000 C 
ATOM     22  C   UNL     1       4.698   3.213  17.626  0.00  0.00    +0.000 C 
ATOM     23  C   UNL     1       3.700   2.257  18.364  0.00  0.00    +0.000 C 
ATOM     24  C   UNL     1       4.040   3.063  19.666  0.00  0.00    +0.000 C 
BRANCH  21  25
ATOM     25  N   UNL     1       5.912   4.571  19.244  0.00  0.00    +0.000 NA
ATOM     26  H   UNL     1       6.223   4.010  20.015  0.00  0.00    +0.000 HD
ATOM     27  H   UNL     1       6.043   5.551  19.502  0.00  0.00    +0.000 HD
ENDBRANCH  21  25
BRANCH  23  28
ATOM     28  C   UNL     1       2.244   2.319  17.894  0.00  0.00    +0.000 C 
ATOM     29  C   UNL     1       1.075   2.148  18.829  0.00  0.00    +0.000 C 
ATOM     30  C   UNL     1       1.299   3.462  18.147  0.00  0.00    +0.000 C 
ENDBRANCH  23  28
BRANCH  23  31
ATOM     31  O   UNL     1       4.199   0.882  18.419  0.00  0.00    +0.000 OA
ATOM     32  H   UNL     1       4.768   0.795  17.634  0.00  0.00    +0.000 HD
ENDBRANCH  23  31
ENDBRANCH  15  21
ENDBRANCH   1  18
BRANCH   5  33
ATOM     33  C   UNL     1       0.760   9.744  20.811  0.00  0.00    +0.000 A 
ATOM     34  C   UNL     1      -0.373   8.908  20.865  0.00  0.00    +0.000 A 
ATOM     35  C   UNL     1      -0.853   8.761  22.161  0.00  0.00    +0.000 A 
ATOM     36  S   UNL     1       0.078   9.623  23.306  0.00  0.00    +0.000 S 
ATOM     37  C   UNL     1       1.053  10.264  22.060  0.00  0.00    +0.000 A 
ENDBRANCH   5  33
TORSDOF 6
ENDMDL
MODEL 5
REMARK VINA RESULT:      -8.0      2.209      3.028
REMARK  Name = 
REMARK  6 active torsions:
REMARK  status: ('A' for Active; 'I' for Inactive)
REMARK    1  A    between atoms: N_1  and  C_2
REMARK    2  A    between atoms: C_2  and  C_3
REMARK    3  A    between atoms: C_6  and  C_7
REMARK    4  A    between atoms: C_11  and  C_12
REMARK    5  A    between atoms: C_29  and  O_30
REMARK    6  A    between atoms: C_29  and  C_31
REMARK                            x       y       z     vdW  Elec       q    Type
REMARK                         _______ _______ _______ _____ _____    ______ ____
ROOT
ATOM      1  C   UNL     1       1.186   9.610  18.329  0.00  0.00    +0.000 A 
ATOM      2  N   UNL     1      -0.098   9.931  17.769  0.00  0.00    +0.000 NA
ATOM      3  C   UNL     1      -0.355  11.174  18.260  0.00  0.00    +0.000 A 
ATOM      4  N   UNL     1       0.884  11.569  18.727  0.00  0.00    +0.000 N 
ATOM      5  C   UNL     1       1.300  10.441  19.440  0.00  0.00    +0.000 A 
ATOM      6  C   UNL     1       1.004  12.948  19.124  0.00  0.00    +0.000 C 
ATOM      7  O   UNL     1       0.233  13.116  20.303  0.00  0.00    +0.000 OA
ATOM      8  C   UNL     1      -1.073  12.686  20.093  0.00  0.00    +0.000 A 
ATOM      9  C   UNL     1      -1.934  13.052  21.125  0.00  0.00    +0.000 A 
ATOM     10  C   UNL     1      -3.284  12.819  20.976  0.00  0.00    +0.000 A 
ATOM     11  C   UNL     1      -3.746  12.253  19.780  0.00  0.00    +0.000 A 
ATOM     12  C   UNL     1      -2.851  11.760  18.796  0.00  0.00    +0.000 A 
ATOM     13  F   UNL     1      -3.370  11.202  17.695  0.00  0.00    +0.000 F 
ATOM     14  C   UNL     1      -1.484  11.898  18.964  0.00  0.00    +0.000 A 
ENDROOT
BRANCH   1  18
ATOM     15  C   UNL     1       3.602   5.936  18.028  0.00  0.00    +0.000 A 
ATOM     16  C   UNL     1       3.941   7.129  17.338  0.00  0.00    +0.000 A 
ATOM     17  C   UNL     1       3.224   8.362  17.460  0.00  0.00    +0.000 A 
ATOM     18  C   UNL     1       2.112   8.463  18.274  0.00  0.00    +0.000 A 
ATOM     19  C   UNL     1       1.743   7.284  18.968  0.00  0.00    +0.000 A 
ATOM     20  C   UNL     1       2.453   6.068  18.840  0.00  0.00    +0.000 A 
BRANCH  15  21
ATOM     21  C   UNL     1       4.434   4.557  17.982  0.00  0.00    +0.000 C 
ATOM     22  C   UNL     1       3.762   3.166  17.995  0.00  0.00    +0.000 C 
ATOM     23  C   UNL     1       4.244   2.969  19.472  0.00  0.00    +0.000 C 
ATOM     24  C   UNL     1       5.307   4.081  19.173  0.00  0.00    +0.000 C 
BRANCH  21  25
ATOM     25  N   UNL     1       5.318   4.601  16.789  0.00  0.00    +0.000 NA
ATOM     26  H   UNL     1       5.270   3.773  16.223  0.00  0.00    +0.000 HD
ATOM     27  H   UNL     1       6.303   4.776  16.995  0.00  0.00    +0.000 HD
ENDBRANCH  21  25
BRANCH  23  28
ATOM     28  C   UNL     1       3.215   3.295  20.560  0.00  0.00    +0.000 C 
ATOM     29  C   UNL     1       1.775   2.859  20.479  0.00  0.00    +0.000 C 
ATOM     30  C   UNL     1       2.662   2.310  21.553  0.00  0.00    +0.000 C 
ENDBRANCH  23  28
BRANCH  23  31
ATOM     31  O   UNL     1       4.858   1.656  19.677  0.00  0.00    +0.000 OA
ATOM     32  H   UNL     1       4.280   1.037  19.197  0.00  0.00    +0.000 HD
ENDBRANCH  23  31
ENDBRANCH  15  21
ENDBRANCH   1  18
BRANCH   5  33
ATOM     33  C   UNL     1       0.668   9.890  20.734  0.00  0.00    +0.000 A 
ATOM     34  C   UNL     1      -0.440   9.022  20.804  0.00  0.00    +0.000 A 
ATOM     35  C   UNL     1      -0.855   8.808  22.112  0.00  0.00    +0.000 A 
ATOM     36  S   UNL     1       0.105   9.646  23.250  0.00  0.00    +0.000 S 
ATOM     37  C   UNL     1       1.005  10.365  21.990  0.00  0.00    +0.000 A 
ENDBRANCH   5  33
TORSDOF 6
ENDMDL
MODEL 6
REMARK VINA RESULT:      -8.0      0.951      1.331
REMARK  Name = 
REMARK  6 active torsions:
REMARK  status: ('A' for Active; 'I' for Inactive)
REMARK    1  A    between atoms: N_1  and  C_2
REMARK    2  A    between atoms: C_2  and  C_3
REMARK    3  A    between atoms: C_6  and  C_7
REMARK    4  A    between atoms: C_11  and  C_12
REMARK    5  A    between atoms: C_29  and  O_30
REMARK    6  A    between atoms: C_29  and  C_31
REMARK                            x       y       z     vdW  Elec       q    Type
REMARK                         _______ _______ _______ _____ _____    ______ ____
ROOT
ATOM      1  C   UNL     1      -0.135  10.434  20.556  0.00  0.00    +0.000 A 
ATOM      2  N   UNL     1      -0.505  11.003  21.822  0.00  0.00    +0.000 NA
ATOM      3  C   UNL     1      -1.250  12.088  21.477  0.00  0.00    +0.000 A 
ATOM      4  N   UNL     1      -1.521  11.847  20.142  0.00  0.00    +0.000 N 
ATOM      5  C   UNL     1      -0.263  11.484  19.651  0.00  0.00    +0.000 A 
ATOM      6  C   UNL     1      -2.485  12.718  19.522  0.00  0.00    +0.000 C 
ATOM      7  O   UNL     1      -1.890  14.002  19.422  0.00  0.00    +0.000 OA
ATOM      8  C   UNL     1      -1.445  14.428  20.669  0.00  0.00    +0.000 A 
ATOM      9  C   UNL     1      -1.080  15.772  20.683  0.00  0.00    +0.000 A 
ATOM     10  C   UNL     1      -0.761  16.361  21.887  0.00  0.00    +0.000 A 
ATOM     11  C   UNL     1      -0.846  15.596  23.058  0.00  0.00    +0.000 A 
ATOM     12  C   UNL     1      -1.084  14.199  23.019  0.00  0.00    +0.000 A 
ATOM     13  F   UNL     1      -1.118  13.532  24.179  0.00  0.00    +0.000 F 
ATOM     14  C   UNL     1      -1.317  13.564  21.811  0.00  0.00    +0.000 A 
ENDROOT
BRANCH   1  18
ATOM     15  C   UNL     1       2.545   7.269  19.065  0.00  0.00    +0.000 A 
ATOM     16  C   UNL     1       2.079   7.303  20.405  0.00  0.00    +0.000 A 
ATOM     17  C   UNL     1       1.156   8.272  20.912  0.00  0.00    +0.000 A 
ATOM     18  C   UNL     1       0.658   9.276  20.103  0.00  0.00    +0.000 A 
ATOM     19  C   UNL     1       1.114   9.272  18.761  0.00  0.00    +0.000 A 
ATOM     20  C   UNL     1       2.029   8.315  18.268  0.00  0.00    +0.000 A 
BRANCH  15  21
ATOM     21  C   UNL     1       3.514   6.145  18.437  0.00  0.00    +0.000 C 
ATOM     22  C   UNL     1       2.994   4.817  17.846  0.00  0.00    +0.000 C 
ATOM     23  C   UNL     1       3.556   4.063  19.099  0.00  0.00    +0.000 C 
ATOM     24  C   UNL     1       4.483   5.309  19.314  0.00  0.00    +0.000 C 
BRANCH  21  25
ATOM     25  N   UNL     1       4.337   6.795  17.383  0.00  0.00    +0.000 NA
ATOM     26  H   UNL     1       4.544   6.193  16.608  0.00  0.00    +0.000 HD
ATOM     27  H   UNL     1       5.221   7.187  17.715  0.00  0.00    +0.000 HD
ENDBRANCH  21  25
BRANCH  23  28
ATOM     28  C   UNL     1       2.546   3.774  20.214  0.00  0.00    +0.000 C 
ATOM     29  C   UNL     1       1.060   3.713  19.974  0.00  0.00    +0.000 C 
ATOM     30  C   UNL     1       1.800   2.480  20.393  0.00  0.00    +0.000 C 
ENDBRANCH  23  28
BRANCH  23  31
ATOM     31  O   UNL     1       4.313   2.868  18.724  0.00  0.00    +0.000 OA
ATOM     32  H   UNL     1       3.707   2.360  18.156  0.00  0.00    +0.000 HD
ENDBRANCH  23  31
ENDBRANCH  15  21
ENDBRANCH   1  18
BRANCH   5  33
ATOM     33  C   UNL     1       0.972  12.398  19.531  0.00  0.00    +0.000 A 
ATOM     34  C   UNL     1       1.842  12.748  20.584  0.00  0.00    +0.000 A 
ATOM     35  C   UNL     1       2.785  13.689  20.191  0.00  0.00    +0.000 A 
ATOM     36  S   UNL     1       2.623  14.134  18.550  0.00  0.00    +0.000 S 
ATOM     37  C   UNL     1       1.241  13.146  18.398  0.00  0.00    +0.000 A 
ENDBRANCH   5  33
TORSDOF 6
ENDMDL
MODEL 7
REMARK VINA RESULT:      -7.9      1.354      2.174
REMARK  Name = 
REMARK  6 active torsions:
REMARK  status: ('A' for Active; 'I' for Inactive)
REMARK    1  A    between atoms: N_1  and  C_2
REMARK    2  A    between atoms: C_2  and  C_3
REMARK    3  A    between atoms: C_6  and  C_7
REMARK    4  A    between atoms: C_11  and  C_12
REMARK    5  A    between atoms: C_29  and  O_30
REMARK    6  A    between atoms: C_29  and  C_31
REMARK                            x       y       z     vdW  Elec       q    Type
REMARK                         _______ _______ _______ _____ _____    ______ ____
ROOT
ATOM      1  C   UNL     1       0.176  10.277  20.575  0.00  0.00    +0.000 A 
ATOM      2  N   UNL     1      -0.291  10.915  21.774  0.00  0.00    +0.000 NA
ATOM      3  C   UNL     1      -1.036  11.954  21.310  0.00  0.00    +0.000 A 
ATOM      4  N   UNL     1      -1.212  11.621  19.980  0.00  0.00    +0.000 N 
ATOM      5  C   UNL     1       0.083  11.263  19.595  0.00  0.00    +0.000 A 
ATOM      6  C   UNL     1      -2.154  12.423  19.242  0.00  0.00    +0.000 C 
ATOM      7  O   UNL     1      -1.584  13.714  19.097  0.00  0.00    +0.000 OA
ATOM      8  C   UNL     1      -1.233  14.231  20.339  0.00  0.00    +0.000 A 
ATOM      9  C   UNL     1      -0.901  15.583  20.287  0.00  0.00    +0.000 A 
ATOM     10  C   UNL     1      -0.677  16.257  21.468  0.00  0.00    +0.000 A 
ATOM     11  C   UNL     1      -0.822  15.567  22.679  0.00  0.00    +0.000 A 
ATOM     12  C   UNL     1      -1.023  14.164  22.717  0.00  0.00    +0.000 A 
ATOM     13  F   UNL     1      -1.118  13.573  23.914  0.00  0.00    +0.000 F 
ATOM     14  C   UNL     1      -1.160  13.446  21.541  0.00  0.00    +0.000 A 
ENDROOT
BRANCH   1  18
ATOM     15  C   UNL     1       2.348   6.548  19.678  0.00  0.00    +0.000 A 
ATOM     16  C   UNL     1       2.286   7.631  18.764  0.00  0.00    +0.000 A 
ATOM     17  C   UNL     1       1.651   8.884  19.041  0.00  0.00    +0.000 A 
ATOM     18  C   UNL     1       1.025   9.115  20.251  0.00  0.00    +0.000 A 
ATOM     19  C   UNL     1       1.062   8.046  21.181  0.00  0.00    +0.000 A 
ATOM     20  C   UNL     1       1.688   6.810  20.899  0.00  0.00    +0.000 A 
BRANCH  15  21
ATOM     21  C   UNL     1       3.127   5.159  19.435  0.00  0.00    +0.000 C 
ATOM     22  C   UNL     1       4.661   5.067  19.281  0.00  0.00    +0.000 C 
ATOM     23  C   UNL     1       4.471   4.793  17.750  0.00  0.00    +0.000 C 
ATOM     24  C   UNL     1       3.005   4.367  18.105  0.00  0.00    +0.000 C 
BRANCH  21  25
ATOM     25  N   UNL     1       2.744   4.228  20.528  0.00  0.00    +0.000 NA
ATOM     26  H   UNL     1       1.821   4.389  20.888  0.00  0.00    +0.000 HD
ATOM     27  H   UNL     1       3.386   4.217  21.322  0.00  0.00    +0.000 HD
ENDBRANCH  21  25
BRANCH  23  28
ATOM     28  C   UNL     1       4.616   6.010  16.831  0.00  0.00    +0.000 C 
ATOM     29  C   UNL     1       5.887   6.813  16.733  0.00  0.00    +0.000 C 
ATOM     30  C   UNL     1       5.400   6.038  15.548  0.00  0.00    +0.000 C 
ENDBRANCH  23  28
BRANCH  23  31
ATOM     31  O   UNL     1       5.281   3.663  17.293  0.00  0.00    +0.000 OA
ATOM     32  H   UNL     1       4.978   3.495  16.383  0.00  0.00    +0.000 HD
ENDBRANCH  23  31
ENDBRANCH  15  21
ENDBRANCH   1  18
BRANCH   5  33
ATOM     33  C   UNL     1       1.302  12.201  19.496  0.00  0.00    +0.000 A 
ATOM     34  C   UNL     1       2.001  12.760  20.585  0.00  0.00    +0.000 A 
ATOM     35  C   UNL     1       2.970  13.667  20.174  0.00  0.00    +0.000 A 
ATOM     36  S   UNL     1       3.038  13.827  18.474  0.00  0.00    +0.000 S 
ATOM     37  C   UNL     1       1.715  12.764  18.300  0.00  0.00    +0.000 A 
ENDBRANCH   5  33
TORSDOF 6
ENDMDL
MODEL 8
REMARK VINA RESULT:      -7.9      2.280      3.410
REMARK  Name = 
REMARK  6 active torsions:
REMARK  status: ('A' for Active; 'I' for Inactive)
REMARK    1  A    between atoms: N_1  and  C_2
REMARK    2  A    between atoms: C_2  and  C_3
REMARK    3  A    between atoms: C_6  and  C_7
REMARK    4  A    between atoms: C_11  and  C_12
REMARK    5  A    between atoms: C_29  and  O_30
REMARK    6  A    between atoms: C_29  and  C_31
REMARK                            x       y       z     vdW  Elec       q    Type
REMARK                         _______ _______ _______ _____ _____    ______ ____
ROOT
ATOM      1  C   UNL     1       0.841  10.072  20.813  0.00  0.00    +0.000 A 
ATOM      2  N   UNL     1       1.428  11.351  21.102  0.00  0.00    +0.000 NA
ATOM      3  C   UNL     1       0.409  12.046  21.676  0.00  0.00    +0.000 A 
ATOM      4  N   UNL     1      -0.499  11.046  21.973  0.00  0.00    +0.000 N 
ATOM      5  C   UNL     1      -0.530  10.317  20.781  0.00  0.00    +0.000 A 
ATOM      6  C   UNL     1      -1.618  11.427  22.795  0.00  0.00    +0.000 C 
ATOM      7  O   UNL     1      -2.441  12.281  22.017  0.00  0.00    +0.000 OA
ATOM      8  C   UNL     1      -1.700  13.347  21.520  0.00  0.00    +0.000 A 
ATOM      9  C   UNL     1      -2.495  14.344  20.960  0.00  0.00    +0.000 A 
ATOM     10  C   UNL     1      -1.901  15.523  20.563  0.00  0.00    +0.000 A 
ATOM     11  C   UNL     1      -0.524  15.689  20.767  0.00  0.00    +0.000 A 
ATOM     12  C   UNL     1       0.297  14.620  21.208  0.00  0.00    +0.000 A 
ATOM     13  F   UNL     1       1.609  14.849  21.346  0.00  0.00    +0.000 F 
ATOM     14  C   UNL     1      -0.263  13.395  21.526  0.00  0.00    +0.000 A 
ENDROOT
BRANCH   1  18
ATOM     15  C   UNL     1       2.582   6.508  18.893  0.00  0.00    +0.000 A 
ATOM     16  C   UNL     1       2.059   6.483  20.211  0.00  0.00    +0.000 A 
ATOM     17  C   UNL     1       1.424   7.597  20.847  0.00  0.00    +0.000 A 
ATOM     18  C   UNL     1       1.293   8.810  20.198  0.00  0.00    +0.000 A 
ATOM     19  C   UNL     1       1.815   8.867  18.882  0.00  0.00    +0.000 A 
ATOM     20  C   UNL     1       2.445   7.764  18.261  0.00  0.00    +0.000 A 
BRANCH  15  21
ATOM     21  C   UNL     1       3.224   5.252  18.114  0.00  0.00    +0.000 C 
ATOM     22  C   UNL     1       4.256   4.300  18.756  0.00  0.00    +0.000 C 
ATOM     23  C   UNL     1       5.373   4.942  17.864  0.00  0.00    +0.000 C 
ATOM     24  C   UNL     1       4.212   5.433  16.931  0.00  0.00    +0.000 C 
BRANCH  21  25
ATOM     25  N   UNL     1       2.106   4.408  17.617  0.00  0.00    +0.000 NA
ATOM     26  H   UNL     1       1.504   4.070  18.345  0.00  0.00    +0.000 HD
ATOM     27  H   UNL     1       2.396   3.604  17.057  0.00  0.00    +0.000 HD
ENDBRANCH  21  25
BRANCH  23  28
ATOM     28  C   UNL     1       6.212   6.037  18.529  0.00  0.00    +0.000 C 
ATOM     29  C   UNL     1       7.533   5.760  19.200  0.00  0.00    +0.000 C 
ATOM     30  C   UNL     1       7.484   6.614  17.971  0.00  0.00    +0.000 C 
ENDBRANCH  23  28
BRANCH  23  31
ATOM     31  O   UNL     1       6.209   3.928  17.220  0.00  0.00    +0.000 OA
ATOM     32  H   UNL     1       5.589   3.400  16.686  0.00  0.00    +0.000 HD
ENDBRANCH  23  31
ENDBRANCH  15  21
ENDBRANCH   1  18
BRANCH   5  33
ATOM     33  C   UNL     1      -1.074  10.803  19.423  0.00  0.00    +0.000 A 
ATOM     34  C   UNL     1      -0.460  11.755  18.584  0.00  0.00    +0.000 A 
ATOM     35  C   UNL     1      -1.256  12.081  17.493  0.00  0.00    +0.000 A 
ATOM     36  S   UNL     1      -2.734  11.224  17.482  0.00  0.00    +0.000 S 
ATOM     37  C   UNL     1      -2.349  10.499  18.977  0.00  0.00    +0.000 A 
ENDBRANCH   5  33
TORSDOF 6
ENDMDL
MODEL 9
REMARK VINA RESULT:      -7.8      1.436      2.087
REMARK  Name = 
REMARK  6 active torsions:
REMARK  status: ('A' for Active; 'I' for Inactive)
REMARK    1  A    between atoms: N_1  and  C_2
REMARK    2  A    between atoms: C_2  and  C_3
REMARK    3  A    between atoms: C_6  and  C_7
REMARK    4  A    between atoms: C_11  and  C_12
REMARK    5  A    between atoms: C_29  and  O_30
REMARK    6  A    between atoms: C_29  and  C_31
REMARK                            x       y       z     vdW  Elec       q    Type
REMARK                         _______ _______ _______ _____ _____    ______ ____
ROOT
ATOM      1  C   UNL     1      -0.520  10.898  21.126  0.00  0.00    +0.000 A 
ATOM      2  N   UNL     1      -0.715  11.524  22.404  0.00  0.00    +0.000 NA
ATOM      3  C   UNL     1      -1.527  12.578  22.120  0.00  0.00    +0.000 A 
ATOM      4  N   UNL     1      -1.984  12.265  20.853  0.00  0.00    +0.000 N 
ATOM      5  C   UNL     1      -0.804  11.899  20.200  0.00  0.00    +0.000 A 
ATOM      6  C   UNL     1      -3.049  13.088  20.340  0.00  0.00    +0.000 C 
ATOM      7  O   UNL     1      -2.505  14.375  20.093  0.00  0.00    +0.000 OA
ATOM      8  C   UNL     1      -1.893  14.871  21.239  0.00  0.00    +0.000 A 
ATOM      9  C   UNL     1      -1.561  16.219  21.134  0.00  0.00    +0.000 A 
ATOM     10  C   UNL     1      -1.084  16.874  22.249  0.00  0.00    +0.000 A 
ATOM     11  C   UNL     1      -0.980  16.168  23.456  0.00  0.00    +0.000 A 
ATOM     12  C   UNL     1      -1.188  14.767  23.518  0.00  0.00    +0.000 A 
ATOM     13  F   UNL     1      -1.037  14.160  24.702  0.00  0.00    +0.000 F 
ATOM     14  C   UNL     1      -1.579  14.068  22.389  0.00  0.00    +0.000 A 
ENDROOT
BRANCH   1  18
ATOM     15  C   UNL     1       2.013   7.704  19.452  0.00  0.00    +0.000 A 
ATOM     16  C   UNL     1       1.631   7.735  20.818  0.00  0.00    +0.000 A 
ATOM     17  C   UNL     1       0.757   8.714  21.388  0.00  0.00    +0.000 A 
ATOM     18  C   UNL     1       0.225   9.731  20.617  0.00  0.00    +0.000 A 
ATOM     19  C   UNL     1       0.597   9.731  19.250  0.00  0.00    +0.000 A 
ATOM     20  C   UNL     1       1.465   8.763  18.695  0.00  0.00    +0.000 A 
BRANCH  15  21
ATOM     21  C   UNL     1       2.924   6.570  18.758  0.00  0.00    +0.000 C 
ATOM     22  C   UNL     1       2.345   5.261  18.177  0.00  0.00    +0.000 C 
ATOM     23  C   UNL     1       2.957   4.477  19.388  0.00  0.00    +0.000 C 
ATOM     24  C   UNL     1       3.920   5.701  19.571  0.00  0.00    +0.000 C 
BRANCH  21  25
ATOM     25  N   UNL     1       3.704   7.219  17.672  0.00  0.00    +0.000 NA
ATOM     26  H   UNL     1       4.349   7.914  18.001  0.00  0.00    +0.000 HD
ATOM     27  H   UNL     1       3.137   7.647  16.937  0.00  0.00    +0.000 HD
ENDBRANCH  21  25
BRANCH  23  28
ATOM     28  C   UNL     1       2.001   4.192  20.550  0.00  0.00    +0.000 C 
ATOM     29  C   UNL     1       1.069   3.009  20.570  0.00  0.00    +0.000 C 
ATOM     30  C   UNL     1       2.179   3.102  21.571  0.00  0.00    +0.000 C 
ENDBRANCH  23  28
BRANCH  23  31
ATOM     31  O   UNL     1       3.667   3.273  18.956  0.00  0.00    +0.000 OA
ATOM     32  H   UNL     1       4.569   3.578  18.752  0.00  0.00    +0.000 HD
ENDBRANCH  23  31
ENDBRANCH  15  21
ENDBRANCH   1  18
BRANCH   5  33
ATOM     33  C   UNL     1       0.379  12.825  19.857  0.00  0.00    +0.000 A 
ATOM     34  C   UNL     1       0.557  13.515  18.640  0.00  0.00    +0.000 A 
ATOM     35  C   UNL     1       1.784  14.165  18.582  0.00  0.00    +0.000 A 
ATOM     36  S   UNL     1       2.707  13.949  20.003  0.00  0.00    +0.000 S 
ATOM     37  C   UNL     1       1.512  12.914  20.646  0.00  0.00    +0.000 A 
ENDBRANCH   5  33
TORSDOF 6
ENDMDL
