MODEL 1
REMARK VINA RESULT:      -7.1      0.000      0.000
REMARK  Name = 
REMARK  3 active torsions:
REMARK  status: ('A' for Active; 'I' for Inactive)
REMARK    1  A    between atoms: C_1  and  C_2
REMARK    2  A    between atoms: C_4  and  C_5
REMARK    3  A    between atoms: N_8  and  C_9
REMARK                            x       y       z     vdW  Elec       q    Type
REMARK                         _______ _______ _______ _____ _____    ______ ____
ROOT
ATOM      1  C   UNL     1       2.149   7.252  19.728  0.00  0.00    +0.000 C 
ATOM      2  C   UNL     1       2.519   5.820  19.948  0.00  0.00    +0.000 A 
ATOM      3  C   UNL     1       1.732   4.962  20.679  0.00  0.00    +0.000 A 
ATOM      4  C   UNL     1       2.190   3.666  20.802  0.00  0.00    +0.000 A 
ATOM      5  C   UNL     1       1.400   2.646  21.566  0.00  0.00    +0.000 C 
ATOM      6  N   UNL     1       3.343   3.240  20.236  0.00  0.00    +0.000 NA
ATOM      7  C   UNL     1       4.032   4.132  19.510  0.00  0.00    +0.000 A 
ATOM      8  N   UNL     1       5.198   3.697  18.882  0.00  0.00    +0.000 N 
ATOM      9  N   UNL     1       3.657   5.411  19.367  0.00  0.00    +0.000 NA
ATOM     10  H   UNL     1       5.402   2.735  19.109  0.00  0.00    +0.000 HD
ENDROOT
BRANCH   8  11
ATOM     11  C   UNL     1       5.799   4.227  17.730  0.00  0.00    +0.000 A 
ATOM     12  C   UNL     1       6.774   5.225  17.851  0.00  0.00    +0.000 A 
ATOM     13  C   UNL     1       7.312   5.842  16.716  0.00  0.00    +0.000 A 
ATOM     14  C   UNL     1       6.892   5.455  15.443  0.00  0.00    +0.000 A 
ATOM     15  C   UNL     1       5.941   4.451  15.312  0.00  0.00    +0.000 A 
ATOM     16 CL   UNL     1       5.417   3.962  13.746  0.00  0.00    +0.000 Cl
ATOM     17  C   UNL     1       5.395   3.845  16.441  0.00  0.00    +0.000 A 
ENDBRANCH   8  11
TORSDOF 1
ENDMDL
MODEL 2
REMARK VINA RESULT:      -6.7      3.079      5.580
REMARK  Name = 
REMARK  3 active torsions:
REMARK  status: ('A' for Active; 'I' for Inactive)
REMARK    1  A    between atoms: C_1  and  C_2
REMARK    2  A    between atoms: C_4  and  C_5
REMARK    3  A    between atoms: N_8  and  C_9
REMARK                            x       y       z     vdW  Elec       q    Type
REMARK                         _______ _______ _______ _____ _____    ______ ____
ROOT
ATOM      1  C   UNL     1       4.942   6.627  15.506  0.00  0.00    +0.000 C 
ATOM      2  C   UNL     1       5.715   6.234  16.724  0.00  0.00    +0.000 A 
ATOM      3  C   UNL     1       6.762   6.984  17.202  0.00  0.00    +0.000 A 
ATOM      4  C   UNL     1       7.388   6.508  18.337  0.00  0.00    +0.000 A 
ATOM      5  C   UNL     1       8.532   7.259  18.950  0.00  0.00    +0.000 C 
ATOM      6  N   UNL     1       7.004   5.373  18.963  0.00  0.00    +0.000 NA
ATOM      7  C   UNL     1       5.951   4.720  18.450  0.00  0.00    +0.000 A 
ATOM      8  N   UNL     1       5.513   3.573  19.111  0.00  0.00    +0.000 N 
ATOM      9  N   UNL     1       5.310   5.113  17.341  0.00  0.00    +0.000 NA
ATOM     10  H   UNL     1       6.106   3.350  19.896  0.00  0.00    +0.000 HD
ENDROOT
BRANCH   8  11
ATOM     11  C   UNL     1       4.223   3.020  19.103  0.00  0.00    +0.000 A 
ATOM     12  C   UNL     1       3.710   2.468  17.922  0.00  0.00    +0.000 A 
ATOM     13  C   UNL     1       2.391   2.006  17.862  0.00  0.00    +0.000 A 
ATOM     14  C   UNL     1       1.572   2.075  18.989  0.00  0.00    +0.000 A 
ATOM     15  C   UNL     1       2.077   2.601  20.171  0.00  0.00    +0.000 A 
ATOM     16 CL   UNL     1       1.078   2.689  21.571  0.00  0.00    +0.000 Cl
ATOM     17  C   UNL     1       3.386   3.073  20.230  0.00  0.00    +0.000 A 
ENDBRANCH   8  11
TORSDOF 1
ENDMDL
MODEL 3
REMARK VINA RESULT:      -6.6      1.044      1.199
REMARK  Name = 
REMARK  3 active torsions:
REMARK  status: ('A' for Active; 'I' for Inactive)
REMARK    1  A    between atoms: C_1  and  C_2
REMARK    2  A    between atoms: C_4  and  C_5
REMARK    3  A    between atoms: N_8  and  C_9
REMARK                            x       y       z     vdW  Elec       q    Type
REMARK                         _______ _______ _______ _____ _____    ______ ____
ROOT
ATOM      1  C   UNL     1       2.583   7.769  18.289  0.00  0.00    +0.000 C 
ATOM      2  C   UNL     1       2.872   6.382  18.767  0.00  0.00    +0.000 A 
ATOM      3  C   UNL     1       2.081   5.744  19.692  0.00  0.00    +0.000 A 
ATOM      4  C   UNL     1       2.461   4.464  20.043  0.00  0.00    +0.000 A 
ATOM      5  C   UNL     1       1.658   3.674  21.033  0.00  0.00    +0.000 C 
ATOM      6  N   UNL     1       3.543   3.850  19.513  0.00  0.00    +0.000 NA
ATOM      7  C   UNL     1       4.240   4.531  18.591  0.00  0.00    +0.000 A 
ATOM      8  N   UNL     1       5.332   3.895  18.001  0.00  0.00    +0.000 N 
ATOM      9  N   UNL     1       3.941   5.783  18.219  0.00  0.00    +0.000 NA
ATOM     10  H   UNL     1       5.487   2.982  18.401  0.00  0.00    +0.000 HD
ENDROOT
BRANCH   8  11
ATOM     11  C   UNL     1       5.888   4.145  16.738  0.00  0.00    +0.000 A 
ATOM     12  C   UNL     1       7.082   4.870  16.636  0.00  0.00    +0.000 A 
ATOM     13  C   UNL     1       7.601   5.222  15.385  0.00  0.00    +0.000 A 
ATOM     14  C   UNL     1       6.940   4.838  14.218  0.00  0.00    +0.000 A 
ATOM     15  C   UNL     1       5.766   4.101  14.308  0.00  0.00    +0.000 A 
ATOM     16 CL   UNL     1       4.942   3.617  12.876  0.00  0.00    +0.000 Cl
ATOM     17  C   UNL     1       5.241   3.760  15.552  0.00  0.00    +0.000 A 
ENDBRANCH   8  11
TORSDOF 1
ENDMDL
MODEL 4
REMARK VINA RESULT:      -6.6      1.586      1.963
REMARK  Name = 
REMARK  3 active torsions:
REMARK  status: ('A' for Active; 'I' for Inactive)
REMARK    1  A    between atoms: C_1  and  C_2
REMARK    2  A    between atoms: C_4  and  C_5
REMARK    3  A    between atoms: N_8  and  C_9
REMARK                            x       y       z     vdW  Elec       q    Type
REMARK                         _______ _______ _______ _____ _____    ______ ____
ROOT
ATOM      1  C   UNL     1       1.914   7.297  20.079  0.00  0.00    +0.000 C 
ATOM      2  C   UNL     1       2.346   5.870  20.197  0.00  0.00    +0.000 A 
ATOM      3  C   UNL     1       1.565   4.914  20.801  0.00  0.00    +0.000 A 
ATOM      4  C   UNL     1       2.084   3.635  20.840  0.00  0.00    +0.000 A 
ATOM      5  C   UNL     1       1.306   2.514  21.462  0.00  0.00    +0.000 C 
ATOM      6  N   UNL     1       3.288   3.317  20.313  0.00  0.00    +0.000 NA
ATOM      7  C   UNL     1       3.971   4.303  19.712  0.00  0.00    +0.000 A 
ATOM      8  N   UNL     1       5.193   3.982  19.123  0.00  0.00    +0.000 N 
ATOM      9  N   UNL     1       3.537   5.570  19.656  0.00  0.00    +0.000 NA
ATOM     10  H   UNL     1       5.434   3.015  19.278  0.00  0.00    +0.000 HD
ENDROOT
BRANCH   8  11
ATOM     11  C   UNL     1       5.831   4.640  18.060  0.00  0.00    +0.000 A 
ATOM     12  C   UNL     1       5.903   4.025  16.804  0.00  0.00    +0.000 A 
ATOM     13  C   UNL     1       6.623   4.615  15.759  0.00  0.00    +0.000 A 
ATOM     14  C   UNL     1       7.267   5.836  15.953  0.00  0.00    +0.000 A 
ATOM     15  C   UNL     1       7.185   6.465  17.189  0.00  0.00    +0.000 A 
ATOM     16 CL   UNL     1       7.972   7.975  17.441  0.00  0.00    +0.000 Cl
ATOM     17  C   UNL     1       6.479   5.874  18.235  0.00  0.00    +0.000 A 
ENDBRANCH   8  11
TORSDOF 1
ENDMDL
MODEL 5
REMARK VINA RESULT:      -6.5      1.329      2.506
REMARK  Name = 
REMARK  3 active torsions:
REMARK  status: ('A' for Active; 'I' for Inactive)
REMARK    1  A    between atoms: C_1  and  C_2
REMARK    2  A    between atoms: C_4  and  C_5
REMARK    3  A    between atoms: N_8  and  C_9
REMARK                            x       y       z     vdW  Elec       q    Type
REMARK                         _______ _______ _______ _____ _____    ______ ____
ROOT
ATOM      1  C   UNL     1       2.071   3.043  20.336  0.00  0.00    +0.000 C 
ATOM      2  C   UNL     1       2.210   4.500  20.031  0.00  0.00    +0.000 A 
ATOM      3  C   UNL     1       1.600   5.471  20.789  0.00  0.00    +0.000 A 
ATOM      4  C   UNL     1       1.813   6.777  20.398  0.00  0.00    +0.000 A 
ATOM      5  C   UNL     1       1.206   7.913  21.166  0.00  0.00    +0.000 C 
ATOM      6  N   UNL     1       2.583   7.107  19.336  0.00  0.00    +0.000 NA
ATOM      7  C   UNL     1       3.169   6.101  18.671  0.00  0.00    +0.000 A 
ATOM      8  N   UNL     1       4.003   6.426  17.602  0.00  0.00    +0.000 N 
ATOM      9  N   UNL     1       2.989   4.810  18.983  0.00  0.00    +0.000 NA
ATOM     10  H   UNL     1       4.015   7.421  17.433  0.00  0.00    +0.000 HD
ENDROOT
BRANCH   8  11
ATOM     11  C   UNL     1       5.072   5.676  17.090  0.00  0.00    +0.000 A 
ATOM     12  C   UNL     1       6.239   5.521  17.849  0.00  0.00    +0.000 A 
ATOM     13  C   UNL     1       7.356   4.866  17.318  0.00  0.00    +0.000 A 
ATOM     14  C   UNL     1       7.314   4.343  16.026  0.00  0.00    +0.000 A 
ATOM     15  C   UNL     1       6.154   4.473  15.273  0.00  0.00    +0.000 A 
ATOM     16 CL   UNL     1       6.087   3.828  13.678  0.00  0.00    +0.000 Cl
ATOM     17  C   UNL     1       5.045   5.135  15.794  0.00  0.00    +0.000 A 
ENDBRANCH   8  11
TORSDOF 1
ENDMDL
MODEL 6
REMARK VINA RESULT:      -6.5      2.705      5.915
REMARK  Name = 
REMARK  3 active torsions:
REMARK  status: ('A' for Active; 'I' for Inactive)
REMARK    1  A    between atoms: C_1  and  C_2
REMARK    2  A    between atoms: C_4  and  C_5
REMARK    3  A    between atoms: N_8  and  C_9
REMARK                            x       y       z     vdW  Elec       q    Type
REMARK                         _______ _______ _______ _____ _____    ______ ____
ROOT
ATOM      1  C   UNL     1       7.825   5.610  18.944  0.00  0.00    +0.000 C 
ATOM      2  C   UNL     1       6.904   5.379  17.789  0.00  0.00    +0.000 A 
ATOM      3  C   UNL     1       7.342   4.869  16.590  0.00  0.00    +0.000 A 
ATOM      4  C   UNL     1       6.386   4.704  15.608  0.00  0.00    +0.000 A 
ATOM      5  C   UNL     1       6.756   4.140  14.269  0.00  0.00    +0.000 C 
ATOM      6  N   UNL     1       5.082   5.013  15.797  0.00  0.00    +0.000 NA
ATOM      7  C   UNL     1       4.733   5.472  17.007  0.00  0.00    +0.000 A 
ATOM      8  N   UNL     1       3.386   5.751  17.233  0.00  0.00    +0.000 N 
ATOM      9  N   UNL     1       5.612   5.677  17.999  0.00  0.00    +0.000 NA
ATOM     10  H   UNL     1       2.835   5.610  16.399  0.00  0.00    +0.000 HD
ENDROOT
BRANCH   8  11
ATOM     11  C   UNL     1       2.705   5.752  18.459  0.00  0.00    +0.000 A 
ATOM     12  C   UNL     1       2.517   6.955  19.150  0.00  0.00    +0.000 A 
ATOM     13  C   UNL     1       1.934   6.967  20.422  0.00  0.00    +0.000 A 
ATOM     14  C   UNL     1       1.516   5.775  21.013  0.00  0.00    +0.000 A 
ATOM     15  C   UNL     1       1.679   4.578  20.328  0.00  0.00    +0.000 A 
ATOM     16 CL   UNL     1       1.165   3.099  21.045  0.00  0.00    +0.000 Cl
ATOM     17  C   UNL     1       2.271   4.562  19.067  0.00  0.00    +0.000 A 
ENDBRANCH   8  11
TORSDOF 1
ENDMDL
MODEL 7
REMARK VINA RESULT:      -6.4      2.734      6.001
REMARK  Name = 
REMARK  3 active torsions:
REMARK  status: ('A' for Active; 'I' for Inactive)
REMARK    1  A    between atoms: C_1  and  C_2
REMARK    2  A    between atoms: C_4  and  C_5
REMARK    3  A    between atoms: N_8  and  C_9
REMARK                            x       y       z     vdW  Elec       q    Type
REMARK                         _______ _______ _______ _____ _____    ______ ____
ROOT
ATOM      1  C   UNL     1       7.486   6.826  17.672  0.00  0.00    +0.000 C 
ATOM      2  C   UNL     1       6.633   5.908  16.856  0.00  0.00    +0.000 A 
ATOM      3  C   UNL     1       7.068   5.357  15.674  0.00  0.00    +0.000 A 
ATOM      4  C   UNL     1       6.181   4.525  15.023  0.00  0.00    +0.000 A 
ATOM      5  C   UNL     1       6.562   3.860  13.734  0.00  0.00    +0.000 C 
ATOM      6  N   UNL     1       4.949   4.246  15.507  0.00  0.00    +0.000 NA
ATOM      7  C   UNL     1       4.616   4.797  16.684  0.00  0.00    +0.000 A 
ATOM      8  N   UNL     1       3.368   4.483  17.219  0.00  0.00    +0.000 N 
ATOM      9  N   UNL     1       5.420   5.631  17.359  0.00  0.00    +0.000 NA
ATOM     10  H   UNL     1       2.837   3.894  16.595  0.00  0.00    +0.000 HD
ENDROOT
BRANCH   8  11
ATOM     11  C   UNL     1       2.987   4.497  18.569  0.00  0.00    +0.000 A 
ATOM     12  C   UNL     1       3.109   3.333  19.338  0.00  0.00    +0.000 A 
ATOM     13  C   UNL     1       2.639   3.292  20.655  0.00  0.00    +0.000 A 
ATOM     14  C   UNL     1       2.056   4.423  21.226  0.00  0.00    +0.000 A 
ATOM     15  C   UNL     1       1.948   5.589  20.479  0.00  0.00    +0.000 A 
ATOM     16 CL   UNL     1       1.232   6.993  21.173  0.00  0.00    +0.000 Cl
ATOM     17  C   UNL     1       2.403   5.628  19.164  0.00  0.00    +0.000 A 
ENDBRANCH   8  11
TORSDOF 1
ENDMDL
MODEL 8
REMARK VINA RESULT:      -6.4      3.219      6.772
REMARK  Name = 
REMARK  3 active torsions:
REMARK  status: ('A' for Active; 'I' for Inactive)
REMARK    1  A    between atoms: C_1  and  C_2
REMARK    2  A    between atoms: C_4  and  C_5
REMARK    3  A    between atoms: N_8  and  C_9
REMARK                            x       y       z     vdW  Elec       q    Type
REMARK                         _______ _______ _______ _____ _____    ______ ____
ROOT
ATOM      1  C   UNL     1       5.223   2.877  12.043  0.00  0.00    +0.000 C 
ATOM      2  C   UNL     1       6.107   3.779  12.845  0.00  0.00    +0.000 A 
ATOM      3  C   UNL     1       7.175   4.442  12.291  0.00  0.00    +0.000 A 
ATOM      4  C   UNL     1       7.907   5.244  13.144  0.00  0.00    +0.000 A 
ATOM      5  C   UNL     1       9.083   6.024  12.637  0.00  0.00    +0.000 C 
ATOM      6  N   UNL     1       7.602   5.389  14.454  0.00  0.00    +0.000 NA
ATOM      7  C   UNL     1       6.523   4.733  14.906  0.00  0.00    +0.000 A 
ATOM      8  N   UNL     1       6.168   4.909  16.242  0.00  0.00    +0.000 N 
ATOM      9  N   UNL     1       5.781   3.922  14.139  0.00  0.00    +0.000 NA
ATOM     10  H   UNL     1       6.831   5.496  16.726  0.00  0.00    +0.000 HD
ENDROOT
BRANCH   8  11
ATOM     11  C   UNL     1       4.895   4.772  16.816  0.00  0.00    +0.000 A 
ATOM     12  C   UNL     1       4.174   5.913  17.189  0.00  0.00    +0.000 A 
ATOM     13  C   UNL     1       2.950   5.799  17.857  0.00  0.00    +0.000 A 
ATOM     14  C   UNL     1       2.422   4.541  18.145  0.00  0.00    +0.000 A 
ATOM     15  C   UNL     1       3.120   3.402  17.760  0.00  0.00    +0.000 A 
ATOM     16 CL   UNL     1       2.478   1.842  18.107  0.00  0.00    +0.000 Cl
ATOM     17  C   UNL     1       4.344   3.513  17.107  0.00  0.00    +0.000 A 
ENDBRANCH   8  11
TORSDOF 1
ENDMDL
MODEL 9
REMARK VINA RESULT:      -6.4      2.838      6.026
REMARK  Name = 
REMARK  3 active torsions:
REMARK  status: ('A' for Active; 'I' for Inactive)
REMARK    1  A    between atoms: C_1  and  C_2
REMARK    2  A    between atoms: C_4  and  C_5
REMARK    3  A    between atoms: N_8  and  C_9
REMARK                            x       y       z     vdW  Elec       q    Type
REMARK                         _______ _______ _______ _____ _____    ______ ____
ROOT
ATOM      1  C   UNL     1       6.014   3.886  15.008  0.00  0.00    +0.000 C 
ATOM      2  C   UNL     1       6.134   4.800  16.186  0.00  0.00    +0.000 A 
ATOM      3  C   UNL     1       6.948   5.908  16.176  0.00  0.00    +0.000 A 
ATOM      4  C   UNL     1       6.964   6.666  17.329  0.00  0.00    +0.000 A 
ATOM      5  C   UNL     1       7.805   7.904  17.418  0.00  0.00    +0.000 C 
ATOM      6  N   UNL     1       6.222   6.358  18.418  0.00  0.00    +0.000 NA
ATOM      7  C   UNL     1       5.429   5.280  18.331  0.00  0.00    +0.000 A 
ATOM      8  N   UNL     1       4.624   4.976  19.428  0.00  0.00    +0.000 N 
ATOM      9  N   UNL     1       5.380   4.488  17.251  0.00  0.00    +0.000 NA
ATOM     10  H   UNL     1       4.789   5.611  20.194  0.00  0.00    +0.000 HD
ENDROOT
BRANCH   8  11
ATOM     11  C   UNL     1       3.412   4.269  19.430  0.00  0.00    +0.000 A 
ATOM     12  C   UNL     1       2.626   4.233  18.271  0.00  0.00    +0.000 A 
ATOM     13  C   UNL     1       1.366   3.624  18.280  0.00  0.00    +0.000 A 
ATOM     14  C   UNL     1       0.884   3.027  19.444  0.00  0.00    +0.000 A 
ATOM     15  C   UNL     1       1.664   3.039  20.593  0.00  0.00    +0.000 A 
ATOM     16 CL   UNL     1       1.082   2.303  22.037  0.00  0.00    +0.000 Cl
ATOM     17  C   UNL     1       2.913   3.656  20.591  0.00  0.00    +0.000 A 
ENDBRANCH   8  11
TORSDOF 1
ENDMDL
