MODEL 1
REMARK VINA RESULT:      -5.3      0.000      0.000
REMARK  Name = 
REMARK  1 active torsions:
REMARK  status: ('A' for Active; 'I' for Inactive)
REMARK    1  A    between atoms: C_1  and  C_2
REMARK                            x       y       z     vdW  Elec       q    Type
REMARK                         _______ _______ _______ _____ _____    ______ ____
ROOT
ATOM      1  C   UNL     1       0.703   2.458  18.870  0.00  0.00    +0.000 C 
ATOM      2  C   UNL     1       1.797   3.326  18.305  0.00  0.00    +0.000 C 
ATOM      3  O   UNL     1       1.595   4.016  17.311  0.00  0.00    +0.000 OA
ATOM      4  N   UNL     1       2.963   3.227  19.024  0.00  0.00    +0.000 N 
ATOM      5  C   UNL     1       4.123   3.927  18.790  0.00  0.00    +0.000 A 
ATOM      6  N   UNL     1       5.250   3.651  19.408  0.00  0.00    +0.000 NA
ATOM      7  N   UNL     1       6.282   4.479  19.001  0.00  0.00    +0.000 NA
ATOM      8  C   UNL     1       5.866   5.359  18.121  0.00  0.00    +0.000 A 
ATOM      9 BR   UNL     1       7.007   6.638  17.358  0.00  0.00    +0.000 Br
ATOM     10  S   UNL     1       4.215   5.255  17.722  0.00  0.00    +0.000 S 
ATOM     11  H   UNL     1       3.055   2.518  19.739  0.00  0.00    +0.000 HD
ENDROOT
TORSDOF 0
ENDMDL
MODEL 2
REMARK VINA RESULT:      -5.2      2.229      2.646
REMARK  Name = 
REMARK  1 active torsions:
REMARK  status: ('A' for Active; 'I' for Inactive)
REMARK    1  A    between atoms: C_1  and  C_2
REMARK                            x       y       z     vdW  Elec       q    Type
REMARK                         _______ _______ _______ _____ _____    ______ ____
ROOT
ATOM      1  C   UNL     1       3.433   1.835  18.128  0.00  0.00    +0.000 C 
ATOM      2  C   UNL     1       4.084   3.191  18.224  0.00  0.00    +0.000 C 
ATOM      3  O   UNL     1       3.728   3.994  19.080  0.00  0.00    +0.000 OA
ATOM      4  N   UNL     1       5.061   3.368  17.275  0.00  0.00    +0.000 N 
ATOM      5  C   UNL     1       5.866   4.474  17.135  0.00  0.00    +0.000 A 
ATOM      6  N   UNL     1       6.655   4.644  16.097  0.00  0.00    +0.000 NA
ATOM      7  N   UNL     1       7.357   5.835  16.169  0.00  0.00    +0.000 NA
ATOM      8  C   UNL     1       7.084   6.482  17.278  0.00  0.00    +0.000 A 
ATOM      9 BR   UNL     1       7.864   8.136  17.698  0.00  0.00    +0.000 Br
ATOM     10  S   UNL     1       5.970   5.710  18.307  0.00  0.00    +0.000 S 
ATOM     11  H   UNL     1       5.170   2.690  16.532  0.00  0.00    +0.000 HD
ENDROOT
TORSDOF 0
ENDMDL
MODEL 3
REMARK VINA RESULT:      -5.1      1.317      1.317
REMARK  Name = 
REMARK  1 active torsions:
REMARK  status: ('A' for Active; 'I' for Inactive)
REMARK    1  A    between atoms: C_1  and  C_2
REMARK                            x       y       z     vdW  Elec       q    Type
REMARK                         _______ _______ _______ _____ _____    ______ ____
ROOT
ATOM      1  C   UNL     1       1.038   3.478  20.433  0.00  0.00    +0.000 C 
ATOM      2  C   UNL     1       1.991   3.598  19.272  0.00  0.00    +0.000 C 
ATOM      3  O   UNL     1       1.594   3.451  18.122  0.00  0.00    +0.000 OA
ATOM      4  N   UNL     1       3.273   3.877  19.679  0.00  0.00    +0.000 N 
ATOM      5  C   UNL     1       4.356   4.091  18.859  0.00  0.00    +0.000 A 
ATOM      6  N   UNL     1       5.584   4.177  19.322  0.00  0.00    +0.000 NA
ATOM      7  N   UNL     1       6.506   4.382  18.310  0.00  0.00    +0.000 NA
ATOM      8  C   UNL     1       5.917   4.475  17.140  0.00  0.00    +0.000 A 
ATOM      9 BR   UNL     1       6.872   4.755  15.550  0.00  0.00    +0.000 Br
ATOM     10  S   UNL     1       4.222   4.323  17.174  0.00  0.00    +0.000 S 
ATOM     11  H   UNL     1       3.510   3.835  20.661  0.00  0.00    +0.000 HD
ENDROOT
TORSDOF 0
ENDMDL
MODEL 4
REMARK VINA RESULT:      -5.0      4.923      5.851
REMARK  Name = 
REMARK  1 active torsions:
REMARK  status: ('A' for Active; 'I' for Inactive)
REMARK    1  A    between atoms: C_1  and  C_2
REMARK                            x       y       z     vdW  Elec       q    Type
REMARK                         _______ _______ _______ _____ _____    ______ ____
ROOT
ATOM      1  C   UNL     1       7.469   6.166  18.521  0.00  0.00    +0.000 C 
ATOM      2  C   UNL     1       6.982   5.297  17.391  0.00  0.00    +0.000 C 
ATOM      3  O   UNL     1       6.227   4.356  17.608  0.00  0.00    +0.000 OA
ATOM      4  N   UNL     1       7.482   5.696  16.175  0.00  0.00    +0.000 N 
ATOM      5  C   UNL     1       7.188   5.138  14.953  0.00  0.00    +0.000 A 
ATOM      6  N   UNL     1       7.839   5.459  13.857  0.00  0.00    +0.000 NA
ATOM      7  N   UNL     1       7.376   4.760  12.756  0.00  0.00    +0.000 NA
ATOM      8  C   UNL     1       6.375   3.974  13.077  0.00  0.00    +0.000 A 
ATOM      9 BR   UNL     1       5.508   2.882  11.822  0.00  0.00    +0.000 Br
ATOM     10  S   UNL     1       5.922   4.019  14.717  0.00  0.00    +0.000 S 
ATOM     11  H   UNL     1       8.209   6.398  16.136  0.00  0.00    +0.000 HD
ENDROOT
TORSDOF 0
ENDMDL
MODEL 5
REMARK VINA RESULT:      -5.0      3.402      4.763
REMARK  Name = 
REMARK  1 active torsions:
REMARK  status: ('A' for Active; 'I' for Inactive)
REMARK    1  A    between atoms: C_1  and  C_2
REMARK                            x       y       z     vdW  Elec       q    Type
REMARK                         _______ _______ _______ _____ _____    ______ ____
ROOT
ATOM      1  C   UNL     1       6.584   4.761  15.542  0.00  0.00    +0.000 C 
ATOM      2  C   UNL     1       5.789   4.394  16.768  0.00  0.00    +0.000 C 
ATOM      3  O   UNL     1       6.307   4.423  17.879  0.00  0.00    +0.000 OA
ATOM      4  N   UNL     1       4.494   4.050  16.464  0.00  0.00    +0.000 N 
ATOM      5  C   UNL     1       3.511   3.714  17.365  0.00  0.00    +0.000 A 
ATOM      6  N   UNL     1       2.348   3.227  16.990  0.00  0.00    +0.000 NA
ATOM      7  N   UNL     1       1.528   2.953  18.071  0.00  0.00    +0.000 NA
ATOM      8  C   UNL     1       2.105   3.283  19.203  0.00  0.00    +0.000 A 
ATOM      9 BR   UNL     1       1.272   3.047  20.866  0.00  0.00    +0.000 Br
ATOM     10  S   UNL     1       3.667   3.942  19.049  0.00  0.00    +0.000 S 
ATOM     11  H   UNL     1       4.219   3.926  15.499  0.00  0.00    +0.000 HD
ENDROOT
TORSDOF 0
ENDMDL
MODEL 6
REMARK VINA RESULT:      -5.0      3.033      4.754
REMARK  Name = 
REMARK  1 active torsions:
REMARK  status: ('A' for Active; 'I' for Inactive)
REMARK    1  A    between atoms: C_1  and  C_2
REMARK                            x       y       z     vdW  Elec       q    Type
REMARK                         _______ _______ _______ _____ _____    ______ ____
ROOT
ATOM      1  C   UNL     1       7.818   7.927  17.482  0.00  0.00    +0.000 C 
ATOM      2  C   UNL     1       6.664   6.965  17.369  0.00  0.00    +0.000 C 
ATOM      3  O   UNL     1       5.826   7.098  16.484  0.00  0.00    +0.000 OA
ATOM      4  N   UNL     1       6.699   5.994  18.341  0.00  0.00    +0.000 N 
ATOM      5  C   UNL     1       5.816   4.949  18.475  0.00  0.00    +0.000 A 
ATOM      6  N   UNL     1       5.810   4.163  19.530  0.00  0.00    +0.000 NA
ATOM      7  N   UNL     1       4.826   3.192  19.447  0.00  0.00    +0.000 NA
ATOM      8  C   UNL     1       4.167   3.277  18.315  0.00  0.00    +0.000 A 
ATOM      9 BR   UNL     1       2.765   2.111  17.875  0.00  0.00    +0.000 Br
ATOM     10  S   UNL     1       4.679   4.524  17.276  0.00  0.00    +0.000 S 
ATOM     11  H   UNL     1       7.359   6.069  19.103  0.00  0.00    +0.000 HD
ENDROOT
TORSDOF 0
ENDMDL
MODEL 7
REMARK VINA RESULT:      -5.0      3.348      4.604
REMARK  Name = 
REMARK  1 active torsions:
REMARK  status: ('A' for Active; 'I' for Inactive)
REMARK    1  A    between atoms: C_1  and  C_2
REMARK                            x       y       z     vdW  Elec       q    Type
REMARK                         _______ _______ _______ _____ _____    ______ ____
ROOT
ATOM      1  C   UNL     1       6.608   4.531  15.635  0.00  0.00    +0.000 C 
ATOM      2  C   UNL     1       5.878   4.391  16.945  0.00  0.00    +0.000 C 
ATOM      3  O   UNL     1       6.165   5.107  17.898  0.00  0.00    +0.000 OA
ATOM      4  N   UNL     1       4.916   3.410  16.902  0.00  0.00    +0.000 N 
ATOM      5  C   UNL     1       4.053   3.076  17.919  0.00  0.00    +0.000 A 
ATOM      6  N   UNL     1       3.281   2.012  17.866  0.00  0.00    +0.000 NA
ATOM      7  N   UNL     1       2.510   1.874  19.008  0.00  0.00    +0.000 NA
ATOM      8  C   UNL     1       2.717   2.864  19.845  0.00  0.00    +0.000 A 
ATOM      9 BR   UNL     1       1.832   2.992  21.494  0.00  0.00    +0.000 Br
ATOM     10  S   UNL     1       3.848   4.024  19.323  0.00  0.00    +0.000 S 
ATOM     11  H   UNL     1       4.866   2.789  16.107  0.00  0.00    +0.000 HD
ENDROOT
TORSDOF 0
ENDMDL
MODEL 8
REMARK VINA RESULT:      -4.9      3.367      4.137
REMARK  Name = 
REMARK  1 active torsions:
REMARK  status: ('A' for Active; 'I' for Inactive)
REMARK    1  A    between atoms: C_1  and  C_2
REMARK                            x       y       z     vdW  Elec       q    Type
REMARK                         _______ _______ _______ _____ _____    ______ ____
ROOT
ATOM      1  C   UNL     1       4.415   5.194  19.510  0.00  0.00    +0.000 C 
ATOM      2  C   UNL     1       4.757   4.661  18.143  0.00  0.00    +0.000 C 
ATOM      3  O   UNL     1       4.163   3.690  17.686  0.00  0.00    +0.000 OA
ATOM      4  N   UNL     1       5.759   5.381  17.539  0.00  0.00    +0.000 N 
ATOM      5  C   UNL     1       6.259   5.174  16.275  0.00  0.00    +0.000 A 
ATOM      6  N   UNL     1       7.336   5.787  15.834  0.00  0.00    +0.000 NA
ATOM      7  N   UNL     1       7.654   5.410  14.541  0.00  0.00    +0.000 NA
ATOM      8  C   UNL     1       6.777   4.558  14.064  0.00  0.00    +0.000 A 
ATOM      9 BR   UNL     1       6.905   3.842  12.335  0.00  0.00    +0.000 Br
ATOM     10  S   UNL     1       5.515   4.151  15.130  0.00  0.00    +0.000 S 
ATOM     11  H   UNL     1       6.271   6.073  18.069  0.00  0.00    +0.000 HD
ENDROOT
TORSDOF 0
ENDMDL
MODEL 9
REMARK VINA RESULT:      -4.9      3.002      4.597
REMARK  Name = 
REMARK  1 active torsions:
REMARK  status: ('A' for Active; 'I' for Inactive)
REMARK    1  A    between atoms: C_1  and  C_2
REMARK                            x       y       z     vdW  Elec       q    Type
REMARK                         _______ _______ _______ _____ _____    ______ ____
ROOT
ATOM      1  C   UNL     1       7.734   5.861  18.327  0.00  0.00    +0.000 C 
ATOM      2  C   UNL     1       6.276   5.481  18.356  0.00  0.00    +0.000 C 
ATOM      3  O   UNL     1       5.431   6.214  17.853  0.00  0.00    +0.000 OA
ATOM      4  N   UNL     1       6.063   4.279  18.986  0.00  0.00    +0.000 N 
ATOM      5  C   UNL     1       4.853   3.641  19.130  0.00  0.00    +0.000 A 
ATOM      6  N   UNL     1       4.702   2.583  19.897  0.00  0.00    +0.000 NA
ATOM      7  N   UNL     1       3.396   2.125  19.894  0.00  0.00    +0.000 NA
ATOM      8  C   UNL     1       2.640   2.842  19.097  0.00  0.00    +0.000 A 
ATOM      9 BR   UNL     1       0.813   2.494  18.855  0.00  0.00    +0.000 Br
ATOM     10  S   UNL     1       3.441   4.114  18.297  0.00  0.00    +0.000 S 
ATOM     11  H   UNL     1       6.820   3.833  19.486  0.00  0.00    +0.000 HD
ENDROOT
TORSDOF 0
ENDMDL
