MODEL 1
REMARK VINA RESULT:      -7.9      0.000      0.000
REMARK  Name = 
REMARK  5 active torsions:
REMARK  status: ('A' for Active; 'I' for Inactive)
REMARK    1  A    between atoms: N_1  and  C_2
REMARK    2  A    between atoms: C_2  and  N_4
REMARK    3  A    between atoms: C_6  and  C_7
REMARK    4  A    between atoms: C_16  and  C_17
REMARK    5  A    between atoms: C_20  and  O_21
REMARK                            x       y       z     vdW  Elec       q    Type
REMARK                         _______ _______ _______ _____ _____    ______ ____
ROOT
ATOM      1  N   UNL     1       4.098   4.628  18.425  0.00  0.00    +0.000 N 
ATOM      2  N   UNL     1       2.989   5.363  18.755  0.00  0.00    +0.000 NA
ATOM      3  C   UNL     1       3.272   6.609  18.511  0.00  0.00    +0.000 C 
ATOM      4  C   UNL     1       4.631   6.863  17.922  0.00  0.00    +0.000 C 
ATOM      5  C   UNL     1       5.197   5.452  17.903  0.00  0.00    +0.000 C 
ENDROOT
BRANCH   3   6
ATOM      6  C   UNL     1       2.344   7.718  18.796  0.00  0.00    +0.000 A 
ATOM      7  C   UNL     1       1.924   8.560  17.766  0.00  0.00    +0.000 A 
ATOM      8  C   UNL     1       1.028   9.595  18.038  0.00  0.00    +0.000 A 
ATOM      9  C   UNL     1       0.556   9.796  19.340  0.00  0.00    +0.000 A 
ATOM     10 BR   UNL     1      -0.669  11.219  19.611  0.00  0.00    +0.000 Br
ATOM     11  C   UNL     1       0.984   8.955  20.373  0.00  0.00    +0.000 A 
ATOM     12 BR   UNL     1       0.432   9.154  22.180  0.00  0.00    +0.000 Br
ATOM     13  C   UNL     1       1.869   7.912  20.098  0.00  0.00    +0.000 A 
ENDBRANCH   3   6
BRANCH   5  14
ATOM     14  C   UNL     1       5.623   5.031  16.506  0.00  0.00    +0.000 A 
ATOM     15  C   UNL     1       6.964   5.164  16.097  0.00  0.00    +0.000 A 
ATOM     16  C   UNL     1       7.358   4.768  14.816  0.00  0.00    +0.000 A 
ATOM     17  C   UNL     1       6.416   4.249  13.937  0.00  0.00    +0.000 A 
ATOM     18  C   UNL     1       5.087   4.118  14.312  0.00  0.00    +0.000 A 
ATOM     19  C   UNL     1       4.693   4.504  15.596  0.00  0.00    +0.000 A 
BRANCH  17  20
ATOM     20  O   UNL     1       6.755   3.866  12.671  0.00  0.00    +0.000 OA
ATOM     21  H   UNL     1       6.648   4.627  12.079  0.00  0.00    +0.000 HD
ENDBRANCH  17  20
ENDBRANCH   5  14
BRANCH   1  22
ATOM     22  C   UNL     1       4.122   3.266  18.633  0.00  0.00    +0.000 C 
ATOM     23  S   UNL     1       3.016   2.163  18.043  0.00  0.00    +0.000 S 
BRANCH  22  24
ATOM     24  N   UNL     1       5.170   2.796  19.372  0.00  0.00    +0.000 N 
ATOM     25  H   UNL     1       5.251   3.215  20.291  0.00  0.00    +0.000 HD
ATOM     26  H   UNL     1       6.052   2.676  18.892  0.00  0.00    +0.000 HD
ENDBRANCH  22  24
ENDBRANCH   1  22
TORSDOF 5
ENDMDL
MODEL 2
REMARK VINA RESULT:      -7.9      0.023      1.008
REMARK  Name = 
REMARK  5 active torsions:
REMARK  status: ('A' for Active; 'I' for Inactive)
REMARK    1  A    between atoms: N_1  and  C_2
REMARK    2  A    between atoms: C_2  and  N_4
REMARK    3  A    between atoms: C_6  and  C_7
REMARK    4  A    between atoms: C_16  and  C_17
REMARK    5  A    between atoms: C_20  and  O_21
REMARK                            x       y       z     vdW  Elec       q    Type
REMARK                         _______ _______ _______ _____ _____    ______ ____
ROOT
ATOM      1  N   UNL     1       4.099   4.617  18.417  0.00  0.00    +0.000 N 
ATOM      2  N   UNL     1       2.992   5.354  18.749  0.00  0.00    +0.000 NA
ATOM      3  C   UNL     1       3.277   6.599  18.505  0.00  0.00    +0.000 C 
ATOM      4  C   UNL     1       4.634   6.851  17.913  0.00  0.00    +0.000 C 
ATOM      5  C   UNL     1       5.198   5.439  17.891  0.00  0.00    +0.000 C 
ENDROOT
BRANCH   3   6
ATOM      6  C   UNL     1       2.351   7.709  18.794  0.00  0.00    +0.000 A 
ATOM      7  C   UNL     1       1.935   8.557  17.766  0.00  0.00    +0.000 A 
ATOM      8  C   UNL     1       1.041   9.593  18.041  0.00  0.00    +0.000 A 
ATOM      9  C   UNL     1       0.568   9.790  19.343  0.00  0.00    +0.000 A 
ATOM     10 BR   UNL     1      -0.653  11.216  19.618  0.00  0.00    +0.000 Br
ATOM     11  C   UNL     1       0.992   8.945  20.373  0.00  0.00    +0.000 A 
ATOM     12 BR   UNL     1       0.439   9.139  22.181  0.00  0.00    +0.000 Br
ATOM     13  C   UNL     1       1.875   7.900  20.096  0.00  0.00    +0.000 A 
ENDBRANCH   3   6
BRANCH   5  14
ATOM     14  C   UNL     1       5.620   5.018  16.494  0.00  0.00    +0.000 A 
ATOM     15  C   UNL     1       4.678   4.489  15.591  0.00  0.00    +0.000 A 
ATOM     16  C   UNL     1       5.064   4.111  14.302  0.00  0.00    +0.000 A 
ATOM     17  C   UNL     1       6.390   4.249  13.913  0.00  0.00    +0.000 A 
ATOM     18  C   UNL     1       7.340   4.758  14.788  0.00  0.00    +0.000 A 
ATOM     19  C   UNL     1       6.953   5.146  16.074  0.00  0.00    +0.000 A 
BRANCH  17  20
ATOM     20  O   UNL     1       6.813   3.876  12.671  0.00  0.00    +0.000 OA
ATOM     21  H   UNL     1       6.919   2.912  12.656  0.00  0.00    +0.000 HD
ENDBRANCH  17  20
ENDBRANCH   5  14
BRANCH   1  22
ATOM     22  C   UNL     1       4.122   3.255  18.624  0.00  0.00    +0.000 C 
ATOM     23  S   UNL     1       3.013   2.153  18.035  0.00  0.00    +0.000 S 
BRANCH  22  24
ATOM     24  N   UNL     1       5.170   2.783  19.362  0.00  0.00    +0.000 N 
ATOM     25  H   UNL     1       4.958   2.641  20.342  0.00  0.00    +0.000 HD
ATOM     26  H   UNL     1       6.075   3.200  19.189  0.00  0.00    +0.000 HD
ENDBRANCH  22  24
ENDBRANCH   1  22
TORSDOF 5
ENDMDL
MODEL 3
REMARK VINA RESULT:      -7.1      1.170      1.592
REMARK  Name = 
REMARK  5 active torsions:
REMARK  status: ('A' for Active; 'I' for Inactive)
REMARK    1  A    between atoms: N_1  and  C_2
REMARK    2  A    between atoms: C_2  and  N_4
REMARK    3  A    between atoms: C_6  and  C_7
REMARK    4  A    between atoms: C_16  and  C_17
REMARK    5  A    between atoms: C_20  and  O_21
REMARK                            x       y       z     vdW  Elec       q    Type
REMARK                         _______ _______ _______ _____ _____    ______ ____
ROOT
ATOM      1  N   UNL     1       3.425   4.528  19.216  0.00  0.00    +0.000 N 
ATOM      2  N   UNL     1       2.369   5.375  19.433  0.00  0.00    +0.000 NA
ATOM      3  C   UNL     1       2.819   6.587  19.296  0.00  0.00    +0.000 C 
ATOM      4  C   UNL     1       4.266   6.703  18.909  0.00  0.00    +0.000 C 
ATOM      5  C   UNL     1       4.670   5.238  18.891  0.00  0.00    +0.000 C 
ENDROOT
BRANCH   3   6
ATOM      6  C   UNL     1       1.988   7.785  19.514  0.00  0.00    +0.000 A 
ATOM      7  C   UNL     1       1.753   8.673  18.463  0.00  0.00    +0.000 A 
ATOM      8  C   UNL     1       0.947   9.794  18.669  0.00  0.00    +0.000 A 
ATOM      9  C   UNL     1       0.382  10.035  19.926  0.00  0.00    +0.000 A 
ATOM     10 BR   UNL     1      -0.709  11.577  20.106  0.00  0.00    +0.000 Br
ATOM     11  C   UNL     1       0.624   9.148  20.980  0.00  0.00    +0.000 A 
ATOM     12 BR   UNL     1      -0.067   9.394  22.733  0.00  0.00    +0.000 Br
ATOM     13  C   UNL     1       1.419   8.020  20.770  0.00  0.00    +0.000 A 
ENDBRANCH   3   6
BRANCH   5  14
ATOM     14  C   UNL     1       5.238   4.823  17.543  0.00  0.00    +0.000 A 
ATOM     15  C   UNL     1       4.384   4.583  16.450  0.00  0.00    +0.000 A 
ATOM     16  C   UNL     1       4.906   4.212  15.208  0.00  0.00    +0.000 A 
ATOM     17  C   UNL     1       6.280   4.068  15.056  0.00  0.00    +0.000 A 
ATOM     18  C   UNL     1       7.142   4.287  16.121  0.00  0.00    +0.000 A 
ATOM     19  C   UNL     1       6.622   4.669  17.360  0.00  0.00    +0.000 A 
BRANCH  17  20
ATOM     20  O   UNL     1       6.831   3.690  13.866  0.00  0.00    +0.000 OA
ATOM     21  H   UNL     1       7.697   3.291  14.039  0.00  0.00    +0.000 HD
ENDBRANCH  17  20
ENDBRANCH   5  14
BRANCH   1  22
ATOM     22  C   UNL     1       3.271   3.166  19.352  0.00  0.00    +0.000 C 
ATOM     23  S   UNL     1       4.332   2.129  20.121  0.00  0.00    +0.000 S 
BRANCH  22  24
ATOM     24  N   UNL     1       2.127   2.641  18.822  0.00  0.00    +0.000 N 
ATOM     25  H   UNL     1       2.123   2.590  17.810  0.00  0.00    +0.000 HD
ATOM     26  H   UNL     1       1.252   2.950  19.225  0.00  0.00    +0.000 HD
ENDBRANCH  22  24
ENDBRANCH   1  22
TORSDOF 5
ENDMDL
MODEL 4
REMARK VINA RESULT:      -7.1      1.244      1.443
REMARK  Name = 
REMARK  5 active torsions:
REMARK  status: ('A' for Active; 'I' for Inactive)
REMARK    1  A    between atoms: N_1  and  C_2
REMARK    2  A    between atoms: C_2  and  N_4
REMARK    3  A    between atoms: C_6  and  C_7
REMARK    4  A    between atoms: C_16  and  C_17
REMARK    5  A    between atoms: C_20  and  O_21
REMARK                            x       y       z     vdW  Elec       q    Type
REMARK                         _______ _______ _______ _____ _____    ______ ____
ROOT
ATOM      1  N   UNL     1       3.221   4.732  18.719  0.00  0.00    +0.000 N 
ATOM      2  N   UNL     1       2.163   5.582  18.909  0.00  0.00    +0.000 NA
ATOM      3  C   UNL     1       2.659   6.753  19.184  0.00  0.00    +0.000 C 
ATOM      4  C   UNL     1       4.158   6.844  19.160  0.00  0.00    +0.000 C 
ATOM      5  C   UNL     1       4.523   5.398  18.859  0.00  0.00    +0.000 C 
ENDROOT
BRANCH   3   6
ATOM      6  C   UNL     1       1.828   7.925  19.512  0.00  0.00    +0.000 A 
ATOM      7  C   UNL     1       1.504   8.852  18.520  0.00  0.00    +0.000 A 
ATOM      8  C   UNL     1       0.698   9.948  18.832  0.00  0.00    +0.000 A 
ATOM      9  C   UNL     1       0.221  10.125  20.135  0.00  0.00    +0.000 A 
ATOM     10 BR   UNL     1      -0.877  11.638  20.461  0.00  0.00    +0.000 Br
ATOM     11  C   UNL     1       0.553   9.199  21.130  0.00  0.00    +0.000 A 
ATOM     12 BR   UNL     1      -0.013   9.358  22.937  0.00  0.00    +0.000 Br
ATOM     13  C   UNL     1       1.347   8.096  20.815  0.00  0.00    +0.000 A 
ENDBRANCH   3   6
BRANCH   5  14
ATOM     14  C   UNL     1       5.374   5.277  17.606  0.00  0.00    +0.000 A 
ATOM     15  C   UNL     1       6.676   4.745  17.674  0.00  0.00    +0.000 A 
ATOM     16  C   UNL     1       7.455   4.624  16.520  0.00  0.00    +0.000 A 
ATOM     17  C   UNL     1       6.944   5.043  15.298  0.00  0.00    +0.000 A 
ATOM     18  C   UNL     1       5.668   5.582  15.207  0.00  0.00    +0.000 A 
ATOM     19  C   UNL     1       4.884   5.693  16.358  0.00  0.00    +0.000 A 
BRANCH  17  20
ATOM     20  O   UNL     1       7.677   4.959  14.151  0.00  0.00    +0.000 OA
ATOM     21  H   UNL     1       8.578   4.686  14.379  0.00  0.00    +0.000 HD
ENDBRANCH  17  20
ENDBRANCH   5  14
BRANCH   1  22
ATOM     22  C   UNL     1       3.008   3.394  18.470  0.00  0.00    +0.000 C 
ATOM     23  S   UNL     1       3.651   2.120  19.338  0.00  0.00    +0.000 S 
BRANCH  22  24
ATOM     24  N   UNL     1       2.174   3.108  17.427  0.00  0.00    +0.000 N 
ATOM     25  H   UNL     1       1.476   2.404  17.634  0.00  0.00    +0.000 HD
ATOM     26  H   UNL     1       2.599   3.016  16.513  0.00  0.00    +0.000 HD
ENDBRANCH  22  24
ENDBRANCH   1  22
TORSDOF 5
ENDMDL
MODEL 5
REMARK VINA RESULT:      -7.0      1.016      1.668
REMARK  Name = 
REMARK  5 active torsions:
REMARK  status: ('A' for Active; 'I' for Inactive)
REMARK    1  A    between atoms: N_1  and  C_2
REMARK    2  A    between atoms: C_2  and  N_4
REMARK    3  A    between atoms: C_6  and  C_7
REMARK    4  A    between atoms: C_16  and  C_17
REMARK    5  A    between atoms: C_20  and  O_21
REMARK                            x       y       z     vdW  Elec       q    Type
REMARK                         _______ _______ _______ _____ _____    ______ ____
ROOT
ATOM      1  N   UNL     1       3.958   4.122  19.054  0.00  0.00    +0.000 N 
ATOM      2  N   UNL     1       2.857   4.835  19.451  0.00  0.00    +0.000 NA
ATOM      3  C   UNL     1       3.176   6.095  19.387  0.00  0.00    +0.000 C 
ATOM      4  C   UNL     1       4.557   6.389  18.873  0.00  0.00    +0.000 C 
ATOM      5  C   UNL     1       5.090   4.979  18.677  0.00  0.00    +0.000 C 
ENDROOT
BRANCH   3   6
ATOM      6  C   UNL     1       2.266   7.179  19.796  0.00  0.00    +0.000 A 
ATOM      7  C   UNL     1       1.564   7.086  20.999  0.00  0.00    +0.000 A 
ATOM      8  C   UNL     1       0.720   8.127  21.392  0.00  0.00    +0.000 A 
ATOM      9  C   UNL     1       0.570   9.257  20.581  0.00  0.00    +0.000 A 
ATOM     10 BR   UNL     1      -0.588  10.625  21.204  0.00  0.00    +0.000 Br
ATOM     11  C   UNL     1       1.269   9.346  19.373  0.00  0.00    +0.000 A 
ATOM     12 BR   UNL     1       1.116  10.819  18.182  0.00  0.00    +0.000 Br
ATOM     13  C   UNL     1       2.123   8.312  18.987  0.00  0.00    +0.000 A 
ENDBRANCH   3   6
BRANCH   5  14
ATOM     14  C   UNL     1       5.548   4.739  17.248  0.00  0.00    +0.000 A 
ATOM     15  C   UNL     1       6.919   4.723  16.929  0.00  0.00    +0.000 A 
ATOM     16  C   UNL     1       7.341   4.494  15.616  0.00  0.00    +0.000 A 
ATOM     17  C   UNL     1       6.397   4.290  14.617  0.00  0.00    +0.000 A 
ATOM     18  C   UNL     1       5.039   4.312  14.904  0.00  0.00    +0.000 A 
ATOM     19  C   UNL     1       4.617   4.532  16.218  0.00  0.00    +0.000 A 
BRANCH  17  20
ATOM     20  O   UNL     1       6.764   4.080  13.320  0.00  0.00    +0.000 OA
ATOM     21  H   UNL     1       6.460   4.831  12.787  0.00  0.00    +0.000 HD
ENDBRANCH  17  20
ENDBRANCH   5  14
BRANCH   1  22
ATOM     22  C   UNL     1       3.945   2.744  19.074  0.00  0.00    +0.000 C 
ATOM     23  S   UNL     1       2.855   1.760  18.277  0.00  0.00    +0.000 S 
BRANCH  22  24
ATOM     24  N   UNL     1       4.937   2.151  19.802  0.00  0.00    +0.000 N 
ATOM     25  H   UNL     1       5.797   2.686  19.846  0.00  0.00    +0.000 HD
ATOM     26  H   UNL     1       5.072   1.158  19.667  0.00  0.00    +0.000 HD
ENDBRANCH  22  24
ENDBRANCH   1  22
TORSDOF 5
ENDMDL
MODEL 6
REMARK VINA RESULT:      -7.0      5.444      8.560
REMARK  Name = 
REMARK  5 active torsions:
REMARK  status: ('A' for Active; 'I' for Inactive)
REMARK    1  A    between atoms: N_1  and  C_2
REMARK    2  A    between atoms: C_2  and  N_4
REMARK    3  A    between atoms: C_6  and  C_7
REMARK    4  A    between atoms: C_16  and  C_17
REMARK    5  A    between atoms: C_20  and  O_21
REMARK                            x       y       z     vdW  Elec       q    Type
REMARK                         _______ _______ _______ _____ _____    ______ ____
ROOT
ATOM      1  N   UNL     1       1.676  10.994  18.705  0.00  0.00    +0.000 N 
ATOM      2  N   UNL     1       2.472  10.053  18.105  0.00  0.00    +0.000 NA
ATOM      3  C   UNL     1       2.022   8.887  18.465  0.00  0.00    +0.000 C 
ATOM      4  C   UNL     1       0.799   8.905  19.338  0.00  0.00    +0.000 C 
ATOM      5  C   UNL     1       0.600  10.403  19.512  0.00  0.00    +0.000 C 
ENDROOT
BRANCH   3   6
ATOM      6  C   UNL     1       2.658   7.619  18.068  0.00  0.00    +0.000 A 
ATOM      7  C   UNL     1       3.912   7.628  17.455  0.00  0.00    +0.000 A 
ATOM      8  C   UNL     1       4.519   6.421  17.101  0.00  0.00    +0.000 A 
ATOM      9  C   UNL     1       3.872   5.206  17.351  0.00  0.00    +0.000 A 
ATOM     10 BR   UNL     1       4.781   3.619  16.846  0.00  0.00    +0.000 Br
ATOM     11  C   UNL     1       2.613   5.199  17.958  0.00  0.00    +0.000 A 
ATOM     12 BR   UNL     1       1.632   3.611  18.315  0.00  0.00    +0.000 Br
ATOM     13  C   UNL     1       2.011   6.404  18.325  0.00  0.00    +0.000 A 
ENDBRANCH   3   6
BRANCH   5  14
ATOM     14  C   UNL     1      -0.779  10.848  19.055  0.00  0.00    +0.000 A 
ATOM     15  C   UNL     1      -1.339  10.338  17.868  0.00  0.00    +0.000 A 
ATOM     16  C   UNL     1      -2.612  10.740  17.453  0.00  0.00    +0.000 A 
ATOM     17  C   UNL     1      -3.324  11.659  18.212  0.00  0.00    +0.000 A 
ATOM     18  C   UNL     1      -2.790  12.186  19.380  0.00  0.00    +0.000 A 
ATOM     19  C   UNL     1      -1.522  11.776  19.802  0.00  0.00    +0.000 A 
BRANCH  17  20
ATOM     20  O   UNL     1      -4.562  12.092  17.834  0.00  0.00    +0.000 OA
ATOM     21  H   UNL     1      -5.202  11.385  18.004  0.00  0.00    +0.000 HD
ENDBRANCH  17  20
ENDBRANCH   5  14
BRANCH   1  22
ATOM     22  C   UNL     1       1.946  12.337  18.558  0.00  0.00    +0.000 C 
ATOM     23  S   UNL     1       1.886  13.489  19.766  0.00  0.00    +0.000 S 
BRANCH  22  24
ATOM     24  N   UNL     1       2.316  12.735  17.305  0.00  0.00    +0.000 N 
ATOM     25  H   UNL     1       2.326  11.990  16.618  0.00  0.00    +0.000 HD
ATOM     26  H   UNL     1       3.100  13.371  17.240  0.00  0.00    +0.000 HD
ENDBRANCH  22  24
ENDBRANCH   1  22
TORSDOF 5
ENDMDL
MODEL 7
REMARK VINA RESULT:      -7.0      1.020      1.943
REMARK  Name = 
REMARK  5 active torsions:
REMARK  status: ('A' for Active; 'I' for Inactive)
REMARK    1  A    between atoms: N_1  and  C_2
REMARK    2  A    between atoms: C_2  and  N_4
REMARK    3  A    between atoms: C_6  and  C_7
REMARK    4  A    between atoms: C_16  and  C_17
REMARK    5  A    between atoms: C_20  and  O_21
REMARK                            x       y       z     vdW  Elec       q    Type
REMARK                         _______ _______ _______ _____ _____    ______ ____
ROOT
ATOM      1  N   UNL     1       3.889   4.119  19.022  0.00  0.00    +0.000 N 
ATOM      2  N   UNL     1       2.793   4.844  19.412  0.00  0.00    +0.000 NA
ATOM      3  C   UNL     1       3.135   6.099  19.376  0.00  0.00    +0.000 C 
ATOM      4  C   UNL     1       4.530   6.378  18.893  0.00  0.00    +0.000 C 
ATOM      5  C   UNL     1       5.043   4.962  18.681  0.00  0.00    +0.000 C 
ENDROOT
BRANCH   3   6
ATOM      6  C   UNL     1       2.237   7.192  19.788  0.00  0.00    +0.000 A 
ATOM      7  C   UNL     1       1.517   7.093  20.980  0.00  0.00    +0.000 A 
ATOM      8  C   UNL     1       0.684   8.141  21.376  0.00  0.00    +0.000 A 
ATOM      9  C   UNL     1       0.563   9.285  20.580  0.00  0.00    +0.000 A 
ATOM     10 BR   UNL     1      -0.583  10.662  21.206  0.00  0.00    +0.000 Br
ATOM     11  C   UNL     1       1.279   9.379  19.382  0.00  0.00    +0.000 A 
ATOM     12 BR   UNL     1       1.165  10.871  18.210  0.00  0.00    +0.000 Br
ATOM     13  C   UNL     1       2.122   8.338  18.993  0.00  0.00    +0.000 A 
ENDBRANCH   3   6
BRANCH   5  14
ATOM     14  C   UNL     1       5.523   4.740  17.257  0.00  0.00    +0.000 A 
ATOM     15  C   UNL     1       4.599   4.531  16.215  0.00  0.00    +0.000 A 
ATOM     16  C   UNL     1       5.040   4.336  14.903  0.00  0.00    +0.000 A 
ATOM     17  C   UNL     1       6.401   4.340  14.627  0.00  0.00    +0.000 A 
ATOM     18  C   UNL     1       7.332   4.534  15.638  0.00  0.00    +0.000 A 
ATOM     19  C   UNL     1       6.893   4.738  16.949  0.00  0.00    +0.000 A 
BRANCH  17  20
ATOM     20  O   UNL     1       6.875   4.137  13.364  0.00  0.00    +0.000 OA
ATOM     21  H   UNL     1       6.361   3.426  12.951  0.00  0.00    +0.000 HD
ENDBRANCH  17  20
ENDBRANCH   5  14
BRANCH   1  22
ATOM     22  C   UNL     1       3.852   2.741  19.018  0.00  0.00    +0.000 C 
ATOM     23  S   UNL     1       2.711   1.792  18.251  0.00  0.00    +0.000 S 
BRANCH  22  24
ATOM     24  N   UNL     1       4.864   2.117  19.689  0.00  0.00    +0.000 N 
ATOM     25  H   UNL     1       4.553   1.429  20.365  0.00  0.00    +0.000 HD
ATOM     26  H   UNL     1       5.627   2.699  20.010  0.00  0.00    +0.000 HD
ENDBRANCH  22  24
ENDBRANCH   1  22
TORSDOF 5
ENDMDL
MODEL 8
REMARK VINA RESULT:      -6.9      5.577      8.651
REMARK  Name = 
REMARK  5 active torsions:
REMARK  status: ('A' for Active; 'I' for Inactive)
REMARK    1  A    between atoms: N_1  and  C_2
REMARK    2  A    between atoms: C_2  and  N_4
REMARK    3  A    between atoms: C_6  and  C_7
REMARK    4  A    between atoms: C_16  and  C_17
REMARK    5  A    between atoms: C_20  and  O_21
REMARK                            x       y       z     vdW  Elec       q    Type
REMARK                         _______ _______ _______ _____ _____    ______ ____
ROOT
ATOM      1  N   UNL     1       1.043  11.141  18.707  0.00  0.00    +0.000 N 
ATOM      2  N   UNL     1       2.015  10.216  18.422  0.00  0.00    +0.000 NA
ATOM      3  C   UNL     1       1.592   9.070  18.869  0.00  0.00    +0.000 C 
ATOM      4  C   UNL     1       0.220   9.078  19.481  0.00  0.00    +0.000 C 
ATOM      5  C   UNL     1      -0.125  10.555  19.378  0.00  0.00    +0.000 C 
ENDROOT
BRANCH   3   6
ATOM      6  C   UNL     1       2.391   7.834  18.802  0.00  0.00    +0.000 A 
ATOM      7  C   UNL     1       2.273   6.869  19.804  0.00  0.00    +0.000 A 
ATOM      8  C   UNL     1       3.016   5.690  19.724  0.00  0.00    +0.000 A 
ATOM      9  C   UNL     1       3.884   5.476  18.647  0.00  0.00    +0.000 A 
ATOM     10 BR   UNL     1       4.843   3.839  18.618  0.00  0.00    +0.000 Br
ATOM     11  C   UNL     1       4.007   6.446  17.648  0.00  0.00    +0.000 A 
ATOM     12 BR   UNL     1       5.177   6.273  16.161  0.00  0.00    +0.000 Br
ATOM     13  C   UNL     1       3.254   7.619  17.721  0.00  0.00    +0.000 A 
ENDBRANCH   3   6
BRANCH   5  14
ATOM     14  C   UNL     1      -1.413  10.784  18.605  0.00  0.00    +0.000 A 
ATOM     15  C   UNL     1      -1.618  10.164  17.358  0.00  0.00    +0.000 A 
ATOM     16  C   UNL     1      -2.807  10.367  16.651  0.00  0.00    +0.000 A 
ATOM     17  C   UNL     1      -3.789  11.196  17.179  0.00  0.00    +0.000 A 
ATOM     18  C   UNL     1      -3.606  11.827  18.402  0.00  0.00    +0.000 A 
ATOM     19  C   UNL     1      -2.422  11.617  19.115  0.00  0.00    +0.000 A 
BRANCH  17  20
ATOM     20  O   UNL     1      -4.956  11.435  16.515  0.00  0.00    +0.000 OA
ATOM     21  H   UNL     1      -5.261  10.605  16.117  0.00  0.00    +0.000 HD
ENDBRANCH  17  20
ENDBRANCH   5  14
BRANCH   1  22
ATOM     22  C   UNL     1       1.233  12.471  18.406  0.00  0.00    +0.000 C 
ATOM     23  S   UNL     1       0.468  13.763  19.139  0.00  0.00    +0.000 S 
BRANCH  22  24
ATOM     24  N   UNL     1       2.152  12.735  17.430  0.00  0.00    +0.000 N 
ATOM     25  H   UNL     1       2.978  13.223  17.758  0.00  0.00    +0.000 HD
ATOM     26  H   UNL     1       1.796  13.070  16.545  0.00  0.00    +0.000 HD
ENDBRANCH  22  24
ENDBRANCH   1  22
TORSDOF 5
ENDMDL
MODEL 9
REMARK VINA RESULT:      -6.9      5.443      8.553
REMARK  Name = 
REMARK  5 active torsions:
REMARK  status: ('A' for Active; 'I' for Inactive)
REMARK    1  A    between atoms: N_1  and  C_2
REMARK    2  A    between atoms: C_2  and  N_4
REMARK    3  A    between atoms: C_6  and  C_7
REMARK    4  A    between atoms: C_16  and  C_17
REMARK    5  A    between atoms: C_20  and  O_21
REMARK                            x       y       z     vdW  Elec       q    Type
REMARK                         _______ _______ _______ _____ _____    ______ ____
ROOT
ATOM      1  N   UNL     1       1.679  11.007  18.715  0.00  0.00    +0.000 N 
ATOM      2  N   UNL     1       2.470  10.066  18.107  0.00  0.00    +0.000 NA
ATOM      3  C   UNL     1       2.022   8.900  18.472  0.00  0.00    +0.000 C 
ATOM      4  C   UNL     1       0.807   8.918  19.355  0.00  0.00    +0.000 C 
ATOM      5  C   UNL     1       0.610  10.416  19.531  0.00  0.00    +0.000 C 
ENDROOT
BRANCH   3   6
ATOM      6  C   UNL     1       2.655   7.631  18.069  0.00  0.00    +0.000 A 
ATOM      7  C   UNL     1       3.905   7.640  17.448  0.00  0.00    +0.000 A 
ATOM      8  C   UNL     1       4.509   6.433  17.089  0.00  0.00    +0.000 A 
ATOM      9  C   UNL     1       3.862   5.218  17.341  0.00  0.00    +0.000 A 
ATOM     10 BR   UNL     1       4.766   3.631  16.828  0.00  0.00    +0.000 Br
ATOM     11  C   UNL     1       2.606   5.212  17.956  0.00  0.00    +0.000 A 
ATOM     12 BR   UNL     1       1.627   3.625  18.318  0.00  0.00    +0.000 Br
ATOM     13  C   UNL     1       2.009   6.417  18.328  0.00  0.00    +0.000 A 
ENDBRANCH   3   6
BRANCH   5  14
ATOM     14  C   UNL     1      -0.773  10.862  19.086  0.00  0.00    +0.000 A 
ATOM     15  C   UNL     1      -1.508  11.785  19.853  0.00  0.00    +0.000 A 
ATOM     16  C   UNL     1      -2.776  12.203  19.439  0.00  0.00    +0.000 A 
ATOM     17  C   UNL     1      -3.318  11.693  18.265  0.00  0.00    +0.000 A 
ATOM     18  C   UNL     1      -2.618  10.774  17.497  0.00  0.00    +0.000 A 
ATOM     19  C   UNL     1      -1.346  10.363  17.905  0.00  0.00    +0.000 A 
BRANCH  17  20
ATOM     20  O   UNL     1      -4.559  12.060  17.834  0.00  0.00    +0.000 OA
ATOM     21  H   UNL     1      -4.499  12.941  17.432  0.00  0.00    +0.000 HD
ENDBRANCH  17  20
ENDBRANCH   5  14
BRANCH   1  22
ATOM     22  C   UNL     1       1.948  12.350  18.565  0.00  0.00    +0.000 C 
ATOM     23  S   UNL     1       1.889  13.503  19.772  0.00  0.00    +0.000 S 
BRANCH  22  24
ATOM     24  N   UNL     1       2.317  12.746  17.311  0.00  0.00    +0.000 N 
ATOM     25  H   UNL     1       2.823  12.044  16.785  0.00  0.00    +0.000 HD
ATOM     26  H   UNL     1       2.688  13.682  17.218  0.00  0.00    +0.000 HD
ENDBRANCH  22  24
ENDBRANCH   1  22
TORSDOF 5
ENDMDL
