MODEL 1
REMARK VINA RESULT:      -8.3      0.000      0.000
REMARK  Name = 
REMARK  6 active torsions:
REMARK  status: ('A' for Active; 'I' for Inactive)
REMARK    1  A    between atoms: C_1  and  N_2
REMARK    2  A    between atoms: C_4  and  C_5
REMARK    3  A    between atoms: C_5  and  N_6
REMARK    4  A    between atoms: C_13  and  C_14
REMARK    5  A    between atoms: C_17  and  O_18
REMARK    6  A    between atoms: O_18  and  C_19
REMARK                            x       y       z     vdW  Elec       q    Type
REMARK                         _______ _______ _______ _____ _____    ______ ____
ROOT
ATOM      1  N   UNL     1       0.129  10.185  18.950  0.00  0.00    +0.000 N 
ATOM      2  C   UNL     1      -0.610   9.986  20.200  0.00  0.00    +0.000 C 
ATOM      3  C   UNL     1      -0.457   8.642  20.889  0.00  0.00    +0.000 C 
ATOM      4  O   UNL     1       0.872   8.483  21.394  0.00  0.00    +0.000 OA
ATOM      5  C   UNL     1       1.641   7.893  20.434  0.00  0.00    +0.000 A 
ATOM      6  C   UNL     1       2.153   6.632  20.736  0.00  0.00    +0.000 A 
ATOM      7  C   UNL     1       2.907   5.935  19.787  0.00  0.00    +0.000 A 
ATOM      8  C   UNL     1       3.191   6.489  18.528  0.00  0.00    +0.000 A 
ATOM      9  C   UNL     1       2.701   7.781  18.273  0.00  0.00    +0.000 A 
ATOM     10  C   UNL     1       1.925   8.488  19.212  0.00  0.00    +0.000 A 
ATOM     11  C   UNL     1       1.465   9.826  18.782  0.00  0.00    +0.000 C 
ATOM     12  O   UNL     1       2.260  10.504  18.129  0.00  0.00    +0.000 OA
ENDROOT
BRANCH   8  13
ATOM     13  C   UNL     1       3.959   5.749  17.504  0.00  0.00    +0.000 A 
ATOM     14  C   UNL     1       3.889   4.351  17.409  0.00  0.00    +0.000 A 
ATOM     15  C   UNL     1       4.617   3.655  16.436  0.00  0.00    +0.000 A 
ATOM     16  C   UNL     1       5.410   4.332  15.515  0.00  0.00    +0.000 A 
ATOM     17  C   UNL     1       5.515   5.717  15.606  0.00  0.00    +0.000 A 
ATOM     18  C   UNL     1       4.789   6.412  16.582  0.00  0.00    +0.000 A 
BRANCH  16  19
ATOM     19  O   UNL     1       6.062   3.533  14.630  0.00  0.00    +0.000 OA
BRANCH  19  20
ATOM     20  C   UNL     1       5.995   3.800  13.239  0.00  0.00    +0.000 C 
ATOM     21  F   UNL     1       6.815   4.792  12.823  0.00  0.00    +0.000 F 
ATOM     22  F   UNL     1       6.285   2.678  12.550  0.00  0.00    +0.000 F 
ATOM     23  F   UNL     1       4.727   4.162  12.934  0.00  0.00    +0.000 F 
ENDBRANCH  19  20
ENDBRANCH  16  19
ENDBRANCH   8  13
BRANCH   1  24
ATOM     24  C   UNL     1      -0.363  11.261  18.091  0.00  0.00    +0.000 C 
BRANCH  24  28
ATOM     25  C   UNL     1      -5.369  11.087  17.704  0.00  0.00    +0.000 C 
ATOM     26  N   UNL     1      -3.956  10.892  17.503  0.00  0.00    +0.000 N 
ATOM     27  C   UNL     1      -2.934  11.580  18.087  0.00  0.00    +0.000 A 
ATOM     28  C   UNL     1      -1.764  10.969  17.674  0.00  0.00    +0.000 A 
ATOM     29  C   UNL     1      -2.207   9.944  16.810  0.00  0.00    +0.000 A 
ATOM     30  N   UNL     1      -3.535   9.904  16.689  0.00  0.00    +0.000 NA
ENDBRANCH  24  28
ENDBRANCH   1  24
TORSDOF 5
ENDMDL
MODEL 2
REMARK VINA RESULT:      -8.2      0.283      1.162
REMARK  Name = 
REMARK  6 active torsions:
REMARK  status: ('A' for Active; 'I' for Inactive)
REMARK    1  A    between atoms: C_1  and  N_2
REMARK    2  A    between atoms: C_4  and  C_5
REMARK    3  A    between atoms: C_5  and  N_6
REMARK    4  A    between atoms: C_13  and  C_14
REMARK    5  A    between atoms: C_17  and  O_18
REMARK    6  A    between atoms: O_18  and  C_19
REMARK                            x       y       z     vdW  Elec       q    Type
REMARK                         _______ _______ _______ _____ _____    ______ ____
ROOT
ATOM      1  N   UNL     1       0.243  10.044  18.861  0.00  0.00    +0.000 N 
ATOM      2  C   UNL     1      -0.483   9.815  20.113  0.00  0.00    +0.000 C 
ATOM      3  C   UNL     1      -0.307   8.462  20.779  0.00  0.00    +0.000 C 
ATOM      4  O   UNL     1       1.028   8.313  21.272  0.00  0.00    +0.000 OA
ATOM      5  C   UNL     1       1.797   7.749  20.297  0.00  0.00    +0.000 A 
ATOM      6  C   UNL     1       2.329   6.490  20.575  0.00  0.00    +0.000 A 
ATOM      7  C   UNL     1       3.085   5.818  19.609  0.00  0.00    +0.000 A 
ATOM      8  C   UNL     1       3.351   6.397  18.358  0.00  0.00    +0.000 A 
ATOM      9  C   UNL     1       2.843   7.685  18.127  0.00  0.00    +0.000 A 
ATOM     10  C   UNL     1       2.065   8.367  19.083  0.00  0.00    +0.000 A 
ATOM     11  C   UNL     1       1.583   9.706  18.678  0.00  0.00    +0.000 C 
ATOM     12  O   UNL     1       2.364  10.404  18.030  0.00  0.00    +0.000 OA
ENDROOT
BRANCH   8  13
ATOM     13  C   UNL     1       4.121   5.684  17.316  0.00  0.00    +0.000 A 
ATOM     14  C   UNL     1       4.980   6.371  16.444  0.00  0.00    +0.000 A 
ATOM     15  C   UNL     1       5.708   5.692  15.460  0.00  0.00    +0.000 A 
ATOM     16  C   UNL     1       5.624   4.308  15.336  0.00  0.00    +0.000 A 
ATOM     17  C   UNL     1       4.759   3.608  16.171  0.00  0.00    +0.000 A 
ATOM     18  C   UNL     1       4.028   4.290  17.154  0.00  0.00    +0.000 A 
BRANCH  16  19
ATOM     19  O   UNL     1       6.381   3.780  14.338  0.00  0.00    +0.000 OA
BRANCH  19  20
ATOM     20  C   UNL     1       5.861   3.677  13.023  0.00  0.00    +0.000 C 
ATOM     21  F   UNL     1       5.868   2.421  12.520  0.00  0.00    +0.000 F 
ATOM     22  F   UNL     1       4.598   4.148  13.000  0.00  0.00    +0.000 F 
ATOM     23  F   UNL     1       6.612   4.450  12.205  0.00  0.00    +0.000 F 
ENDBRANCH  19  20
ENDBRANCH  16  19
ENDBRANCH   8  13
BRANCH   1  24
ATOM     24  C   UNL     1      -0.269  11.127  18.023  0.00  0.00    +0.000 C 
BRANCH  24  28
ATOM     25  C   UNL     1      -5.291  11.053  17.881  0.00  0.00    +0.000 C 
ATOM     26  N   UNL     1      -3.894  10.828  17.612  0.00  0.00    +0.000 N 
ATOM     27  C   UNL     1      -2.831  11.498  18.142  0.00  0.00    +0.000 A 
ATOM     28  C   UNL     1      -1.694  10.860  17.677  0.00  0.00    +0.000 A 
ATOM     29  C   UNL     1      -2.199   9.839  16.843  0.00  0.00    +0.000 A 
ATOM     30  N   UNL     1      -3.532   9.826  16.787  0.00  0.00    +0.000 NA
ENDBRANCH  24  28
ENDBRANCH   1  24
TORSDOF 5
ENDMDL
MODEL 3
REMARK VINA RESULT:      -8.1      6.012      9.508
REMARK  Name = 
REMARK  6 active torsions:
REMARK  status: ('A' for Active; 'I' for Inactive)
REMARK    1  A    between atoms: C_1  and  N_2
REMARK    2  A    between atoms: C_4  and  C_5
REMARK    3  A    between atoms: C_5  and  N_6
REMARK    4  A    between atoms: C_13  and  C_14
REMARK    5  A    between atoms: C_17  and  O_18
REMARK    6  A    between atoms: O_18  and  C_19
REMARK                            x       y       z     vdW  Elec       q    Type
REMARK                         _______ _______ _______ _____ _____    ______ ____
ROOT
ATOM      1  N   UNL     1       5.326   5.590  17.579  0.00  0.00    +0.000 N 
ATOM      2  C   UNL     1       5.503   4.177  17.922  0.00  0.00    +0.000 C 
ATOM      3  C   UNL     1       4.755   3.660  19.137  0.00  0.00    +0.000 C 
ATOM      4  O   UNL     1       3.345   3.648  18.893  0.00  0.00    +0.000 OA
ATOM      5  C   UNL     1       2.820   4.845  19.285  0.00  0.00    +0.000 A 
ATOM      6  C   UNL     1       1.906   4.809  20.336  0.00  0.00    +0.000 A 
ATOM      7  C   UNL     1       1.360   5.996  20.834  0.00  0.00    +0.000 A 
ATOM      8  C   UNL     1       1.693   7.242  20.278  0.00  0.00    +0.000 A 
ATOM      9  C   UNL     1       2.580   7.241  19.190  0.00  0.00    +0.000 A 
ATOM     10  C   UNL     1       3.151   6.054  18.688  0.00  0.00    +0.000 A 
ATOM     11  C   UNL     1       4.085   6.225  17.554  0.00  0.00    +0.000 C 
ATOM     12  O   UNL     1       3.785   7.071  16.710  0.00  0.00    +0.000 OA
ENDROOT
BRANCH   8  13
ATOM     13  C   UNL     1       1.149   8.508  20.817  0.00  0.00    +0.000 A 
ATOM     14  C   UNL     1       0.713   8.607  22.147  0.00  0.00    +0.000 A 
ATOM     15  C   UNL     1       0.200   9.807  22.653  0.00  0.00    +0.000 A 
ATOM     16  C   UNL     1       0.135  10.948  21.859  0.00  0.00    +0.000 A 
ATOM     17  C   UNL     1       0.538  10.868  20.529  0.00  0.00    +0.000 A 
ATOM     18  C   UNL     1       1.048   9.664  20.023  0.00  0.00    +0.000 A 
BRANCH  16  19
ATOM     19  O   UNL     1      -0.386  12.042  22.476  0.00  0.00    +0.000 OA
BRANCH  19  20
ATOM     20  C   UNL     1      -1.783  12.281  22.449  0.00  0.00    +0.000 C 
ATOM     21  F   UNL     1      -2.379  11.960  21.278  0.00  0.00    +0.000 F 
ATOM     22  F   UNL     1      -2.377  11.592  23.443  0.00  0.00    +0.000 F 
ATOM     23  F   UNL     1      -1.995  13.599  22.668  0.00  0.00    +0.000 F 
ENDBRANCH  19  20
ENDBRANCH  16  19
ENDBRANCH   8  13
BRANCH   1  24
ATOM     24  C   UNL     1       6.362   6.167  16.723  0.00  0.00    +0.000 C 
BRANCH  24  28
ATOM     25  C   UNL     1       8.914  10.158  18.398  0.00  0.00    +0.000 C 
ATOM     26  N   UNL     1       8.319   8.854  18.255  0.00  0.00    +0.000 N 
ATOM     27  C   UNL     1       7.382   8.467  17.343  0.00  0.00    +0.000 A 
ATOM     28  C   UNL     1       7.202   7.107  17.519  0.00  0.00    +0.000 A 
ATOM     29  C   UNL     1       8.060   6.791  18.595  0.00  0.00    +0.000 A 
ATOM     30  N   UNL     1       8.727   7.850  19.056  0.00  0.00    +0.000 NA
ENDBRANCH  24  28
ENDBRANCH   1  24
TORSDOF 5
ENDMDL
MODEL 4
REMARK VINA RESULT:      -7.9      0.595      1.150
REMARK  Name = 
REMARK  6 active torsions:
REMARK  status: ('A' for Active; 'I' for Inactive)
REMARK    1  A    between atoms: C_1  and  N_2
REMARK    2  A    between atoms: C_4  and  C_5
REMARK    3  A    between atoms: C_5  and  N_6
REMARK    4  A    between atoms: C_13  and  C_14
REMARK    5  A    between atoms: C_17  and  O_18
REMARK    6  A    between atoms: O_18  and  C_19
REMARK                            x       y       z     vdW  Elec       q    Type
REMARK                         _______ _______ _______ _____ _____    ______ ____
ROOT
ATOM      1  N   UNL     1       0.192  10.012  18.914  0.00  0.00    +0.000 N 
ATOM      2  C   UNL     1      -0.513   9.775  20.177  0.00  0.00    +0.000 C 
ATOM      3  C   UNL     1      -0.311   8.425  20.840  0.00  0.00    +0.000 C 
ATOM      4  O   UNL     1       1.032   8.291  21.314  0.00  0.00    +0.000 OA
ATOM      5  C   UNL     1       1.794   7.736  20.327  0.00  0.00    +0.000 A 
ATOM      6  C   UNL     1       2.344   6.483  20.597  0.00  0.00    +0.000 A 
ATOM      7  C   UNL     1       3.094   5.820  19.621  0.00  0.00    +0.000 A 
ATOM      8  C   UNL     1       3.335   6.401  18.365  0.00  0.00    +0.000 A 
ATOM      9  C   UNL     1       2.808   7.684  18.142  0.00  0.00    +0.000 A 
ATOM     10  C   UNL     1       2.036   8.357  19.109  0.00  0.00    +0.000 A 
ATOM     11  C   UNL     1       1.533   9.689  18.711  0.00  0.00    +0.000 C 
ATOM     12  O   UNL     1       2.297  10.397  18.051  0.00  0.00    +0.000 OA
ENDROOT
BRANCH   8  13
ATOM     13  C   UNL     1       4.098   5.697  17.312  0.00  0.00    +0.000 A 
ATOM     14  C   UNL     1       4.112   4.296  17.235  0.00  0.00    +0.000 A 
ATOM     15  C   UNL     1       4.834   3.633  16.236  0.00  0.00    +0.000 A 
ATOM     16  C   UNL     1       5.538   4.346  15.270  0.00  0.00    +0.000 A 
ATOM     17  C   UNL     1       5.560   5.735  15.341  0.00  0.00    +0.000 A 
ATOM     18  C   UNL     1       4.839   6.398  16.345  0.00  0.00    +0.000 A 
BRANCH  16  19
ATOM     19  O   UNL     1       6.196   3.577  14.362  0.00  0.00    +0.000 OA
BRANCH  19  20
ATOM     20  C   UNL     1       5.877   3.666  12.984  0.00  0.00    +0.000 C 
ATOM     21  F   UNL     1       4.619   4.092  12.731  0.00  0.00    +0.000 F 
ATOM     22  F   UNL     1       6.748   4.495  12.373  0.00  0.00    +0.000 F 
ATOM     23  F   UNL     1       6.012   2.437  12.434  0.00  0.00    +0.000 F 
ENDBRANCH  19  20
ENDBRANCH  16  19
ENDBRANCH   8  13
BRANCH   1  24
ATOM     24  C   UNL     1      -0.345  11.089  18.083  0.00  0.00    +0.000 C 
BRANCH  24  28
ATOM     25  C   UNL     1      -5.363  10.929  17.904  0.00  0.00    +0.000 C 
ATOM     26  N   UNL     1      -3.998  11.186  18.285  0.00  0.00    +0.000 N 
ATOM     27  C   UNL     1      -2.873  10.621  17.761  0.00  0.00    +0.000 A 
ATOM     28  C   UNL     1      -1.800  11.256  18.361  0.00  0.00    +0.000 A 
ATOM     29  C   UNL     1      -2.405  12.163  19.258  0.00  0.00    +0.000 A 
ATOM     30  N   UNL     1      -3.738  12.111  19.228  0.00  0.00    +0.000 NA
ENDBRANCH  24  28
ENDBRANCH   1  24
TORSDOF 5
ENDMDL
MODEL 5
REMARK VINA RESULT:      -7.8      6.187      9.590
REMARK  Name = 
REMARK  6 active torsions:
REMARK  status: ('A' for Active; 'I' for Inactive)
REMARK    1  A    between atoms: C_1  and  N_2
REMARK    2  A    between atoms: C_4  and  C_5
REMARK    3  A    between atoms: C_5  and  N_6
REMARK    4  A    between atoms: C_13  and  C_14
REMARK    5  A    between atoms: C_17  and  O_18
REMARK    6  A    between atoms: O_18  and  C_19
REMARK                            x       y       z     vdW  Elec       q    Type
REMARK                         _______ _______ _______ _____ _____    ______ ____
ROOT
ATOM      1  N   UNL     1       5.432   5.535  17.655  0.00  0.00    +0.000 N 
ATOM      2  C   UNL     1       5.621   4.139  18.058  0.00  0.00    +0.000 C 
ATOM      3  C   UNL     1       4.854   3.660  19.276  0.00  0.00    +0.000 C 
ATOM      4  O   UNL     1       3.450   3.619  19.004  0.00  0.00    +0.000 OA
ATOM      5  C   UNL     1       2.901   4.823  19.337  0.00  0.00    +0.000 A 
ATOM      6  C   UNL     1       1.964   4.815  20.369  0.00  0.00    +0.000 A 
ATOM      7  C   UNL     1       1.393   6.013  20.809  0.00  0.00    +0.000 A 
ATOM      8  C   UNL     1       1.721   7.241  20.211  0.00  0.00    +0.000 A 
ATOM      9  C   UNL     1       2.631   7.209  19.141  0.00  0.00    +0.000 A 
ATOM     10  C   UNL     1       3.227   6.012  18.699  0.00  0.00    +0.000 A 
ATOM     11  C   UNL     1       4.183   6.151  17.579  0.00  0.00    +0.000 C 
ATOM     12  O   UNL     1       3.890   6.958  16.696  0.00  0.00    +0.000 OA
ENDROOT
BRANCH   8  13
ATOM     13  C   UNL     1       1.149   8.519  20.687  0.00  0.00    +0.000 A 
ATOM     14  C   UNL     1       0.935   9.594  19.811  0.00  0.00    +0.000 A 
ATOM     15  C   UNL     1       0.392  10.801  20.266  0.00  0.00    +0.000 A 
ATOM     16  C   UNL     1       0.022  10.962  21.598  0.00  0.00    +0.000 A 
ATOM     17  C   UNL     1       0.249   9.920  22.491  0.00  0.00    +0.000 A 
ATOM     18  C   UNL     1       0.796   8.712  22.034  0.00  0.00    +0.000 A 
BRANCH  16  19
ATOM     19  O   UNL     1      -0.489  12.185  21.903  0.00  0.00    +0.000 OA
BRANCH  19  20
ATOM     20  C   UNL     1      -1.558  12.304  22.826  0.00  0.00    +0.000 C 
ATOM     21  F   UNL     1      -1.964  11.130  23.360  0.00  0.00    +0.000 F 
ATOM     22  F   UNL     1      -1.198  13.135  23.825  0.00  0.00    +0.000 F 
ATOM     23  F   UNL     1      -2.616  12.852  22.186  0.00  0.00    +0.000 F 
ENDBRANCH  19  20
ENDBRANCH  16  19
ENDBRANCH   8  13
BRANCH   1  24
ATOM     24  C   UNL     1       6.478   6.093  16.798  0.00  0.00    +0.000 C 
BRANCH  24  28
ATOM     25  C   UNL     1       8.930  10.198  18.341  0.00  0.00    +0.000 C 
ATOM     26  N   UNL     1       8.355   8.880  18.248  0.00  0.00    +0.000 N 
ATOM     27  C   UNL     1       7.453   8.434  17.328  0.00  0.00    +0.000 A 
ATOM     28  C   UNL     1       7.281   7.083  17.570  0.00  0.00    +0.000 A 
ATOM     29  C   UNL     1       8.106   6.835  18.689  0.00  0.00    +0.000 A 
ATOM     30  N   UNL     1       8.746   7.926  19.114  0.00  0.00    +0.000 NA
ENDBRANCH  24  28
ENDBRANCH   1  24
TORSDOF 5
ENDMDL
MODEL 6
REMARK VINA RESULT:      -7.8      3.005      3.976
REMARK  Name = 
REMARK  6 active torsions:
REMARK  status: ('A' for Active; 'I' for Inactive)
REMARK    1  A    between atoms: C_1  and  N_2
REMARK    2  A    between atoms: C_4  and  C_5
REMARK    3  A    between atoms: C_5  and  N_6
REMARK    4  A    between atoms: C_13  and  C_14
REMARK    5  A    between atoms: C_17  and  O_18
REMARK    6  A    between atoms: O_18  and  C_19
REMARK                            x       y       z     vdW  Elec       q    Type
REMARK                         _______ _______ _______ _____ _____    ______ ____
ROOT
ATOM      1  N   UNL     1      -1.243  12.207  19.920  0.00  0.00    +0.000 N 
ATOM      2  C   UNL     1      -1.788  12.680  21.195  0.00  0.00    +0.000 C 
ATOM      3  C   UNL     1      -1.671  11.748  22.387  0.00  0.00    +0.000 C 
ATOM      4  O   UNL     1      -0.303  11.601  22.779  0.00  0.00    +0.000 OA
ATOM      5  C   UNL     1       0.236  10.542  22.107  0.00  0.00    +0.000 A 
ATOM      6  C   UNL     1       0.653   9.461  22.883  0.00  0.00    +0.000 A 
ATOM      7  C   UNL     1       1.167   8.313  22.270  0.00  0.00    +0.000 A 
ATOM      8  C   UNL     1       1.302   8.229  20.875  0.00  0.00    +0.000 A 
ATOM      9  C   UNL     1       0.918   9.353  20.126  0.00  0.00    +0.000 A 
ATOM     10  C   UNL     1       0.383  10.509  20.727  0.00  0.00    +0.000 A 
ATOM     11  C   UNL     1       0.004  11.595  19.798  0.00  0.00    +0.000 C 
ATOM     12  O   UNL     1       0.751  11.791  18.838  0.00  0.00    +0.000 OA
ENDROOT
BRANCH   8  13
ATOM     13  C   UNL     1       1.813   7.010  20.212  0.00  0.00    +0.000 A 
ATOM     14  C   UNL     1       1.739   5.755  20.836  0.00  0.00    +0.000 A 
ATOM     15  C   UNL     1       2.223   4.603  20.205  0.00  0.00    +0.000 A 
ATOM     16  C   UNL     1       2.766   4.663  18.925  0.00  0.00    +0.000 A 
ATOM     17  C   UNL     1       2.874   5.900  18.297  0.00  0.00    +0.000 A 
ATOM     18  C   UNL     1       2.393   7.054  18.932  0.00  0.00    +0.000 A 
BRANCH  16  19
ATOM     19  O   UNL     1       3.199   3.472  18.433  0.00  0.00    +0.000 OA
BRANCH  19  20
ATOM     20  C   UNL     1       2.280   2.417  18.203  0.00  0.00    +0.000 C 
ATOM     21  F   UNL     1       2.209   1.513  19.207  0.00  0.00    +0.000 F 
ATOM     22  F   UNL     1       1.051   2.929  17.991  0.00  0.00    +0.000 F 
ATOM     23  F   UNL     1       2.659   1.757  17.084  0.00  0.00    +0.000 F 
ENDBRANCH  19  20
ENDBRANCH  16  19
ENDBRANCH   8  13
BRANCH   1  24
ATOM     24  C   UNL     1      -1.749  12.885  18.727  0.00  0.00    +0.000 C 
BRANCH  24  28
ATOM     25  C   UNL     1      -3.375   9.887  15.037  0.00  0.00    +0.000 C 
ATOM     26  N   UNL     1      -3.232  10.604  16.278  0.00  0.00    +0.000 N 
ATOM     27  C   UNL     1      -2.152  11.323  16.699  0.00  0.00    +0.000 A 
ATOM     28  C   UNL     1      -2.519  11.919  17.892  0.00  0.00    +0.000 A 
ATOM     29  C   UNL     1      -3.834  11.454  18.110  0.00  0.00    +0.000 A 
ATOM     30  N   UNL     1      -4.264  10.643  17.142  0.00  0.00    +0.000 NA
ENDBRANCH  24  28
ENDBRANCH   1  24
TORSDOF 5
ENDMDL
MODEL 7
REMARK VINA RESULT:      -7.7      2.952      3.840
REMARK  Name = 
REMARK  6 active torsions:
REMARK  status: ('A' for Active; 'I' for Inactive)
REMARK    1  A    between atoms: C_1  and  N_2
REMARK    2  A    between atoms: C_4  and  C_5
REMARK    3  A    between atoms: C_5  and  N_6
REMARK    4  A    between atoms: C_13  and  C_14
REMARK    5  A    between atoms: C_17  and  O_18
REMARK    6  A    between atoms: O_18  and  C_19
REMARK                            x       y       z     vdW  Elec       q    Type
REMARK                         _______ _______ _______ _____ _____    ______ ____
ROOT
ATOM      1  N   UNL     1      -0.846  12.031  19.495  0.00  0.00    +0.000 N 
ATOM      2  C   UNL     1      -1.381  12.560  20.753  0.00  0.00    +0.000 C 
ATOM      3  C   UNL     1      -1.316  11.655  21.969  0.00  0.00    +0.000 C 
ATOM      4  O   UNL     1       0.041  11.457  22.378  0.00  0.00    +0.000 OA
ATOM      5  C   UNL     1       0.538  10.359  21.738  0.00  0.00    +0.000 A 
ATOM      6  C   UNL     1       0.900   9.281  22.544  0.00  0.00    +0.000 A 
ATOM      7  C   UNL     1       1.369   8.097  21.966  0.00  0.00    +0.000 A 
ATOM      8  C   UNL     1       1.513   7.971  20.575  0.00  0.00    +0.000 A 
ATOM      9  C   UNL     1       1.185   9.091  19.794  0.00  0.00    +0.000 A 
ATOM     10  C   UNL     1       0.696  10.284  20.361  0.00  0.00    +0.000 A 
ATOM     11  C   UNL     1       0.373  11.362  19.401  0.00  0.00    +0.000 C 
ATOM     12  O   UNL     1       1.138  11.501  18.444  0.00  0.00    +0.000 OA
ENDROOT
BRANCH   8  13
ATOM     13  C   UNL     1       1.975   6.714  19.948  0.00  0.00    +0.000 A 
ATOM     14  C   UNL     1       2.616   6.714  18.700  0.00  0.00    +0.000 A 
ATOM     15  C   UNL     1       3.054   5.522  18.111  0.00  0.00    +0.000 A 
ATOM     16  C   UNL     1       2.891   4.301  18.761  0.00  0.00    +0.000 A 
ATOM     17  C   UNL     1       2.235   4.273  19.987  0.00  0.00    +0.000 A 
ATOM     18  C   UNL     1       1.794   5.468  20.574  0.00  0.00    +0.000 A 
BRANCH  16  19
ATOM     19  O   UNL     1       3.359   3.225  18.075  0.00  0.00    +0.000 OA
BRANCH  19  20
ATOM     20  C   UNL     1       3.434   1.955  18.700  0.00  0.00    +0.000 C 
ATOM     21  F   UNL     1       3.915   0.972  17.905  0.00  0.00    +0.000 F 
ATOM     22  F   UNL     1       4.206   2.041  19.801  0.00  0.00    +0.000 F 
ATOM     23  F   UNL     1       2.189   1.595  19.088  0.00  0.00    +0.000 F 
ENDBRANCH  19  20
ENDBRANCH  16  19
ENDBRANCH   8  13
BRANCH   1  24
ATOM     24  C   UNL     1      -1.311  12.700  18.280  0.00  0.00    +0.000 C 
BRANCH  24  28
ATOM     25  C   UNL     1      -3.811   9.969  14.884  0.00  0.00    +0.000 C 
ATOM     26  N   UNL     1      -3.392  10.633  16.092  0.00  0.00    +0.000 N 
ATOM     27  C   UNL     1      -2.196  11.242  16.330  0.00  0.00    +0.000 A 
ATOM     28  C   UNL     1      -2.297  11.831  17.578  0.00  0.00    +0.000 A 
ATOM     29  C   UNL     1      -3.593  11.476  18.013  0.00  0.00    +0.000 A 
ATOM     30  N   UNL     1      -4.254  10.735  17.122  0.00  0.00    +0.000 NA
ENDBRANCH  24  28
ENDBRANCH   1  24
TORSDOF 5
ENDMDL
MODEL 8
REMARK VINA RESULT:      -7.7      2.574      3.794
REMARK  Name = 
REMARK  6 active torsions:
REMARK  status: ('A' for Active; 'I' for Inactive)
REMARK    1  A    between atoms: C_1  and  N_2
REMARK    2  A    between atoms: C_4  and  C_5
REMARK    3  A    between atoms: C_5  and  N_6
REMARK    4  A    between atoms: C_13  and  C_14
REMARK    5  A    between atoms: C_17  and  O_18
REMARK    6  A    between atoms: O_18  and  C_19
REMARK                            x       y       z     vdW  Elec       q    Type
REMARK                         _______ _______ _______ _____ _____    ______ ____
ROOT
ATOM      1  N   UNL     1      -1.938  12.343  20.708  0.00  0.00    +0.000 N 
ATOM      2  C   UNL     1      -2.409  12.532  22.083  0.00  0.00    +0.000 C 
ATOM      3  C   UNL     1      -2.048  11.458  23.092  0.00  0.00    +0.000 C 
ATOM      4  O   UNL     1      -0.640  11.456  23.345  0.00  0.00    +0.000 OA
ATOM      5  C   UNL     1      -0.036  10.603  22.468  0.00  0.00    +0.000 A 
ATOM      6  C   UNL     1       0.598   9.491  23.020  0.00  0.00    +0.000 A 
ATOM      7  C   UNL     1       1.195   8.538  22.188  0.00  0.00    +0.000 A 
ATOM      8  C   UNL     1       1.198   8.687  20.792  0.00  0.00    +0.000 A 
ATOM      9  C   UNL     1       0.594   9.842  20.270  0.00  0.00    +0.000 A 
ATOM     10  C   UNL     1      -0.027  10.801  21.094  0.00  0.00    +0.000 A 
ATOM     11  C   UNL     1      -0.640  11.948  20.389  0.00  0.00    +0.000 C 
ATOM     12  O   UNL     1      -0.026  12.395  19.418  0.00  0.00    +0.000 OA
ENDROOT
BRANCH   8  13
ATOM     13  C   UNL     1       1.797   7.671  19.900  0.00  0.00    +0.000 A 
ATOM     14  C   UNL     1       2.307   8.017  18.639  0.00  0.00    +0.000 A 
ATOM     15  C   UNL     1       2.874   7.052  17.798  0.00  0.00    +0.000 A 
ATOM     16  C   UNL     1       2.976   5.723  18.200  0.00  0.00    +0.000 A 
ATOM     17  C   UNL     1       2.454   5.352  19.435  0.00  0.00    +0.000 A 
ATOM     18  C   UNL     1       1.883   6.318  20.275  0.00  0.00    +0.000 A 
BRANCH  16  19
ATOM     19  O   UNL     1       3.545   4.894  17.285  0.00  0.00    +0.000 OA
BRANCH  19  20
ATOM     20  C   UNL     1       4.802   4.294  17.547  0.00  0.00    +0.000 C 
ATOM     21  F   UNL     1       5.522   4.006  16.439  0.00  0.00    +0.000 F 
ATOM     22  F   UNL     1       5.531   5.105  18.340  0.00  0.00    +0.000 F 
ATOM     23  F   UNL     1       4.593   3.135  18.213  0.00  0.00    +0.000 F 
ENDBRANCH  19  20
ENDBRANCH  16  19
ENDBRANCH   8  13
BRANCH   1  24
ATOM     24  C   UNL     1      -2.648  13.111  19.686  0.00  0.00    +0.000 C 
BRANCH  24  28
ATOM     25  C   UNL     1      -6.868  10.578  18.676  0.00  0.00    +0.000 C 
ATOM     26  N   UNL     1      -5.547  11.151  18.616  0.00  0.00    +0.000 N 
ATOM     27  C   UNL     1      -5.026  12.115  19.427  0.00  0.00    +0.000 A 
ATOM     28  C   UNL     1      -3.699  12.260  19.061  0.00  0.00    +0.000 A 
ATOM     29  C   UNL     1      -3.546  11.352  17.990  0.00  0.00    +0.000 A 
ATOM     30  N   UNL     1      -4.668  10.690  17.706  0.00  0.00    +0.000 NA
ENDBRANCH  24  28
ENDBRANCH   1  24
TORSDOF 5
ENDMDL
MODEL 9
REMARK VINA RESULT:      -7.7      2.969      3.735
REMARK  Name = 
REMARK  6 active torsions:
REMARK  status: ('A' for Active; 'I' for Inactive)
REMARK    1  A    between atoms: C_1  and  N_2
REMARK    2  A    between atoms: C_4  and  C_5
REMARK    3  A    between atoms: C_5  and  N_6
REMARK    4  A    between atoms: C_13  and  C_14
REMARK    5  A    between atoms: C_17  and  O_18
REMARK    6  A    between atoms: O_18  and  C_19
REMARK                            x       y       z     vdW  Elec       q    Type
REMARK                         _______ _______ _______ _____ _____    ______ ____
ROOT
ATOM      1  N   UNL     1      -1.083  11.927  19.426  0.00  0.00    +0.000 N 
ATOM      2  C   UNL     1      -1.690  12.462  20.648  0.00  0.00    +0.000 C 
ATOM      3  C   UNL     1      -1.590  11.612  21.901  0.00  0.00    +0.000 C 
ATOM      4  O   UNL     1      -0.234  11.533  22.349  0.00  0.00    +0.000 OA
ATOM      5  C   UNL     1       0.360  10.451  21.767  0.00  0.00    +0.000 A 
ATOM      6  C   UNL     1       0.779   9.435  22.625  0.00  0.00    +0.000 A 
ATOM      7  C   UNL     1       1.349   8.267  22.106  0.00  0.00    +0.000 A 
ATOM      8  C   UNL     1       1.539   8.099  20.725  0.00  0.00    +0.000 A 
ATOM      9  C   UNL     1       1.150   9.161  19.892  0.00  0.00    +0.000 A 
ATOM     10  C   UNL     1       0.559  10.335  20.398  0.00  0.00    +0.000 A 
ATOM     11  C   UNL     1       0.184  11.348  19.388  0.00  0.00    +0.000 C 
ATOM     12  O   UNL     1       0.961  11.506  18.445  0.00  0.00    +0.000 OA
ENDROOT
BRANCH   8  13
ATOM     13  C   UNL     1       2.109   6.857  20.161  0.00  0.00    +0.000 A 
ATOM     14  C   UNL     1       2.109   5.658  20.889  0.00  0.00    +0.000 A 
ATOM     15  C   UNL     1       2.649   4.483  20.351  0.00  0.00    +0.000 A 
ATOM     16  C   UNL     1       3.177   4.464  19.064  0.00  0.00    +0.000 A 
ATOM     17  C   UNL     1       3.212   5.647  18.332  0.00  0.00    +0.000 A 
ATOM     18  C   UNL     1       2.674   6.823  18.874  0.00  0.00    +0.000 A 
BRANCH  16  19
ATOM     19  O   UNL     1       3.669   3.260  18.669  0.00  0.00    +0.000 OA
BRANCH  19  20
ATOM     20  C   UNL     1       2.791   2.234  18.237  0.00  0.00    +0.000 C 
ATOM     21  F   UNL     1       1.785   2.662  17.441  0.00  0.00    +0.000 F 
ATOM     22  F   UNL     1       3.492   1.288  17.581  0.00  0.00    +0.000 F 
ATOM     23  F   UNL     1       2.233   1.661  19.329  0.00  0.00    +0.000 F 
ENDBRANCH  19  20
ENDBRANCH  16  19
ENDBRANCH   8  13
BRANCH   1  24
ATOM     24  C   UNL     1      -1.564  12.511  18.174  0.00  0.00    +0.000 C 
BRANCH  24  28
ATOM     25  C   UNL     1      -3.768   9.922  14.475  0.00  0.00    +0.000 C 
ATOM     26  N   UNL     1      -3.184  10.321  15.730  0.00  0.00    +0.000 N 
ATOM     27  C   UNL     1      -2.478  11.458  15.991  0.00  0.00    +0.000 A 
ATOM     28  C   UNL     1      -2.220  11.457  17.350  0.00  0.00    +0.000 A 
ATOM     29  C   UNL     1      -2.789  10.245  17.798  0.00  0.00    +0.000 A 
ATOM     30  N   UNL     1      -3.360   9.545  16.817  0.00  0.00    +0.000 NA
ENDBRANCH  24  28
ENDBRANCH   1  24
TORSDOF 5
ENDMDL
