MODEL 1
REMARK VINA RESULT:      -6.9      0.000      0.000
REMARK  Name = 
REMARK  4 active torsions:
REMARK  status: ('A' for Active; 'I' for Inactive)
REMARK    1  A    between atoms: C_1  and  C_2
REMARK    2  A    between atoms: C_5  and  C_6
REMARK    3  A    between atoms: C_6  and  N_7
REMARK    4  A    between atoms: C_12  and  C_13
REMARK                            x       y       z     vdW  Elec       q    Type
REMARK                         _______ _______ _______ _____ _____    ______ ____
ROOT
ATOM      1  N   UNL     1       5.198   5.060  18.376  0.00  0.00    +0.000 NA
ATOM      2  C   UNL     1       4.639   6.259  17.731  0.00  0.00    +0.000 C 
ATOM      3  C   UNL     1       3.281   6.750  18.244  0.00  0.00    +0.000 C 
ATOM      4  O   UNL     1       2.258   5.876  17.783  0.00  0.00    +0.000 OA
ATOM      5  C   UNL     1       1.912   4.838  18.688  0.00  0.00    +0.000 C 
ATOM      6  C   UNL     1       3.070   4.152  19.437  0.00  0.00    +0.000 C 
ATOM      7  C   UNL     1       4.291   3.914  18.517  0.00  0.00    +0.000 C 
ENDROOT
BRANCH   6   8
ATOM      8  C   UNL     1       2.579   2.787  19.980  0.00  0.00    +0.000 C 
ATOM      9  C   UNL     1       1.056   2.561  20.219  0.00  0.00    +0.000 C 
ATOM     10  C   UNL     1       1.278   2.844  21.712  0.00  0.00    +0.000 C 
ATOM     11  C   UNL     1       2.765   2.516  21.504  0.00  0.00    +0.000 C 
ENDBRANCH   6   8
BRANCH   1  12
ATOM     12  C   UNL     1       6.504   4.675  17.798  0.00  0.00    +0.000 C 
BRANCH  12  17
ATOM     13  C   UNL     1       7.111   4.377  12.110  0.00  0.00    +0.000 C 
ATOM     14  C   UNL     1       6.928   4.474  13.594  0.00  0.00    +0.000 A 
ATOM     15  N   UNL     1       7.628   5.416  14.253  0.00  0.00    +0.000 NA
ATOM     16  C   UNL     1       7.457   5.455  15.592  0.00  0.00    +0.000 A 
ATOM     17  C   UNL     1       6.624   4.614  16.300  0.00  0.00    +0.000 A 
ATOM     18  C   UNL     1       5.952   3.697  15.519  0.00  0.00    +0.000 A 
ATOM     19  N   UNL     1       6.088   3.604  14.178  0.00  0.00    +0.000 NA
ENDBRANCH  12  17
ENDBRANCH   1  12
TORSDOF 3
ENDMDL
MODEL 2
REMARK VINA RESULT:      -6.8      0.105      1.082
REMARK  Name = 
REMARK  4 active torsions:
REMARK  status: ('A' for Active; 'I' for Inactive)
REMARK    1  A    between atoms: C_1  and  C_2
REMARK    2  A    between atoms: C_5  and  C_6
REMARK    3  A    between atoms: C_6  and  N_7
REMARK    4  A    between atoms: C_12  and  C_13
REMARK                            x       y       z     vdW  Elec       q    Type
REMARK                         _______ _______ _______ _____ _____    ______ ____
ROOT
ATOM      1  N   UNL     1       5.280   5.111  18.402  0.00  0.00    +0.000 NA
ATOM      2  C   UNL     1       4.713   6.294  17.734  0.00  0.00    +0.000 C 
ATOM      3  C   UNL     1       3.341   6.771  18.222  0.00  0.00    +0.000 C 
ATOM      4  O   UNL     1       2.338   5.877  17.758  0.00  0.00    +0.000 OA
ATOM      5  C   UNL     1       1.993   4.846  18.671  0.00  0.00    +0.000 C 
ATOM      6  C   UNL     1       3.150   4.186  19.445  0.00  0.00    +0.000 C 
ATOM      7  C   UNL     1       4.388   3.954  18.545  0.00  0.00    +0.000 C 
ENDROOT
BRANCH   6   8
ATOM      8  C   UNL     1       2.671   2.821  19.999  0.00  0.00    +0.000 C 
ATOM      9  C   UNL     1       1.144   2.534  20.113  0.00  0.00    +0.000 C 
ATOM     10  C   UNL     1       1.220   2.883  21.607  0.00  0.00    +0.000 C 
ATOM     11  C   UNL     1       2.732   2.616  21.543  0.00  0.00    +0.000 C 
ENDBRANCH   6   8
BRANCH   1  12
ATOM     12  C   UNL     1       6.599   4.739  17.848  0.00  0.00    +0.000 C 
BRANCH  12  17
ATOM     13  C   UNL     1       6.953   4.355  12.144  0.00  0.00    +0.000 C 
ATOM     14  C   UNL     1       6.885   4.436  13.638  0.00  0.00    +0.000 A 
ATOM     15  N   UNL     1       6.066   3.579  14.277  0.00  0.00    +0.000 NA
ATOM     16  C   UNL     1       6.011   3.701  15.621  0.00  0.00    +0.000 A 
ATOM     17  C   UNL     1       6.731   4.620  16.354  0.00  0.00    +0.000 A 
ATOM     18  C   UNL     1       7.542   5.437  15.594  0.00  0.00    +0.000 A 
ATOM     19  N   UNL     1       7.633   5.370  14.248  0.00  0.00    +0.000 NA
ENDBRANCH  12  17
ENDBRANCH   1  12
TORSDOF 3
ENDMDL
MODEL 3
REMARK VINA RESULT:      -6.7      1.834      3.713
REMARK  Name = 
REMARK  4 active torsions:
REMARK  status: ('A' for Active; 'I' for Inactive)
REMARK    1  A    between atoms: C_1  and  C_2
REMARK    2  A    between atoms: C_5  and  C_6
REMARK    3  A    between atoms: C_6  and  N_7
REMARK    4  A    between atoms: C_12  and  C_13
REMARK                            x       y       z     vdW  Elec       q    Type
REMARK                         _______ _______ _______ _____ _____    ______ ____
ROOT
ATOM      1  N   UNL     1       3.886   4.447  18.867  0.00  0.00    +0.000 NA
ATOM      2  C   UNL     1       3.149   3.452  19.662  0.00  0.00    +0.000 C 
ATOM      3  C   UNL     1       1.688   3.777  19.992  0.00  0.00    +0.000 C 
ATOM      4  O   UNL     1       1.644   4.788  20.991  0.00  0.00    +0.000 OA
ATOM      5  C   UNL     1       1.534   6.112  20.491  0.00  0.00    +0.000 C 
ATOM      6  C   UNL     1       2.374   6.459  19.247  0.00  0.00    +0.000 C 
ATOM      7  C   UNL     1       3.791   5.841  19.317  0.00  0.00    +0.000 C 
ENDROOT
BRANCH   6   8
ATOM      8  C   UNL     1       2.503   7.998  19.140  0.00  0.00    +0.000 C 
ATOM      9  C   UNL     1       1.281   8.896  19.495  0.00  0.00    +0.000 C 
ATOM     10  C   UNL     1       0.976   9.023  17.995  0.00  0.00    +0.000 C 
ATOM     11  C   UNL     1       2.433   8.624  17.715  0.00  0.00    +0.000 C 
ENDBRANCH   6   8
BRANCH   1  12
ATOM     12  C   UNL     1       5.283   4.032  18.614  0.00  0.00    +0.000 C 
BRANCH  12  17
ATOM     13  C   UNL     1       7.340   4.955  13.348  0.00  0.00    +0.000 C 
ATOM     14  C   UNL     1       6.810   4.684  14.723  0.00  0.00    +0.000 A 
ATOM     15  N   UNL     1       5.497   4.411  14.846  0.00  0.00    +0.000 NA
ATOM     16  C   UNL     1       5.051   4.199  16.103  0.00  0.00    +0.000 A 
ATOM     17  C   UNL     1       5.842   4.236  17.233  0.00  0.00    +0.000 A 
ATOM     18  C   UNL     1       7.170   4.515  16.982  0.00  0.00    +0.000 A 
ATOM     19  N   UNL     1       7.674   4.745  15.749  0.00  0.00    +0.000 NA
ENDBRANCH  12  17
ENDBRANCH   1  12
TORSDOF 3
ENDMDL
MODEL 4
REMARK VINA RESULT:      -6.7      0.738      1.030
REMARK  Name = 
REMARK  4 active torsions:
REMARK  status: ('A' for Active; 'I' for Inactive)
REMARK    1  A    between atoms: C_1  and  C_2
REMARK    2  A    between atoms: C_5  and  C_6
REMARK    3  A    between atoms: C_6  and  N_7
REMARK    4  A    between atoms: C_12  and  C_13
REMARK                            x       y       z     vdW  Elec       q    Type
REMARK                         _______ _______ _______ _____ _____    ______ ____
ROOT
ATOM      1  N   UNL     1       5.147   5.574  18.520  0.00  0.00    +0.000 NA
ATOM      2  C   UNL     1       4.617   6.572  17.577  0.00  0.00    +0.000 C 
ATOM      3  C   UNL     1       3.357   7.330  18.009  0.00  0.00    +0.000 C 
ATOM      4  O   UNL     1       2.232   6.466  17.916  0.00  0.00    +0.000 OA
ATOM      5  C   UNL     1       1.901   5.791  19.121  0.00  0.00    +0.000 C 
ATOM      6  C   UNL     1       3.073   5.250  19.960  0.00  0.00    +0.000 C 
ATOM      7  C   UNL     1       4.176   4.622  19.074  0.00  0.00    +0.000 C 
ENDROOT
BRANCH   6   8
ATOM      8  C   UNL     1       2.539   4.170  20.934  0.00  0.00    +0.000 C 
ATOM      9  C   UNL     1       2.997   2.691  20.764  0.00  0.00    +0.000 C 
ATOM     10  C   UNL     1       1.676   2.396  20.038  0.00  0.00    +0.000 C 
ATOM     11  C   UNL     1       1.088   3.652  20.700  0.00  0.00    +0.000 C 
ENDBRANCH   6   8
BRANCH   1  12
ATOM     12  C   UNL     1       6.357   4.903  17.998  0.00  0.00    +0.000 C 
BRANCH  12  17
ATOM     13  C   UNL     1       6.958   4.128  12.354  0.00  0.00    +0.000 C 
ATOM     14  C   UNL     1       6.777   4.350  13.825  0.00  0.00    +0.000 A 
ATOM     15  N   UNL     1       7.501   5.324  14.407  0.00  0.00    +0.000 NA
ATOM     16  C   UNL     1       7.331   5.475  15.738  0.00  0.00    +0.000 A 
ATOM     17  C   UNL     1       6.476   4.717  16.510  0.00  0.00    +0.000 A 
ATOM     18  C   UNL     1       5.780   3.758  15.804  0.00  0.00    +0.000 A 
ATOM     19  N   UNL     1       5.914   3.552  14.475  0.00  0.00    +0.000 NA
ENDBRANCH  12  17
ENDBRANCH   1  12
TORSDOF 3
ENDMDL
MODEL 5
REMARK VINA RESULT:      -6.7      0.765      1.506
REMARK  Name = 
REMARK  4 active torsions:
REMARK  status: ('A' for Active; 'I' for Inactive)
REMARK    1  A    between atoms: C_1  and  C_2
REMARK    2  A    between atoms: C_5  and  C_6
REMARK    3  A    between atoms: C_6  and  N_7
REMARK    4  A    between atoms: C_12  and  C_13
REMARK                            x       y       z     vdW  Elec       q    Type
REMARK                         _______ _______ _______ _____ _____    ______ ____
ROOT
ATOM      1  N   UNL     1       5.135   5.595  18.580  0.00  0.00    +0.000 NA
ATOM      2  C   UNL     1       4.624   6.573  17.606  0.00  0.00    +0.000 C 
ATOM      3  C   UNL     1       3.346   7.326  17.989  0.00  0.00    +0.000 C 
ATOM      4  O   UNL     1       2.231   6.449  17.878  0.00  0.00    +0.000 OA
ATOM      5  C   UNL     1       1.871   5.791  19.083  0.00  0.00    +0.000 C 
ATOM      6  C   UNL     1       3.023   5.274  19.964  0.00  0.00    +0.000 C 
ATOM      7  C   UNL     1       4.157   4.643  19.121  0.00  0.00    +0.000 C 
ENDROOT
BRANCH   6   8
ATOM      8  C   UNL     1       2.470   4.205  20.940  0.00  0.00    +0.000 C 
ATOM      9  C   UNL     1       2.957   2.730  20.816  0.00  0.00    +0.000 C 
ATOM     10  C   UNL     1       1.669   2.400  20.048  0.00  0.00    +0.000 C 
ATOM     11  C   UNL     1       1.037   3.659  20.663  0.00  0.00    +0.000 C 
ENDBRANCH   6   8
BRANCH   1  12
ATOM     12  C   UNL     1       6.366   4.927  18.105  0.00  0.00    +0.000 C 
BRANCH  12  17
ATOM     13  C   UNL     1       6.801   4.115  12.451  0.00  0.00    +0.000 C 
ATOM     14  C   UNL     1       6.711   4.307  13.934  0.00  0.00    +0.000 A 
ATOM     15  N   UNL     1       5.839   3.540  14.615  0.00  0.00    +0.000 NA
ATOM     16  C   UNL     1       5.766   3.761  15.945  0.00  0.00    +0.000 A 
ATOM     17  C   UNL     1       6.518   4.695  16.626  0.00  0.00    +0.000 A 
ATOM     18  C   UNL     1       7.383   5.414  15.827  0.00  0.00    +0.000 A 
ATOM     19  N   UNL     1       7.494   5.245  14.492  0.00  0.00    +0.000 NA
ENDBRANCH  12  17
ENDBRANCH   1  12
TORSDOF 3
ENDMDL
MODEL 6
REMARK VINA RESULT:      -6.7      1.762      3.524
REMARK  Name = 
REMARK  4 active torsions:
REMARK  status: ('A' for Active; 'I' for Inactive)
REMARK    1  A    between atoms: C_1  and  C_2
REMARK    2  A    between atoms: C_5  and  C_6
REMARK    3  A    between atoms: C_6  and  N_7
REMARK    4  A    between atoms: C_12  and  C_13
REMARK                            x       y       z     vdW  Elec       q    Type
REMARK                         _______ _______ _______ _____ _____    ______ ____
ROOT
ATOM      1  N   UNL     1       4.019   4.484  18.724  0.00  0.00    +0.000 NA
ATOM      2  C   UNL     1       3.332   3.449  19.513  0.00  0.00    +0.000 C 
ATOM      3  C   UNL     1       1.872   3.724  19.889  0.00  0.00    +0.000 C 
ATOM      4  O   UNL     1       1.825   4.710  20.912  0.00  0.00    +0.000 OA
ATOM      5  C   UNL     1       1.664   6.041  20.447  0.00  0.00    +0.000 C 
ATOM      6  C   UNL     1       2.461   6.441  19.191  0.00  0.00    +0.000 C 
ATOM      7  C   UNL     1       3.897   5.863  19.210  0.00  0.00    +0.000 C 
ENDROOT
BRANCH   6   8
ATOM      8  C   UNL     1       2.543   7.986  19.117  0.00  0.00    +0.000 C 
ATOM      9  C   UNL     1       1.304   8.839  19.521  0.00  0.00    +0.000 C 
ATOM     10  C   UNL     1       0.961   8.991  18.032  0.00  0.00    +0.000 C 
ATOM     11  C   UNL     1       2.422   8.641  17.709  0.00  0.00    +0.000 C 
ENDBRANCH   6   8
BRANCH   1  12
ATOM     12  C   UNL     1       5.420   4.116  18.425  0.00  0.00    +0.000 C 
BRANCH  12  17
ATOM     13  C   UNL     1       7.556   5.088  13.200  0.00  0.00    +0.000 C 
ATOM     14  C   UNL     1       6.975   4.855  14.561  0.00  0.00    +0.000 A 
ATOM     15  N   UNL     1       7.481   5.562  15.589  0.00  0.00    +0.000 NA
ATOM     16  C   UNL     1       6.951   5.304  16.804  0.00  0.00    +0.000 A 
ATOM     17  C   UNL     1       5.945   4.392  17.043  0.00  0.00    +0.000 A 
ATOM     18  C   UNL     1       5.499   3.737  15.914  0.00  0.00    +0.000 A 
ATOM     19  N   UNL     1       5.995   3.944  14.674  0.00  0.00    +0.000 NA
ENDBRANCH  12  17
ENDBRANCH   1  12
TORSDOF 3
ENDMDL
MODEL 7
REMARK VINA RESULT:      -6.5      3.408      7.293
REMARK  Name = 
REMARK  4 active torsions:
REMARK  status: ('A' for Active; 'I' for Inactive)
REMARK    1  A    between atoms: C_1  and  C_2
REMARK    2  A    between atoms: C_5  and  C_6
REMARK    3  A    between atoms: C_6  and  N_7
REMARK    4  A    between atoms: C_12  and  C_13
REMARK                            x       y       z     vdW  Elec       q    Type
REMARK                         _______ _______ _______ _____ _____    ______ ____
ROOT
ATOM      1  N   UNL     1       3.116   6.524  18.188  0.00  0.00    +0.000 NA
ATOM      2  C   UNL     1       2.105   5.459  18.096  0.00  0.00    +0.000 C 
ATOM      3  C   UNL     1       2.607   4.018  18.234  0.00  0.00    +0.000 C 
ATOM      4  O   UNL     1       3.290   3.640  17.046  0.00  0.00    +0.000 OA
ATOM      5  C   UNL     1       4.696   3.837  17.081  0.00  0.00    +0.000 C 
ATOM      6  C   UNL     1       5.200   5.134  17.741  0.00  0.00    +0.000 C 
ATOM      7  C   UNL     1       4.321   6.351  17.368  0.00  0.00    +0.000 C 
ENDROOT
BRANCH   6   8
ATOM      8  C   UNL     1       6.653   5.403  17.275  0.00  0.00    +0.000 C 
ATOM      9  C   UNL     1       7.834   5.131  18.254  0.00  0.00    +0.000 C 
ATOM     10  C   UNL     1       7.876   6.633  18.574  0.00  0.00    +0.000 C 
ATOM     11  C   UNL     1       7.132   6.886  17.253  0.00  0.00    +0.000 C 
ENDBRANCH   6   8
BRANCH   1  12
ATOM     12  C   UNL     1       2.521   7.870  18.036  0.00  0.00    +0.000 C 
BRANCH  12  17
ATOM     13  C   UNL     1      -0.205  10.115  22.546  0.00  0.00    +0.000 C 
ATOM     14  C   UNL     1       0.482   9.512  21.358  0.00  0.00    +0.000 A 
ATOM     15  N   UNL     1       1.176   8.374  21.546  0.00  0.00    +0.000 NA
ATOM     16  C   UNL     1       1.804   7.876  20.458  0.00  0.00    +0.000 A 
ATOM     17  C   UNL     1       1.768   8.446  19.203  0.00  0.00    +0.000 A 
ATOM     18  C   UNL     1       1.019   9.602  19.130  0.00  0.00    +0.000 A 
ATOM     19  N   UNL     1       0.376  10.154  20.183  0.00  0.00    +0.000 NA
ENDBRANCH  12  17
ENDBRANCH   1  12
TORSDOF 3
ENDMDL
MODEL 8
REMARK VINA RESULT:      -6.5      4.879      7.485
REMARK  Name = 
REMARK  4 active torsions:
REMARK  status: ('A' for Active; 'I' for Inactive)
REMARK    1  A    between atoms: C_1  and  C_2
REMARK    2  A    between atoms: C_5  and  C_6
REMARK    3  A    between atoms: C_6  and  N_7
REMARK    4  A    between atoms: C_12  and  C_13
REMARK                            x       y       z     vdW  Elec       q    Type
REMARK                         _______ _______ _______ _____ _____    ______ ____
ROOT
ATOM      1  N   UNL     1       1.137   8.466  20.518  0.00  0.00    +0.000 NA
ATOM      2  C   UNL     1       1.302   8.816  21.938  0.00  0.00    +0.000 C 
ATOM      3  C   UNL     1       0.191   9.654  22.576  0.00  0.00    +0.000 C 
ATOM      4  O   UNL     1       0.283  10.994  22.110  0.00  0.00    +0.000 OA
ATOM      5  C   UNL     1      -0.527  11.287  20.981  0.00  0.00    +0.000 C 
ATOM      6  C   UNL     1      -0.598  10.214  19.879  0.00  0.00    +0.000 C 
ATOM      7  C   UNL     1       0.782   9.566  19.613  0.00  0.00    +0.000 C 
ENDROOT
BRANCH   6   8
ATOM      8  C   UNL     1      -1.103  10.871  18.570  0.00  0.00    +0.000 C 
ATOM      9  C   UNL     1      -2.576  11.372  18.482  0.00  0.00    +0.000 C 
ATOM     10  C   UNL     1      -2.939  10.081  17.733  0.00  0.00    +0.000 C 
ATOM     11  C   UNL     1      -1.451   9.923  17.383  0.00  0.00    +0.000 C 
ENDBRANCH   6   8
BRANCH   1  12
ATOM     12  C   UNL     1       2.269   7.663  20.007  0.00  0.00    +0.000 C 
BRANCH  12  17
ATOM     13  C   UNL     1       1.153   2.185  18.757  0.00  0.00    +0.000 C 
ATOM     14  C   UNL     1       1.475   3.610  19.091  0.00  0.00    +0.000 A 
ATOM     15  N   UNL     1       1.234   4.030  20.347  0.00  0.00    +0.000 NA
ATOM     16  C   UNL     1       1.510   5.327  20.602  0.00  0.00    +0.000 A 
ATOM     17  C   UNL     1       2.018   6.217  19.678  0.00  0.00    +0.000 A 
ATOM     18  C   UNL     1       2.234   5.671  18.430  0.00  0.00    +0.000 A 
ATOM     19  N   UNL     1       1.969   4.385  18.111  0.00  0.00    +0.000 NA
ENDBRANCH  12  17
ENDBRANCH   1  12
TORSDOF 3
ENDMDL
MODEL 9
REMARK VINA RESULT:      -6.5      3.096      5.876
REMARK  Name = 
REMARK  4 active torsions:
REMARK  status: ('A' for Active; 'I' for Inactive)
REMARK    1  A    between atoms: C_1  and  C_2
REMARK    2  A    between atoms: C_5  and  C_6
REMARK    3  A    between atoms: C_6  and  N_7
REMARK    4  A    between atoms: C_12  and  C_13
REMARK                            x       y       z     vdW  Elec       q    Type
REMARK                         _______ _______ _______ _____ _____    ______ ____
ROOT
ATOM      1  N   UNL     1       3.394   6.050  17.534  0.00  0.00    +0.000 NA
ATOM      2  C   UNL     1       4.573   5.476  16.866  0.00  0.00    +0.000 C 
ATOM      3  C   UNL     1       4.470   4.014  16.419  0.00  0.00    +0.000 C 
ATOM      4  O   UNL     1       4.550   3.166  17.558  0.00  0.00    +0.000 OA
ATOM      5  C   UNL     1       3.296   2.794  18.110  0.00  0.00    +0.000 C 
ATOM      6  C   UNL     1       2.217   3.890  18.186  0.00  0.00    +0.000 C 
ATOM      7  C   UNL     1       2.808   5.253  18.618  0.00  0.00    +0.000 C 
ENDROOT
BRANCH   6   8
ATOM      8  C   UNL     1       1.138   3.463  19.212  0.00  0.00    +0.000 C 
ATOM      9  C   UNL     1       0.944   4.299  20.513  0.00  0.00    +0.000 C 
ATOM     10  C   UNL     1       1.783   3.259  21.271  0.00  0.00    +0.000 C 
ATOM     11  C   UNL     1       1.474   2.260  20.144  0.00  0.00    +0.000 C 
ENDBRANCH   6   8
BRANCH   1  12
ATOM     12  C   UNL     1       3.608   7.460  17.926  0.00  0.00    +0.000 C 
BRANCH  12  17
ATOM     13  C   UNL     1      -0.772  10.505  20.012  0.00  0.00    +0.000 C 
ATOM     14  C   UNL     1       0.353   9.687  19.457  0.00  0.00    +0.000 A 
ATOM     15  N   UNL     1       0.986   8.841  20.292  0.00  0.00    +0.000 NA
ATOM     16  C   UNL     1       2.012   8.141  19.762  0.00  0.00    +0.000 A 
ATOM     17  C   UNL     1       2.431   8.234  18.451  0.00  0.00    +0.000 A 
ATOM     18  C   UNL     1       1.702   9.124  17.689  0.00  0.00    +0.000 A 
ATOM     19  N   UNL     1       0.672   9.858  18.164  0.00  0.00    +0.000 NA
ENDBRANCH  12  17
ENDBRANCH   1  12
TORSDOF 3
ENDMDL
