MODEL 1
REMARK VINA RESULT:      -7.1      0.000      0.000
REMARK  Name = 
REMARK  3 active torsions:
REMARK  status: ('A' for Active; 'I' for Inactive)
REMARK    1  A    between atoms: C_2  and  C_7
REMARK    2  A    between atoms: N_3  and  C_4
REMARK    3  A    between atoms: C_14  and  N_15
REMARK                            x       y       z     vdW  Elec       q    Type
REMARK                         _______ _______ _______ _____ _____    ______ ____
ROOT
ATOM      1  C   UNL     1       3.790   3.223  19.579  0.00  0.00    +0.000 C 
ATOM      2  C   UNL     1       2.557   2.525  20.165  0.00  0.00    +0.000 C 
ATOM      3  C   UNL     1       1.278   3.342  19.983  0.00  0.00    +0.000 C 
ATOM      4  C   UNL     1       1.422   4.782  20.485  0.00  0.00    +0.000 C 
ATOM      5  N   UNL     1       2.626   5.394  19.929  0.00  0.00    +0.000 N 
ATOM      6  C   UNL     1       2.624   6.598  19.260  0.00  0.00    +0.000 A 
ATOM      7  C   UNL     1       1.697   7.595  19.478  0.00  0.00    +0.000 A 
ATOM      8  C   UNL     1       1.753   8.699  18.642  0.00  0.00    +0.000 A 
ATOM      9  N   UNL     1       2.647   8.827  17.636  0.00  0.00    +0.000 NA
ATOM     10  C   UNL     1       3.511   7.823  17.515  0.00  0.00    +0.000 A 
ATOM     11  N   UNL     1       3.539   6.727  18.280  0.00  0.00    +0.000 NA
ATOM     12  C   UNL     1       3.894   4.662  20.088  0.00  0.00    +0.000 C 
ENDROOT
BRANCH   8  13
ATOM     13  N   UNL     1       0.839   9.764  18.840  0.00  0.00    +0.000 N 
ATOM     14  C   UNL     1       0.907  10.728  19.816  0.00  0.00    +0.000 A 
ATOM     15  N   UNL     1      -0.126  11.535  19.732  0.00  0.00    +0.000 NA
ATOM     16  C   UNL     1      -0.816  11.026  18.672  0.00  0.00    +0.000 A 
ATOM     17  N   UNL     1      -0.268   9.965  18.079  0.00  0.00    +0.000 NA
ENDBRANCH   8  13
BRANCH   1  19
ATOM     18  O   UNL     1       3.040   2.343  17.467  0.00  0.00    +0.000 OA
ATOM     19  C   UNL     1       3.836   3.073  18.056  0.00  0.00    +0.000 C 
ATOM     20  N   UNL     1       4.730   3.887  17.408  0.00  0.00    +0.000 N 
ATOM     21  H   UNL     1       5.488   4.264  17.969  0.00  0.00    +0.000 HD
BRANCH  20  22
ATOM     22  C   UNL     1       4.864   3.988  15.995  0.00  0.00    +0.000 C 
ATOM     23  C   UNL     1       5.430   5.232  15.373  0.00  0.00    +0.000 C 
ATOM     24  C   UNL     1       6.243   3.972  15.385  0.00  0.00    +0.000 C 
ENDBRANCH  20  22
ENDBRANCH   1  19
TORSDOF 3
ENDMDL
MODEL 2
REMARK VINA RESULT:      -6.2      2.666      6.250
REMARK  Name = 
REMARK  3 active torsions:
REMARK  status: ('A' for Active; 'I' for Inactive)
REMARK    1  A    between atoms: C_2  and  C_7
REMARK    2  A    between atoms: N_3  and  C_4
REMARK    3  A    between atoms: C_14  and  N_15
REMARK                            x       y       z     vdW  Elec       q    Type
REMARK                         _______ _______ _______ _____ _____    ______ ____
ROOT
ATOM      1  C   UNL     1       1.144   3.497  19.913  0.00  0.00    +0.000 C 
ATOM      2  C   UNL     1       1.727   2.141  20.327  0.00  0.00    +0.000 C 
ATOM      3  C   UNL     1       3.165   1.948  19.848  0.00  0.00    +0.000 C 
ATOM      4  C   UNL     1       3.328   2.214  18.347  0.00  0.00    +0.000 C 
ATOM      5  N   UNL     1       2.729   3.499  17.994  0.00  0.00    +0.000 N 
ATOM      6  C   UNL     1       3.403   4.486  17.310  0.00  0.00    +0.000 A 
ATOM      7  C   UNL     1       4.441   4.241  16.438  0.00  0.00    +0.000 A 
ATOM      8  C   UNL     1       5.100   5.345  15.918  0.00  0.00    +0.000 A 
ATOM      9  N   UNL     1       4.783   6.620  16.238  0.00  0.00    +0.000 NA
ATOM     10  C   UNL     1       3.755   6.756  17.073  0.00  0.00    +0.000 A 
ATOM     11  N   UNL     1       3.058   5.751  17.613  0.00  0.00    +0.000 NA
ATOM     12  C   UNL     1       1.337   3.737  18.414  0.00  0.00    +0.000 C 
ENDROOT
BRANCH   8  13
ATOM     13  N   UNL     1       6.158   5.150  14.996  0.00  0.00    +0.000 N 
ATOM     14  C   UNL     1       6.108   4.414  13.839  0.00  0.00    +0.000 A 
ATOM     15  N   UNL     1       7.281   4.412  13.248  0.00  0.00    +0.000 NA
ATOM     16  C   UNL     1       8.038   5.175  14.088  0.00  0.00    +0.000 A 
ATOM     17  N   UNL     1       7.405   5.667  15.153  0.00  0.00    +0.000 NA
ENDBRANCH   8  13
BRANCH   1  19
ATOM     18  O   UNL     1       2.384   4.371  21.783  0.00  0.00    +0.000 OA
ATOM     19  C   UNL     1       1.664   4.618  20.817  0.00  0.00    +0.000 C 
ATOM     20  N   UNL     1       1.371   5.894  20.406  0.00  0.00    +0.000 N 
ATOM     21  H   UNL     1       0.594   5.993  19.758  0.00  0.00    +0.000 HD
BRANCH  20  22
ATOM     22  C   UNL     1       1.841   7.081  21.033  0.00  0.00    +0.000 C 
ATOM     23  C   UNL     1       1.792   8.395  20.308  0.00  0.00    +0.000 C 
ATOM     24  C   UNL     1       0.847   8.138  21.443  0.00  0.00    +0.000 C 
ENDBRANCH  20  22
ENDBRANCH   1  19
TORSDOF 3
ENDMDL
MODEL 3
REMARK VINA RESULT:      -6.1      8.561     10.140
REMARK  Name = 
REMARK  3 active torsions:
REMARK  status: ('A' for Active; 'I' for Inactive)
REMARK    1  A    between atoms: C_2  and  C_7
REMARK    2  A    between atoms: N_3  and  C_4
REMARK    3  A    between atoms: C_14  and  N_15
REMARK                            x       y       z     vdW  Elec       q    Type
REMARK                         _______ _______ _______ _____ _____    ______ ____
ROOT
ATOM      1  C   UNL     1       9.828  12.736  18.183  0.00  0.00    +0.000 C 
ATOM      2  C   UNL     1      10.017  11.235  17.930  0.00  0.00    +0.000 C 
ATOM      3  C   UNL     1       9.238  10.369  18.918  0.00  0.00    +0.000 C 
ATOM      4  C   UNL     1       9.510  10.749  20.378  0.00  0.00    +0.000 C 
ATOM      5  N   UNL     1       9.351  12.189  20.564  0.00  0.00    +0.000 N 
ATOM      6  C   UNL     1       8.540  12.743  21.529  0.00  0.00    +0.000 A 
ATOM      7  C   UNL     1       8.227  12.120  22.717  0.00  0.00    +0.000 A 
ATOM      8  C   UNL     1       7.301  12.750  23.534  0.00  0.00    +0.000 A 
ATOM      9  N   UNL     1       6.696  13.915  23.212  0.00  0.00    +0.000 NA
ATOM     10  C   UNL     1       7.075  14.450  22.054  0.00  0.00    +0.000 A 
ATOM     11  N   UNL     1       7.966  13.919  21.210  0.00  0.00    +0.000 NA
ATOM     12  C   UNL     1      10.092  13.077  19.651  0.00  0.00    +0.000 C 
ENDROOT
BRANCH   8  13
ATOM     13  N   UNL     1       6.963  12.164  24.780  0.00  0.00    +0.000 N 
ATOM     14  C   UNL     1       5.955  11.262  25.011  0.00  0.00    +0.000 A 
ATOM     15  N   UNL     1       5.897  10.960  26.287  0.00  0.00    +0.000 NA
ATOM     16  C   UNL     1       6.906  11.710  26.816  0.00  0.00    +0.000 A 
ATOM     17  N   UNL     1       7.600  12.443  25.946  0.00  0.00    +0.000 NA
ENDBRANCH   8  13
BRANCH   1  19
ATOM     18  O   UNL     1       7.726  12.453  17.042  0.00  0.00    +0.000 OA
ATOM     19  C   UNL     1       8.480  13.218  17.642  0.00  0.00    +0.000 C 
ATOM     20  N   UNL     1       8.135  14.504  17.973  0.00  0.00    +0.000 N 
ATOM     21  H   UNL     1       8.895  15.119  18.250  0.00  0.00    +0.000 HD
BRANCH  20  22
ATOM     22  C   UNL     1       6.889  15.119  17.666  0.00  0.00    +0.000 C 
ATOM     23  C   UNL     1       5.657  14.774  18.453  0.00  0.00    +0.000 C 
ATOM     24  C   UNL     1       6.303  16.116  18.635  0.00  0.00    +0.000 C 
ENDBRANCH  20  22
ENDBRANCH   1  19
TORSDOF 3
ENDMDL
MODEL 4
REMARK VINA RESULT:      -6.1      7.988     11.000
REMARK  Name = 
REMARK  3 active torsions:
REMARK  status: ('A' for Active; 'I' for Inactive)
REMARK    1  A    between atoms: C_2  and  C_7
REMARK    2  A    between atoms: N_3  and  C_4
REMARK    3  A    between atoms: C_14  and  N_15
REMARK                            x       y       z     vdW  Elec       q    Type
REMARK                         _______ _______ _______ _____ _____    ______ ____
ROOT
ATOM      1  C   UNL     1      -6.649  13.624  22.578  0.00  0.00    +0.000 C 
ATOM      2  C   UNL     1      -7.916  12.765  22.484  0.00  0.00    +0.000 C 
ATOM      3  C   UNL     1      -7.750  11.575  21.541  0.00  0.00    +0.000 C 
ATOM      4  C   UNL     1      -7.224  11.983  20.161  0.00  0.00    +0.000 C 
ATOM      5  N   UNL     1      -6.039  12.826  20.301  0.00  0.00    +0.000 N 
ATOM      6  C   UNL     1      -4.846  12.567  19.665  0.00  0.00    +0.000 A 
ATOM      7  C   UNL     1      -4.745  11.877  18.477  0.00  0.00    +0.000 A 
ATOM      8  C   UNL     1      -3.466  11.588  18.023  0.00  0.00    +0.000 A 
ATOM      9  N   UNL     1      -2.344  11.933  18.693  0.00  0.00    +0.000 NA
ATOM     10  C   UNL     1      -2.542  12.611  19.820  0.00  0.00    +0.000 A 
ATOM     11  N   UNL     1      -3.734  12.942  20.327  0.00  0.00    +0.000 NA
ATOM     12  C   UNL     1      -6.143  14.001  21.184  0.00  0.00    +0.000 C 
ENDROOT
BRANCH   8  13
ATOM     13  N   UNL     1      -3.306  10.904  16.793  0.00  0.00    +0.000 N 
ATOM     14  C   UNL     1      -4.156  10.951  15.715  0.00  0.00    +0.000 A 
ATOM     15  N   UNL     1      -3.722  10.163  14.759  0.00  0.00    +0.000 NA
ATOM     16  C   UNL     1      -2.582   9.642  15.296  0.00  0.00    +0.000 A 
ATOM     17  N   UNL     1      -2.268  10.072  16.518  0.00  0.00    +0.000 NA
ENDBRANCH   8  13
BRANCH   1  19
ATOM     18  O   UNL     1      -5.925  12.089  24.286  0.00  0.00    +0.000 OA
ATOM     19  C   UNL     1      -5.607  12.969  23.486  0.00  0.00    +0.000 C 
ATOM     20  N   UNL     1      -4.306  13.343  23.261  0.00  0.00    +0.000 N 
ATOM     21  H   UNL     1      -4.167  14.221  22.769  0.00  0.00    +0.000 HD
BRANCH  20  22
ATOM     22  C   UNL     1      -3.172  12.784  23.914  0.00  0.00    +0.000 C 
ATOM     23  C   UNL     1      -2.301  11.787  23.206  0.00  0.00    +0.000 C 
ATOM     24  C   UNL     1      -1.791  13.175  23.452  0.00  0.00    +0.000 C 
ENDBRANCH  20  22
ENDBRANCH   1  19
TORSDOF 3
ENDMDL
MODEL 5
REMARK VINA RESULT:      -6.1      9.404     11.033
REMARK  Name = 
REMARK  3 active torsions:
REMARK  status: ('A' for Active; 'I' for Inactive)
REMARK    1  A    between atoms: C_2  and  C_7
REMARK    2  A    between atoms: N_3  and  C_4
REMARK    3  A    between atoms: C_14  and  N_15
REMARK                            x       y       z     vdW  Elec       q    Type
REMARK                         _______ _______ _______ _____ _____    ______ ____
ROOT
ATOM      1  C   UNL     1      11.659  12.359  18.590  0.00  0.00    +0.000 C 
ATOM      2  C   UNL     1      10.913  11.269  17.812  0.00  0.00    +0.000 C 
ATOM      3  C   UNL     1       9.487  11.058  18.317  0.00  0.00    +0.000 C 
ATOM      4  C   UNL     1       9.423  10.834  19.831  0.00  0.00    +0.000 C 
ATOM      5  N   UNL     1      10.175  11.875  20.528  0.00  0.00    +0.000 N 
ATOM      6  C   UNL     1       9.645  12.641  21.543  0.00  0.00    +0.000 A 
ATOM      7  C   UNL     1       8.627  12.219  22.370  0.00  0.00    +0.000 A 
ATOM      8  C   UNL     1       8.118  13.147  23.265  0.00  0.00    +0.000 A 
ATOM      9  N   UNL     1       8.558  14.423  23.345  0.00  0.00    +0.000 NA
ATOM     10  C   UNL     1       9.554  14.732  22.519  0.00  0.00    +0.000 A 
ATOM     11  N   UNL     1      10.112  13.901  21.633  0.00  0.00    +0.000 NA
ATOM     12  C   UNL     1      11.563  12.113  20.098  0.00  0.00    +0.000 C 
ENDROOT
BRANCH   8  13
ATOM     13  N   UNL     1       7.088  12.757  24.157  0.00  0.00    +0.000 N 
ATOM     14  C   UNL     1       6.294  11.642  24.050  0.00  0.00    +0.000 A 
ATOM     15  N   UNL     1       5.416  11.613  25.026  0.00  0.00    +0.000 NA
ATOM     16  C   UNL     1       5.710  12.746  25.725  0.00  0.00    +0.000 A 
ATOM     17  N   UNL     1       6.729  13.468  25.257  0.00  0.00    +0.000 NA
ENDBRANCH   8  13
BRANCH   1  19
ATOM     18  O   UNL     1      10.539  13.907  17.126  0.00  0.00    +0.000 OA
ATOM     19  C   UNL     1      11.224  13.754  18.136  0.00  0.00    +0.000 C 
ATOM     20  N   UNL     1      11.548  14.781  18.985  0.00  0.00    +0.000 N 
ATOM     21  H   UNL     1      12.299  14.602  19.646  0.00  0.00    +0.000 HD
BRANCH  20  22
ATOM     22  C   UNL     1      11.154  16.137  18.813  0.00  0.00    +0.000 C 
ATOM     23  C   UNL     1       9.822  16.611  19.320  0.00  0.00    +0.000 C 
ATOM     24  C   UNL     1      11.077  17.039  20.020  0.00  0.00    +0.000 C 
ENDBRANCH  20  22
ENDBRANCH   1  19
TORSDOF 3
ENDMDL
MODEL 6
REMARK VINA RESULT:      -6.1      6.585      8.977
REMARK  Name = 
REMARK  3 active torsions:
REMARK  status: ('A' for Active; 'I' for Inactive)
REMARK    1  A    between atoms: C_2  and  C_7
REMARK    2  A    between atoms: N_3  and  C_4
REMARK    3  A    between atoms: C_14  and  N_15
REMARK                            x       y       z     vdW  Elec       q    Type
REMARK                         _______ _______ _______ _____ _____    ______ ____
ROOT
ATOM      1  C   UNL     1       0.305  12.080  19.419  0.00  0.00    +0.000 C 
ATOM      2  C   UNL     1       1.046  11.676  20.700  0.00  0.00    +0.000 C 
ATOM      3  C   UNL     1       0.095  11.277  21.827  0.00  0.00    +0.000 C 
ATOM      4  C   UNL     1      -0.985  12.331  22.091  0.00  0.00    +0.000 C 
ATOM      5  N   UNL     1      -1.638  12.710  20.840  0.00  0.00    +0.000 N 
ATOM      6  C   UNL     1      -3.004  12.683  20.661  0.00  0.00    +0.000 A 
ATOM      7  C   UNL     1      -3.914  12.834  21.685  0.00  0.00    +0.000 A 
ATOM      8  C   UNL     1      -5.252  12.662  21.367  0.00  0.00    +0.000 A 
ATOM      9  N   UNL     1      -5.688  12.344  20.128  0.00  0.00    +0.000 NA
ATOM     10  C   UNL     1      -4.738  12.237  19.203  0.00  0.00    +0.000 A 
ATOM     11  N   UNL     1      -3.427  12.395  19.416  0.00  0.00    +0.000 NA
ATOM     12  C   UNL     1      -0.774  13.122  19.721  0.00  0.00    +0.000 C 
ENDROOT
BRANCH   8  13
ATOM     13  N   UNL     1      -6.232  12.833  22.377  0.00  0.00    +0.000 N 
ATOM     14  C   UNL     1      -6.418  13.949  23.155  0.00  0.00    +0.000 A 
ATOM     15  N   UNL     1      -7.386  13.747  24.017  0.00  0.00    +0.000 NA
ATOM     16  C   UNL     1      -7.779  12.473  23.732  0.00  0.00    +0.000 A 
ATOM     17  N   UNL     1      -7.128  11.876  22.732  0.00  0.00    +0.000 NA
ENDBRANCH   8  13
BRANCH   1  19
ATOM     18  O   UNL     1       0.236   9.724  18.928  0.00  0.00    +0.000 OA
ATOM     19  C   UNL     1      -0.184  10.848  18.655  0.00  0.00    +0.000 C 
ATOM     20  N   UNL     1      -1.189  11.073  17.749  0.00  0.00    +0.000 N 
ATOM     21  H   UNL     1      -1.299  12.030  17.425  0.00  0.00    +0.000 HD
BRANCH  20  22
ATOM     22  C   UNL     1      -1.862  10.062  17.009  0.00  0.00    +0.000 C 
ATOM     23  C   UNL     1      -3.209   9.566  17.450  0.00  0.00    +0.000 C 
ATOM     24  C   UNL     1      -3.099  10.424  16.225  0.00  0.00    +0.000 C 
ENDBRANCH  20  22
ENDBRANCH   1  19
TORSDOF 3
ENDMDL
MODEL 7
REMARK VINA RESULT:      -6.1      4.044      5.821
REMARK  Name = 
REMARK  3 active torsions:
REMARK  status: ('A' for Active; 'I' for Inactive)
REMARK    1  A    between atoms: C_2  and  C_7
REMARK    2  A    between atoms: N_3  and  C_4
REMARK    3  A    between atoms: C_14  and  N_15
REMARK                            x       y       z     vdW  Elec       q    Type
REMARK                         _______ _______ _______ _____ _____    ______ ____
ROOT
ATOM      1  C   UNL     1       6.572   6.556  15.975  0.00  0.00    +0.000 C 
ATOM      2  C   UNL     1       7.663   6.895  16.999  0.00  0.00    +0.000 C 
ATOM      3  C   UNL     1       7.543   6.071  18.279  0.00  0.00    +0.000 C 
ATOM      4  C   UNL     1       6.139   6.128  18.889  0.00  0.00    +0.000 C 
ATOM      5  N   UNL     1       5.133   5.832  17.872  0.00  0.00    +0.000 N 
ATOM      6  C   UNL     1       4.164   4.866  18.024  0.00  0.00    +0.000 A 
ATOM      7  C   UNL     1       3.672   4.459  19.245  0.00  0.00    +0.000 A 
ATOM      8  C   UNL     1       2.787   3.391  19.243  0.00  0.00    +0.000 A 
ATOM      9  N   UNL     1       2.410   2.739  18.121  0.00  0.00    +0.000 NA
ATOM     10  C   UNL     1       2.923   3.215  16.989  0.00  0.00    +0.000 A 
ATOM     11  N   UNL     1       3.773   4.244  16.896  0.00  0.00    +0.000 NA
ATOM     12  C   UNL     1       5.186   6.607  16.620  0.00  0.00    +0.000 C 
ENDROOT
BRANCH   8  13
ATOM     13  N   UNL     1       2.232   2.949  20.470  0.00  0.00    +0.000 N 
ATOM     14  C   UNL     1       2.922   2.445  21.544  0.00  0.00    +0.000 A 
ATOM     15  N   UNL     1       2.089   2.095  22.497  0.00  0.00    +0.000 NA
ATOM     16  C   UNL     1       0.875   2.408  21.961  0.00  0.00    +0.000 A 
ATOM     17  N   UNL     1       0.901   2.949  20.742  0.00  0.00    +0.000 NA
ENDBRANCH   8  13
BRANCH   1  19
ATOM     18  O   UNL     1       7.850   4.553  15.578  0.00  0.00    +0.000 OA
ATOM     19  C   UNL     1       6.894   5.251  15.242  0.00  0.00    +0.000 C 
ATOM     20  N   UNL     1       5.987   4.871  14.285  0.00  0.00    +0.000 N 
ATOM     21  H   UNL     1       5.384   5.602  13.918  0.00  0.00    +0.000 HD
BRANCH  20  22
ATOM     22  C   UNL     1       6.032   3.648  13.559  0.00  0.00    +0.000 C 
ATOM     23  C   UNL     1       5.172   3.454  12.343  0.00  0.00    +0.000 C 
ATOM     24  C   UNL     1       6.652   3.633  12.185  0.00  0.00    +0.000 C 
ENDBRANCH  20  22
ENDBRANCH   1  19
TORSDOF 3
ENDMDL
MODEL 8
REMARK VINA RESULT:      -6.0      3.287      7.473
REMARK  Name = 
REMARK  3 active torsions:
REMARK  status: ('A' for Active; 'I' for Inactive)
REMARK    1  A    between atoms: C_2  and  C_7
REMARK    2  A    between atoms: N_3  and  C_4
REMARK    3  A    between atoms: C_14  and  N_15
REMARK                            x       y       z     vdW  Elec       q    Type
REMARK                         _______ _______ _______ _____ _____    ______ ____
ROOT
ATOM      1  C   UNL     1      -0.991  11.585  21.222  0.00  0.00    +0.000 C 
ATOM      2  C   UNL     1      -1.096  11.102  22.673  0.00  0.00    +0.000 C 
ATOM      3  C   UNL     1      -0.070  10.021  23.008  0.00  0.00    +0.000 C 
ATOM      4  C   UNL     1      -0.088   8.860  22.008  0.00  0.00    +0.000 C 
ATOM      5  N   UNL     1      -0.021   9.368  20.641  0.00  0.00    +0.000 N 
ATOM      6  C   UNL     1       0.910   8.943  19.719  0.00  0.00    +0.000 A 
ATOM      7  C   UNL     1       1.497   7.697  19.743  0.00  0.00    +0.000 A 
ATOM      8  C   UNL     1       2.505   7.458  18.821  0.00  0.00    +0.000 A 
ATOM      9  N   UNL     1       2.935   8.382  17.933  0.00  0.00    +0.000 NA
ATOM     10  C   UNL     1       2.295   9.548  17.974  0.00  0.00    +0.000 A 
ATOM     11  N   UNL     1       1.308   9.861  18.819  0.00  0.00    +0.000 NA
ATOM     12  C   UNL     1      -0.997  10.401  20.252  0.00  0.00    +0.000 C 
ENDROOT
BRANCH   8  13
ATOM     13  N   UNL     1       3.125   6.184  18.786  0.00  0.00    +0.000 N 
ATOM     14  C   UNL     1       3.148   5.259  19.800  0.00  0.00    +0.000 A 
ATOM     15  N   UNL     1       3.846   4.207  19.441  0.00  0.00    +0.000 NA
ATOM     16  C   UNL     1       4.240   4.528  18.176  0.00  0.00    +0.000 A 
ATOM     17  N   UNL     1       3.814   5.706  17.718  0.00  0.00    +0.000 NA
ENDBRANCH   8  13
BRANCH   1  19
ATOM     18  O   UNL     1       0.606  13.212  21.997  0.00  0.00    +0.000 OA
ATOM     19  C   UNL     1       0.181  12.554  21.048  0.00  0.00    +0.000 C 
ATOM     20  N   UNL     1       0.781  12.543  19.815  0.00  0.00    +0.000 N 
ATOM     21  H   UNL     1       0.232  12.165  19.048  0.00  0.00    +0.000 HD
BRANCH  20  22
ATOM     22  C   UNL     1       1.946  13.282  19.468  0.00  0.00    +0.000 C 
ATOM     23  C   UNL     1       2.448  13.290  18.052  0.00  0.00    +0.000 C 
ATOM     24  C   UNL     1       1.805  14.520  18.619  0.00  0.00    +0.000 C 
ENDBRANCH  20  22
ENDBRANCH   1  19
TORSDOF 3
ENDMDL
MODEL 9
REMARK VINA RESULT:      -5.9      1.726      3.794
REMARK  Name = 
REMARK  3 active torsions:
REMARK  status: ('A' for Active; 'I' for Inactive)
REMARK    1  A    between atoms: C_2  and  C_7
REMARK    2  A    between atoms: N_3  and  C_4
REMARK    3  A    between atoms: C_14  and  N_15
REMARK                            x       y       z     vdW  Elec       q    Type
REMARK                         _______ _______ _______ _____ _____    ______ ____
ROOT
ATOM      1  C   UNL     1       4.186   3.981  17.549  0.00  0.00    +0.000 C 
ATOM      2  C   UNL     1       5.466   4.610  16.986  0.00  0.00    +0.000 C 
ATOM      3  C   UNL     1       5.700   6.028  17.505  0.00  0.00    +0.000 C 
ATOM      4  C   UNL     1       4.479   6.934  17.319  0.00  0.00    +0.000 C 
ATOM      5  N   UNL     1       3.280   6.281  17.838  0.00  0.00    +0.000 N 
ATOM      6  C   UNL     1       2.432   6.868  18.750  0.00  0.00    +0.000 A 
ATOM      7  C   UNL     1       2.267   8.230  18.877  0.00  0.00    +0.000 A 
ATOM      8  C   UNL     1       1.471   8.673  19.922  0.00  0.00    +0.000 A 
ATOM      9  N   UNL     1       0.877   7.844  20.809  0.00  0.00    +0.000 NA
ATOM     10  C   UNL     1       1.080   6.546  20.594  0.00  0.00    +0.000 A 
ATOM     11  N   UNL     1       1.822   6.030  19.609  0.00  0.00    +0.000 NA
ATOM     12  C   UNL     1       2.990   4.917  17.361  0.00  0.00    +0.000 C 
ENDROOT
BRANCH   8  13
ATOM     13  N   UNL     1       1.247  10.063  20.081  0.00  0.00    +0.000 N 
ATOM     14  C   UNL     1       1.168  10.998  19.079  0.00  0.00    +0.000 A 
ATOM     15  N   UNL     1       0.995  12.197  19.586  0.00  0.00    +0.000 NA
ATOM     16  C   UNL     1       0.972  11.952  20.927  0.00  0.00    +0.000 A 
ATOM     17  N   UNL     1       1.098  10.674  21.285  0.00  0.00    +0.000 NA
ENDBRANCH   8  13
BRANCH   1  19
ATOM     18  O   UNL     1       5.512   3.525  19.506  0.00  0.00    +0.000 OA
ATOM     19  C   UNL     1       4.400   3.489  18.983  0.00  0.00    +0.000 C 
ATOM     20  N   UNL     1       3.263   3.129  19.661  0.00  0.00    +0.000 N 
ATOM     21  H   UNL     1       2.450   2.906  19.094  0.00  0.00    +0.000 HD
BRANCH  20  22
ATOM     22  C   UNL     1       3.217   2.744  21.030  0.00  0.00    +0.000 C 
ATOM     23  C   UNL     1       2.350   3.493  22.001  0.00  0.00    +0.000 C 
ATOM     24  C   UNL     1       1.962   2.109  21.573  0.00  0.00    +0.000 C 
ENDBRANCH  20  22
ENDBRANCH   1  19
TORSDOF 3
ENDMDL
