MODEL 1
REMARK VINA RESULT:      -6.3      0.000      0.000
REMARK  Name = 
REMARK  1 active torsions:
REMARK  status: ('A' for Active; 'I' for Inactive)
REMARK    1  A    between atoms: C_5  and  C_6
REMARK                            x       y       z     vdW  Elec       q    Type
REMARK                         _______ _______ _______ _____ _____    ______ ____
ROOT
ATOM      1  C   UNL     1       4.259   3.883  17.951  0.00  0.00    +0.000 A 
ATOM      2  C   UNL     1       2.915   4.203  18.003  0.00  0.00    +0.000 A 
ATOM      3  N   UNL     1       2.483   3.730  19.208  0.00  0.00    +0.000 N 
ATOM      4  C   UNL     1       1.247   3.742  19.823  0.00  0.00    +0.000 A 
ATOM      5  C   UNL     1       1.145   3.188  21.045  0.00  0.00    +0.000 A 
ATOM      6  N   UNL     1       2.205   2.609  21.727  0.00  0.00    +0.000 NA
ATOM      7  C   UNL     1       3.372   2.596  21.135  0.00  0.00    +0.000 A 
ATOM      8  C   UNL     1       3.562   3.160  19.827  0.00  0.00    +0.000 A 
ATOM      9  N   UNL     1       4.652   3.213  19.093  0.00  0.00    +0.000 NA
ENDROOT
BRANCH   1  14
ATOM     10 BR   UNL     1       7.946   5.247  13.230  0.00  0.00    +0.000 Br
ATOM     11  C   UNL     1       6.820   4.802  14.681  0.00  0.00    +0.000 A 
ATOM     12  C   UNL     1       7.316   4.861  15.981  0.00  0.00    +0.000 A 
ATOM     13  C   UNL     1       6.479   4.549  17.056  0.00  0.00    +0.000 A 
ATOM     14  C   UNL     1       5.145   4.175  16.838  0.00  0.00    +0.000 A 
ATOM     15  C   UNL     1       4.667   4.100  15.523  0.00  0.00    +0.000 A 
ATOM     16  C   UNL     1       5.500   4.419  14.446  0.00  0.00    +0.000 A 
ENDBRANCH   1  14
TORSDOF 1
ENDMDL
MODEL 2
REMARK VINA RESULT:      -6.3      0.091      1.212
REMARK  Name = 
REMARK  1 active torsions:
REMARK  status: ('A' for Active; 'I' for Inactive)
REMARK    1  A    between atoms: C_5  and  C_6
REMARK                            x       y       z     vdW  Elec       q    Type
REMARK                         _______ _______ _______ _____ _____    ______ ____
ROOT
ATOM      1  C   UNL     1       4.223   3.936  17.986  0.00  0.00    +0.000 A 
ATOM      2  C   UNL     1       2.894   4.304  18.098  0.00  0.00    +0.000 A 
ATOM      3  N   UNL     1       2.483   3.788  19.293  0.00  0.00    +0.000 N 
ATOM      4  C   UNL     1       1.267   3.815  19.948  0.00  0.00    +0.000 A 
ATOM      5  C   UNL     1       1.182   3.205  21.143  0.00  0.00    +0.000 A 
ATOM      6  N   UNL     1       2.239   2.552  21.761  0.00  0.00    +0.000 NA
ATOM      7  C   UNL     1       3.386   2.524  21.130  0.00  0.00    +0.000 A 
ATOM      8  C   UNL     1       3.556   3.146  19.846  0.00  0.00    +0.000 A 
ATOM      9  N   UNL     1       4.625   3.195  19.080  0.00  0.00    +0.000 NA
ENDROOT
BRANCH   1  14
ATOM     10 BR   UNL     1       7.924   5.140  13.232  0.00  0.00    +0.000 Br
ATOM     11  C   UNL     1       6.778   4.795  14.696  0.00  0.00    +0.000 A 
ATOM     12  C   UNL     1       5.450   4.448  14.463  0.00  0.00    +0.000 A 
ATOM     13  C   UNL     1       4.606   4.175  15.543  0.00  0.00    +0.000 A 
ATOM     14  C   UNL     1       5.084   4.251  16.860  0.00  0.00    +0.000 A 
ATOM     15  C   UNL     1       6.417   4.622  17.078  0.00  0.00    +0.000 A 
ATOM     16  C   UNL     1       7.266   4.887  15.999  0.00  0.00    +0.000 A 
ENDBRANCH   1  14
TORSDOF 1
ENDMDL
MODEL 3
REMARK VINA RESULT:      -6.2      4.600      5.881
REMARK  Name = 
REMARK  1 active torsions:
REMARK  status: ('A' for Active; 'I' for Inactive)
REMARK    1  A    between atoms: C_5  and  C_6
REMARK                            x       y       z     vdW  Elec       q    Type
REMARK                         _______ _______ _______ _____ _____    ______ ____
ROOT
ATOM      1  C   UNL     1       2.516   6.487  19.686  0.00  0.00    +0.000 A 
ATOM      2  C   UNL     1       1.945   5.484  20.448  0.00  0.00    +0.000 A 
ATOM      3  N   UNL     1       2.783   4.416  20.316  0.00  0.00    +0.000 N 
ATOM      4  C   UNL     1       2.745   3.134  20.830  0.00  0.00    +0.000 A 
ATOM      5  C   UNL     1       3.749   2.298  20.512  0.00  0.00    +0.000 A 
ATOM      6  N   UNL     1       4.823   2.642  19.703  0.00  0.00    +0.000 NA
ATOM      7  C   UNL     1       4.849   3.857  19.215  0.00  0.00    +0.000 A 
ATOM      8  C   UNL     1       3.810   4.808  19.501  0.00  0.00    +0.000 A 
ATOM      9  N   UNL     1       3.678   6.047  19.082  0.00  0.00    +0.000 NA
ENDROOT
BRANCH   1  14
ATOM     10 BR   UNL     1       0.069  12.062  18.868  0.00  0.00    +0.000 Br
ATOM     11  C   UNL     1       0.845  10.358  19.127  0.00  0.00    +0.000 A 
ATOM     12  C   UNL     1       0.747   9.740  20.372  0.00  0.00    +0.000 A 
ATOM     13  C   UNL     1       1.305   8.473  20.560  0.00  0.00    +0.000 A 
ATOM     14  C   UNL     1       1.964   7.818  19.508  0.00  0.00    +0.000 A 
ATOM     15  C   UNL     1       2.071   8.462  18.269  0.00  0.00    +0.000 A 
ATOM     16  C   UNL     1       1.507   9.727  18.075  0.00  0.00    +0.000 A 
ENDBRANCH   1  14
TORSDOF 1
ENDMDL
MODEL 4
REMARK VINA RESULT:      -6.2      4.584      5.899
REMARK  Name = 
REMARK  1 active torsions:
REMARK  status: ('A' for Active; 'I' for Inactive)
REMARK    1  A    between atoms: C_5  and  C_6
REMARK                            x       y       z     vdW  Elec       q    Type
REMARK                         _______ _______ _______ _____ _____    ______ ____
ROOT
ATOM      1  C   UNL     1       2.523   6.474  19.668  0.00  0.00    +0.000 A 
ATOM      2  C   UNL     1       1.953   5.479  20.442  0.00  0.00    +0.000 A 
ATOM      3  N   UNL     1       2.793   4.410  20.322  0.00  0.00    +0.000 N 
ATOM      4  C   UNL     1       2.756   3.134  20.850  0.00  0.00    +0.000 A 
ATOM      5  C   UNL     1       3.761   2.296  20.541  0.00  0.00    +0.000 A 
ATOM      6  N   UNL     1       4.833   2.632  19.728  0.00  0.00    +0.000 NA
ATOM      7  C   UNL     1       4.858   3.840  19.226  0.00  0.00    +0.000 A 
ATOM      8  C   UNL     1       3.818   4.794  19.501  0.00  0.00    +0.000 A 
ATOM      9  N   UNL     1       3.684   6.028  19.068  0.00  0.00    +0.000 NA
ENDROOT
BRANCH   1  14
ATOM     10 BR   UNL     1       0.290  12.148  18.921  0.00  0.00    +0.000 Br
ATOM     11  C   UNL     1       0.954  10.392  19.143  0.00  0.00    +0.000 A 
ATOM     12  C   UNL     1       1.585   9.755  18.077  0.00  0.00    +0.000 A 
ATOM     13  C   UNL     1       2.091   8.464  18.244  0.00  0.00    +0.000 A 
ATOM     14  C   UNL     1       1.969   7.802  19.475  0.00  0.00    +0.000 A 
ATOM     15  C   UNL     1       1.313   8.449  20.532  0.00  0.00    +0.000 A 
ATOM     16  C   UNL     1       0.812   9.744  20.369  0.00  0.00    +0.000 A 
ENDBRANCH   1  14
TORSDOF 1
ENDMDL
MODEL 5
REMARK VINA RESULT:      -6.2      0.876      1.462
REMARK  Name = 
REMARK  1 active torsions:
REMARK  status: ('A' for Active; 'I' for Inactive)
REMARK    1  A    between atoms: C_5  and  C_6
REMARK                            x       y       z     vdW  Elec       q    Type
REMARK                         _______ _______ _______ _____ _____    ______ ____
ROOT
ATOM      1  C   UNL     1       4.261   3.801  17.701  0.00  0.00    +0.000 A 
ATOM      2  C   UNL     1       4.644   3.394  18.966  0.00  0.00    +0.000 A 
ATOM      3  N   UNL     1       3.477   3.215  19.650  0.00  0.00    +0.000 N 
ATOM      4  C   UNL     1       3.210   2.825  20.948  0.00  0.00    +0.000 A 
ATOM      5  C   UNL     1       1.923   2.734  21.326  0.00  0.00    +0.000 A 
ATOM      6  N   UNL     1       0.846   3.004  20.495  0.00  0.00    +0.000 NA
ATOM      7  C   UNL     1       1.107   3.379  19.268  0.00  0.00    +0.000 A 
ATOM      8  C   UNL     1       2.456   3.508  18.789  0.00  0.00    +0.000 A 
ATOM      9  N   UNL     1       2.886   3.885  17.604  0.00  0.00    +0.000 NA
ENDROOT
BRANCH   1  14
ATOM     10 BR   UNL     1       8.047   5.316  13.106  0.00  0.00    +0.000 Br
ATOM     11  C   UNL     1       6.891   4.825  14.519  0.00  0.00    +0.000 A 
ATOM     12  C   UNL     1       7.336   4.918  15.835  0.00  0.00    +0.000 A 
ATOM     13  C   UNL     1       6.477   4.571  16.882  0.00  0.00    +0.000 A 
ATOM     14  C   UNL     1       5.171   4.129  16.618  0.00  0.00    +0.000 A 
ATOM     15  C   UNL     1       4.747   4.022  15.287  0.00  0.00    +0.000 A 
ATOM     16  C   UNL     1       5.602   4.375  14.239  0.00  0.00    +0.000 A 
ENDBRANCH   1  14
TORSDOF 1
ENDMDL
MODEL 6
REMARK VINA RESULT:      -6.2      4.265      5.468
REMARK  Name = 
REMARK  1 active torsions:
REMARK  status: ('A' for Active; 'I' for Inactive)
REMARK    1  A    between atoms: C_5  and  C_6
REMARK                            x       y       z     vdW  Elec       q    Type
REMARK                         _______ _______ _______ _____ _____    ______ ____
ROOT
ATOM      1  C   UNL     1       2.560   5.921  18.951  0.00  0.00    +0.000 A 
ATOM      2  C   UNL     1       2.057   4.990  18.060  0.00  0.00    +0.000 A 
ATOM      3  N   UNL     1       2.713   3.830  18.350  0.00  0.00    +0.000 N 
ATOM      4  C   UNL     1       2.649   2.563  17.804  0.00  0.00    +0.000 A 
ATOM      5  C   UNL     1       3.437   1.609  18.330  0.00  0.00    +0.000 A 
ATOM      6  N   UNL     1       4.309   1.816  19.388  0.00  0.00    +0.000 NA
ATOM      7  C   UNL     1       4.370   3.021  19.897  0.00  0.00    +0.000 A 
ATOM      8  C   UNL     1       3.565   4.097  19.386  0.00  0.00    +0.000 A 
ATOM      9  N   UNL     1       3.518   5.355  19.768  0.00  0.00    +0.000 NA
ENDROOT
BRANCH   1  14
ATOM     10 BR   UNL     1       0.780  11.798  19.131  0.00  0.00    +0.000 Br
ATOM     11  C   UNL     1       1.352   9.997  19.083  0.00  0.00    +0.000 A 
ATOM     12  C   UNL     1       1.230   9.206  20.223  0.00  0.00    +0.000 A 
ATOM     13  C   UNL     1       1.636   7.870  20.185  0.00  0.00    +0.000 A 
ATOM     14  C   UNL     1       2.167   7.318  19.009  0.00  0.00    +0.000 A 
ATOM     15  C   UNL     1       2.302   8.133  17.877  0.00  0.00    +0.000 A 
ATOM     16  C   UNL     1       1.890   9.468  17.911  0.00  0.00    +0.000 A 
ENDBRANCH   1  14
TORSDOF 1
ENDMDL
MODEL 7
REMARK VINA RESULT:      -6.1      0.843      1.884
REMARK  Name = 
REMARK  1 active torsions:
REMARK  status: ('A' for Active; 'I' for Inactive)
REMARK    1  A    between atoms: C_5  and  C_6
REMARK                            x       y       z     vdW  Elec       q    Type
REMARK                         _______ _______ _______ _____ _____    ______ ____
ROOT
ATOM      1  C   UNL     1       4.261   3.970  17.826  0.00  0.00    +0.000 A 
ATOM      2  C   UNL     1       4.651   3.284  18.962  0.00  0.00    +0.000 A 
ATOM      3  N   UNL     1       3.531   3.218  19.739  0.00  0.00    +0.000 N 
ATOM      4  C   UNL     1       3.295   2.668  20.984  0.00  0.00    +0.000 A 
ATOM      5  C   UNL     1       2.052   2.764  21.489  0.00  0.00    +0.000 A 
ATOM      6  N   UNL     1       0.992   3.378  20.837  0.00  0.00    +0.000 NA
ATOM      7  C   UNL     1       1.226   3.902  19.661  0.00  0.00    +0.000 A 
ATOM      8  C   UNL     1       2.528   3.849  19.056  0.00  0.00    +0.000 A 
ATOM      9  N   UNL     1       2.931   4.335  17.902  0.00  0.00    +0.000 NA
ENDROOT
BRANCH   1  14
ATOM     10 BR   UNL     1       8.011   5.248  13.131  0.00  0.00    +0.000 Br
ATOM     11  C   UNL     1       6.846   4.879  14.573  0.00  0.00    +0.000 A 
ATOM     12  C   UNL     1       5.599   4.312  14.323  0.00  0.00    +0.000 A 
ATOM     13  C   UNL     1       4.744   4.023  15.389  0.00  0.00    +0.000 A 
ATOM     14  C   UNL     1       5.129   4.299  16.710  0.00  0.00    +0.000 A 
ATOM     15  C   UNL     1       6.379   4.889  16.943  0.00  0.00    +0.000 A 
ATOM     16  C   UNL     1       7.239   5.173  15.878  0.00  0.00    +0.000 A 
ENDBRANCH   1  14
TORSDOF 1
ENDMDL
MODEL 8
REMARK VINA RESULT:      -6.1      1.027      1.112
REMARK  Name = 
REMARK  1 active torsions:
REMARK  status: ('A' for Active; 'I' for Inactive)
REMARK    1  A    between atoms: C_5  and  C_6
REMARK                            x       y       z     vdW  Elec       q    Type
REMARK                         _______ _______ _______ _____ _____    ______ ____
ROOT
ATOM      1  C   UNL     1       4.293   4.002  17.676  0.00  0.00    +0.000 A 
ATOM      2  C   UNL     1       3.608   2.816  17.870  0.00  0.00    +0.000 A 
ATOM      3  N   UNL     1       2.902   2.998  19.023  0.00  0.00    +0.000 N 
ATOM      4  C   UNL     1       2.045   2.176  19.728  0.00  0.00    +0.000 A 
ATOM      5  C   UNL     1       1.487   2.662  20.851  0.00  0.00    +0.000 A 
ATOM      6  N   UNL     1       1.716   3.938  21.344  0.00  0.00    +0.000 NA
ATOM      7  C   UNL     1       2.534   4.709  20.674  0.00  0.00    +0.000 A 
ATOM      8  C   UNL     1       3.176   4.261  19.469  0.00  0.00    +0.000 A 
ATOM      9  N   UNL     1       4.029   4.897  18.694  0.00  0.00    +0.000 NA
ENDROOT
BRANCH   1  14
ATOM     10 BR   UNL     1       8.054   5.271  12.987  0.00  0.00    +0.000 Br
ATOM     11  C   UNL     1       6.906   4.856  14.431  0.00  0.00    +0.000 A 
ATOM     12  C   UNL     1       7.351   5.037  15.738  0.00  0.00    +0.000 A 
ATOM     13  C   UNL     1       6.498   4.746  16.806  0.00  0.00    +0.000 A 
ATOM     14  C   UNL     1       5.198   4.273  16.573  0.00  0.00    +0.000 A 
ATOM     15  C   UNL     1       4.773   4.077  15.252  0.00  0.00    +0.000 A 
ATOM     16  C   UNL     1       5.622   4.374  14.182  0.00  0.00    +0.000 A 
ENDBRANCH   1  14
TORSDOF 1
ENDMDL
MODEL 9
REMARK VINA RESULT:      -6.1      4.609      5.894
REMARK  Name = 
REMARK  1 active torsions:
REMARK  status: ('A' for Active; 'I' for Inactive)
REMARK    1  A    between atoms: C_5  and  C_6
REMARK                            x       y       z     vdW  Elec       q    Type
REMARK                         _______ _______ _______ _____ _____    ______ ____
ROOT
ATOM      1  C   UNL     1       2.359   6.499  19.747  0.00  0.00    +0.000 A 
ATOM      2  C   UNL     1       3.418   5.895  19.092  0.00  0.00    +0.000 A 
ATOM      3  N   UNL     1       3.506   4.647  19.635  0.00  0.00    +0.000 N 
ATOM      4  C   UNL     1       4.363   3.589  19.400  0.00  0.00    +0.000 A 
ATOM      5  C   UNL     1       4.182   2.462  20.111  0.00  0.00    +0.000 A 
ATOM      6  N   UNL     1       3.188   2.294  21.064  0.00  0.00    +0.000 NA
ATOM      7  C   UNL     1       2.385   3.303  21.286  0.00  0.00    +0.000 A 
ATOM      8  C   UNL     1       2.516   4.544  20.573  0.00  0.00    +0.000 A 
ATOM      9  N   UNL     1       1.811   5.648  20.687  0.00  0.00    +0.000 NA
ENDROOT
BRANCH   1  14
ATOM     10 BR   UNL     1       0.511  12.284  18.825  0.00  0.00    +0.000 Br
ATOM     11  C   UNL     1       1.056  10.496  19.100  0.00  0.00    +0.000 A 
ATOM     12  C   UNL     1       1.676   9.798  18.066  0.00  0.00    +0.000 A 
ATOM     13  C   UNL     1       2.095   8.482  18.273  0.00  0.00    +0.000 A 
ATOM     14  C   UNL     1       1.896   7.855  19.512  0.00  0.00    +0.000 A 
ATOM     15  C   UNL     1       1.252   8.563  20.536  0.00  0.00    +0.000 A 
ATOM     16  C   UNL     1       0.838   9.883  20.334  0.00  0.00    +0.000 A 
ENDBRANCH   1  14
TORSDOF 1
ENDMDL
