MODEL 1
REMARK VINA RESULT:      -9.4      0.000      0.000
REMARK  Name = 
REMARK  3 active torsions:
REMARK  status: ('A' for Active; 'I' for Inactive)
REMARK    1  A    between atoms: C_2  and  C_19
REMARK    2  A    between atoms: N_3  and  C_4
REMARK    3  A    between atoms: C_22  and  C_23
REMARK                            x       y       z     vdW  Elec       q    Type
REMARK                         _______ _______ _______ _____ _____    ______ ____
ROOT
ATOM      1  O   UNL     1       2.069   7.575  21.368  0.00  0.00    +0.000 OA
ATOM      2  C   UNL     1       1.999   7.734  20.154  0.00  0.00    +0.000 C 
ATOM      3  N   UNL     1       2.684   6.960  19.251  0.00  0.00    +0.000 N 
ATOM      4  H   UNL     1       2.612   7.189  18.263  0.00  0.00    +0.000 HD
ENDROOT
BRANCH   3   5
ATOM      5  C   UNL     1       3.468   5.779  19.590  0.00  0.00    +0.000 C 
ATOM      6  C   UNL     1       4.410   5.422  18.442  0.00  0.00    +0.000 A 
ATOM      7  C   UNL     1       5.767   5.796  18.595  0.00  0.00    +0.000 A 
ATOM      8  C   UNL     1       6.723   5.518  17.619  0.00  0.00    +0.000 A 
ATOM      9  C   UNL     1       6.345   4.877  16.451  0.00  0.00    +0.000 A 
ATOM     10  C   UNL     1       5.012   4.512  16.270  0.00  0.00    +0.000 A 
ATOM     11  C   UNL     1       4.026   4.767  17.251  0.00  0.00    +0.000 A 
ATOM     12  C   UNL     1       2.649   4.220  16.920  0.00  0.00    +0.000 C 
ATOM     13  C   UNL     1       1.440   4.501  17.811  0.00  0.00    +0.000 C 
ATOM     14  C   UNL     1       1.623   4.032  19.231  0.00  0.00    +0.000 A 
ATOM     15  C   UNL     1       0.803   3.013  19.741  0.00  0.00    +0.000 A 
ATOM     16  C   UNL     1       0.984   2.533  21.037  0.00  0.00    +0.000 A 
ATOM     17  C   UNL     1       2.006   3.046  21.829  0.00  0.00    +0.000 A 
ATOM     18  C   UNL     1       2.816   4.071  21.338  0.00  0.00    +0.000 A 
ATOM     19  C   UNL     1       2.613   4.605  20.052  0.00  0.00    +0.000 A 
ENDBRANCH   3   5
BRANCH   2  20
ATOM     20  C   UNL     1       1.136   8.809  19.548  0.00  0.00    +0.000 A 
ATOM     21  C   UNL     1       0.142   9.363  20.274  0.00  0.00    +0.000 A 
ATOM     22  C   UNL     1      -0.773  10.337  19.708  0.00  0.00    +0.000 A 
ATOM     23  C   UNL     1      -0.653  10.725  18.425  0.00  0.00    +0.000 A 
ATOM     24  N   UNL     1       0.389  10.202  17.682  0.00  0.00    +0.000 N 
ATOM     25  C   UNL     1       1.297   9.280  18.138  0.00  0.00    +0.000 A 
ATOM     26  O   UNL     1       2.190   8.869  17.402  0.00  0.00    +0.000 OA
ATOM     27  H   UNL     1       0.510  10.500  16.715  0.00  0.00    +0.000 HD
BRANCH  23  28
ATOM     28  C   UNL     1      -1.610  11.679  17.738  0.00  0.00    +0.000 C 
ATOM     29  F   UNL     1      -2.019  11.186  16.542  0.00  0.00    +0.000 F 
ATOM     30  F   UNL     1      -2.725  11.895  18.477  0.00  0.00    +0.000 F 
ATOM     31  F   UNL     1      -1.046  12.888  17.496  0.00  0.00    +0.000 F 
ENDBRANCH  23  28
ENDBRANCH   2  20
TORSDOF 3
ENDMDL
MODEL 2
REMARK VINA RESULT:      -8.8      0.867      1.158
REMARK  Name = 
REMARK  3 active torsions:
REMARK  status: ('A' for Active; 'I' for Inactive)
REMARK    1  A    between atoms: C_2  and  C_19
REMARK    2  A    between atoms: N_3  and  C_4
REMARK    3  A    between atoms: C_22  and  C_23
REMARK                            x       y       z     vdW  Elec       q    Type
REMARK                         _______ _______ _______ _____ _____    ______ ____
ROOT
ATOM      1  O   UNL     1       1.455   6.612  21.268  0.00  0.00    +0.000 OA
ATOM      2  C   UNL     1       1.976   7.224  20.340  0.00  0.00    +0.000 C 
ATOM      3  N   UNL     1       3.094   6.783  19.680  0.00  0.00    +0.000 N 
ATOM      4  H   UNL     1       3.494   7.374  18.955  0.00  0.00    +0.000 HD
ENDROOT
BRANCH   3   5
ATOM      5  C   UNL     1       3.732   5.489  19.890  0.00  0.00    +0.000 C 
ATOM      6  C   UNL     1       4.838   5.271  18.860  0.00  0.00    +0.000 A 
ATOM      7  C   UNL     1       6.167   5.477  19.301  0.00  0.00    +0.000 A 
ATOM      8  C   UNL     1       7.261   5.301  18.455  0.00  0.00    +0.000 A 
ATOM      9  C   UNL     1       7.056   4.936  17.135  0.00  0.00    +0.000 A 
ATOM     10  C   UNL     1       5.756   4.742  16.672  0.00  0.00    +0.000 A 
ATOM     11  C   UNL     1       4.630   4.897  17.513  0.00  0.00    +0.000 A 
ATOM     12  C   UNL     1       3.302   4.558  16.860  0.00  0.00    +0.000 C 
ATOM     13  C   UNL     1       1.975   4.777  17.585  0.00  0.00    +0.000 C 
ATOM     14  C   UNL     1       1.875   4.029  18.889  0.00  0.00    +0.000 A 
ATOM     15  C   UNL     1       0.916   3.014  19.041  0.00  0.00    +0.000 A 
ATOM     16  C   UNL     1       0.836   2.279  20.222  0.00  0.00    +0.000 A 
ATOM     17  C   UNL     1       1.732   2.530  21.255  0.00  0.00    +0.000 A 
ATOM     18  C   UNL     1       2.678   3.548  21.122  0.00  0.00    +0.000 A 
ATOM     19  C   UNL     1       2.739   4.335  19.958  0.00  0.00    +0.000 A 
ENDBRANCH   3   5
BRANCH   2  20
ATOM     20  C   UNL     1       1.412   8.528  19.842  0.00  0.00    +0.000 A 
ATOM     21  C   UNL     1       0.741   9.338  20.687  0.00  0.00    +0.000 A 
ATOM     22  C   UNL     1       0.102  10.562  20.237  0.00  0.00    +0.000 A 
ATOM     23  C   UNL     1       0.167  10.932  18.945  0.00  0.00    +0.000 A 
ATOM     24  N   UNL     1       0.891  10.136  18.075  0.00  0.00    +0.000 N 
ATOM     25  C   UNL     1       1.524   8.969  18.417  0.00  0.00    +0.000 A 
ATOM     26  O   UNL     1       2.143   8.326  17.574  0.00  0.00    +0.000 OA
ATOM     27  H   UNL     1       0.969  10.411  17.098  0.00  0.00    +0.000 HD
BRANCH  23  28
ATOM     28  C   UNL     1      -0.533  12.152  18.380  0.00  0.00    +0.000 C 
ATOM     29  F   UNL     1      -1.282  12.770  19.328  0.00  0.00    +0.000 F 
ATOM     30  F   UNL     1       0.350  13.070  17.917  0.00  0.00    +0.000 F 
ATOM     31  F   UNL     1      -1.366  11.841  17.357  0.00  0.00    +0.000 F 
ENDBRANCH  23  28
ENDBRANCH   2  20
TORSDOF 3
ENDMDL
MODEL 3
REMARK VINA RESULT:      -8.4      1.525      2.004
REMARK  Name = 
REMARK  3 active torsions:
REMARK  status: ('A' for Active; 'I' for Inactive)
REMARK    1  A    between atoms: C_2  and  C_19
REMARK    2  A    between atoms: N_3  and  C_4
REMARK    3  A    between atoms: C_22  and  C_23
REMARK                            x       y       z     vdW  Elec       q    Type
REMARK                         _______ _______ _______ _____ _____    ______ ____
ROOT
ATOM      1  O   UNL     1       1.491   6.272  21.065  0.00  0.00    +0.000 OA
ATOM      2  C   UNL     1       2.113   6.965  20.267  0.00  0.00    +0.000 C 
ATOM      3  N   UNL     1       3.296   6.575  19.691  0.00  0.00    +0.000 N 
ATOM      4  H   UNL     1       3.776   7.230  19.078  0.00  0.00    +0.000 HD
ENDROOT
BRANCH   3   5
ATOM      5  C   UNL     1       3.901   5.257  19.837  0.00  0.00    +0.000 C 
ATOM      6  C   UNL     1       5.031   5.078  18.826  0.00  0.00    +0.000 A 
ATOM      7  C   UNL     1       6.351   5.227  19.316  0.00  0.00    +0.000 A 
ATOM      8  C   UNL     1       7.465   5.080  18.491  0.00  0.00    +0.000 A 
ATOM      9  C   UNL     1       7.291   4.802  17.146  0.00  0.00    +0.000 A 
ATOM     10  C   UNL     1       6.001   4.666  16.635  0.00  0.00    +0.000 A 
ATOM     11  C   UNL     1       4.855   4.794  17.453  0.00  0.00    +0.000 A 
ATOM     12  C   UNL     1       3.540   4.526  16.744  0.00  0.00    +0.000 C 
ATOM     13  C   UNL     1       2.197   4.729  17.445  0.00  0.00    +0.000 C 
ATOM     14  C   UNL     1       2.044   3.904  18.695  0.00  0.00    +0.000 A 
ATOM     15  C   UNL     1       1.061   2.903  18.757  0.00  0.00    +0.000 A 
ATOM     16  C   UNL     1       0.931   2.098  19.887  0.00  0.00    +0.000 A 
ATOM     17  C   UNL     1       1.802   2.264  20.958  0.00  0.00    +0.000 A 
ATOM     18  C   UNL     1       2.772   3.266  20.916  0.00  0.00    +0.000 A 
ATOM     19  C   UNL     1       2.882   4.124  19.805  0.00  0.00    +0.000 A 
ENDBRANCH   3   5
BRANCH   2  20
ATOM     20  C   UNL     1       1.614   8.321  19.845  0.00  0.00    +0.000 A 
ATOM     21  C   UNL     1       1.778   8.733  18.571  0.00  0.00    +0.000 A 
ATOM     22  C   UNL     1       1.396  10.065  18.136  0.00  0.00    +0.000 A 
ATOM     23  C   UNL     1       0.855  10.939  19.005  0.00  0.00    +0.000 A 
ATOM     24  N   UNL     1       0.637  10.516  20.303  0.00  0.00    +0.000 N 
ATOM     25  C   UNL     1       0.966   9.278  20.795  0.00  0.00    +0.000 A 
ATOM     26  O   UNL     1       0.737   8.993  21.967  0.00  0.00    +0.000 OA
ATOM     27  H   UNL     1       0.209  11.156  20.970  0.00  0.00    +0.000 HD
BRANCH  23  28
ATOM     28  C   UNL     1       0.497  12.369  18.651  0.00  0.00    +0.000 C 
ATOM     29  F   UNL     1       0.316  13.119  19.768  0.00  0.00    +0.000 F 
ATOM     30  F   UNL     1       1.474  12.969  17.928  0.00  0.00    +0.000 F 
ATOM     31  F   UNL     1      -0.648  12.450  17.929  0.00  0.00    +0.000 F 
ENDBRANCH  23  28
ENDBRANCH   2  20
TORSDOF 3
ENDMDL
MODEL 4
REMARK VINA RESULT:      -8.3      0.963      1.290
REMARK  Name = 
REMARK  3 active torsions:
REMARK  status: ('A' for Active; 'I' for Inactive)
REMARK    1  A    between atoms: C_2  and  C_19
REMARK    2  A    between atoms: N_3  and  C_4
REMARK    3  A    between atoms: C_22  and  C_23
REMARK                            x       y       z     vdW  Elec       q    Type
REMARK                         _______ _______ _______ _____ _____    ______ ____
ROOT
ATOM      1  O   UNL     1       2.148   7.692  21.429  0.00  0.00    +0.000 OA
ATOM      2  C   UNL     1       1.953   7.766  20.219  0.00  0.00    +0.000 C 
ATOM      3  N   UNL     1       2.555   6.937  19.306  0.00  0.00    +0.000 N 
ATOM      4  H   UNL     1       2.380   7.097  18.317  0.00  0.00    +0.000 HD
ENDROOT
BRANCH   3   5
ATOM      5  C   UNL     1       3.388   5.789  19.643  0.00  0.00    +0.000 C 
ATOM      6  C   UNL     1       4.342   5.473  18.493  0.00  0.00    +0.000 A 
ATOM      7  C   UNL     1       5.682   5.902  18.644  0.00  0.00    +0.000 A 
ATOM      8  C   UNL     1       6.648   5.664  17.666  0.00  0.00    +0.000 A 
ATOM      9  C   UNL     1       6.294   5.009  16.498  0.00  0.00    +0.000 A 
ATOM     10  C   UNL     1       4.977   4.590  16.319  0.00  0.00    +0.000 A 
ATOM     11  C   UNL     1       3.983   4.803  17.302  0.00  0.00    +0.000 A 
ATOM     12  C   UNL     1       2.630   4.200  16.973  0.00  0.00    +0.000 C 
ATOM     13  C   UNL     1       1.412   4.430  17.867  0.00  0.00    +0.000 C 
ATOM     14  C   UNL     1       1.616   3.968  19.286  0.00  0.00    +0.000 A 
ATOM     15  C   UNL     1       0.840   2.916  19.798  0.00  0.00    +0.000 A 
ATOM     16  C   UNL     1       1.043   2.443  21.093  0.00  0.00    +0.000 A 
ATOM     17  C   UNL     1       2.044   2.997  21.883  0.00  0.00    +0.000 A 
ATOM     18  C   UNL     1       2.810   4.055  21.392  0.00  0.00    +0.000 A 
ATOM     19  C   UNL     1       2.584   4.581  20.106  0.00  0.00    +0.000 A 
ENDBRANCH   3   5
BRANCH   2  20
ATOM     20  C   UNL     1       1.016   8.789  19.634  0.00  0.00    +0.000 A 
ATOM     21  C   UNL     1       1.201   9.226  18.370  0.00  0.00    +0.000 A 
ATOM     22  C   UNL     1       0.381  10.274  17.791  0.00  0.00    +0.000 A 
ATOM     23  C   UNL     1      -0.605  10.846  18.506  0.00  0.00    +0.000 A 
ATOM     24  N   UNL     1      -0.837  10.377  19.786  0.00  0.00    +0.000 N 
ATOM     25  C   UNL     1      -0.112   9.392  20.408  0.00  0.00    +0.000 A 
ATOM     26  O   UNL     1      -0.391   9.042  21.551  0.00  0.00    +0.000 OA
ATOM     27  H   UNL     1      -1.592  10.783  20.335  0.00  0.00    +0.000 HD
BRANCH  23  28
ATOM     28  C   UNL     1      -1.456  11.995  18.003  0.00  0.00    +0.000 C 
ATOM     29  F   UNL     1      -2.085  11.669  16.845  0.00  0.00    +0.000 F 
ATOM     30  F   UNL     1      -2.421  12.336  18.891  0.00  0.00    +0.000 F 
ATOM     31  F   UNL     1      -0.723  13.109  17.755  0.00  0.00    +0.000 F 
ENDBRANCH  23  28
ENDBRANCH   2  20
TORSDOF 3
ENDMDL
MODEL 5
REMARK VINA RESULT:      -8.1      3.981      7.952
REMARK  Name = 
REMARK  3 active torsions:
REMARK  status: ('A' for Active; 'I' for Inactive)
REMARK    1  A    between atoms: C_2  and  C_19
REMARK    2  A    between atoms: N_3  and  C_4
REMARK    3  A    between atoms: C_22  and  C_23
REMARK                            x       y       z     vdW  Elec       q    Type
REMARK                         _______ _______ _______ _____ _____    ______ ____
ROOT
ATOM      1  O   UNL     1       2.474   9.249  17.311  0.00  0.00    +0.000 OA
ATOM      2  C   UNL     1       1.849   8.977  18.331  0.00  0.00    +0.000 C 
ATOM      3  N   UNL     1       0.961   9.838  18.925  0.00  0.00    +0.000 N 
ATOM      4  H   UNL     1       0.522   9.556  19.797  0.00  0.00    +0.000 HD
ENDROOT
BRANCH   3   5
ATOM      5  C   UNL     1       0.540  11.118  18.367  0.00  0.00    +0.000 C 
ATOM      6  C   UNL     1       1.432  12.242  18.890  0.00  0.00    +0.000 A 
ATOM      7  C   UNL     1       2.435  12.717  18.012  0.00  0.00    +0.000 A 
ATOM      8  C   UNL     1       3.305  13.744  18.373  0.00  0.00    +0.000 A 
ATOM      9  C   UNL     1       3.211  14.313  19.633  0.00  0.00    +0.000 A 
ATOM     10  C   UNL     1       2.241  13.852  20.521  0.00  0.00    +0.000 A 
ATOM     11  C   UNL     1       1.335  12.823  20.174  0.00  0.00    +0.000 A 
ATOM     12  C   UNL     1       0.293  12.515  21.234  0.00  0.00    +0.000 C 
ATOM     13  C   UNL     1      -0.692  11.357  21.075  0.00  0.00    +0.000 C 
ATOM     14  C   UNL     1      -1.538  11.459  19.833  0.00  0.00    +0.000 A 
ATOM     15  C   UNL     1      -2.928  11.623  19.945  0.00  0.00    +0.000 A 
ATOM     16  C   UNL     1      -3.724  11.764  18.810  0.00  0.00    +0.000 A 
ATOM     17  C   UNL     1      -3.138  11.771  17.550  0.00  0.00    +0.000 A 
ATOM     18  C   UNL     1      -1.760  11.590  17.425  0.00  0.00    +0.000 A 
ATOM     19  C   UNL     1      -0.947  11.393  18.557  0.00  0.00    +0.000 A 
ENDBRANCH   3   5
BRANCH   2  20
ATOM     20  C   UNL     1       2.008   7.648  19.021  0.00  0.00    +0.000 A 
ATOM     21  C   UNL     1       2.327   6.551  18.303  0.00  0.00    +0.000 A 
ATOM     22  C   UNL     1       2.404   5.232  18.905  0.00  0.00    +0.000 A 
ATOM     23  C   UNL     1       2.161   5.064  20.218  0.00  0.00    +0.000 A 
ATOM     24  N   UNL     1       1.879   6.186  20.977  0.00  0.00    +0.000 N 
ATOM     25  C   UNL     1       1.788   7.464  20.489  0.00  0.00    +0.000 A 
ATOM     26  O   UNL     1       1.529   8.400  21.240  0.00  0.00    +0.000 OA
ATOM     27  H   UNL     1       1.713   6.081  21.976  0.00  0.00    +0.000 HD
BRANCH  23  28
ATOM     28  C   UNL     1       2.148   3.715  20.909  0.00  0.00    +0.000 C 
ATOM     29  F   UNL     1       3.093   2.890  20.391  0.00  0.00    +0.000 F 
ATOM     30  F   UNL     1       2.406   3.824  22.235  0.00  0.00    +0.000 F 
ATOM     31  F   UNL     1       0.955   3.082  20.780  0.00  0.00    +0.000 F 
ENDBRANCH  23  28
ENDBRANCH   2  20
TORSDOF 3
ENDMDL
MODEL 6
REMARK VINA RESULT:      -7.7      3.990      8.533
REMARK  Name = 
REMARK  3 active torsions:
REMARK  status: ('A' for Active; 'I' for Inactive)
REMARK    1  A    between atoms: C_2  and  C_19
REMARK    2  A    between atoms: N_3  and  C_4
REMARK    3  A    between atoms: C_22  and  C_23
REMARK                            x       y       z     vdW  Elec       q    Type
REMARK                         _______ _______ _______ _____ _____    ______ ____
ROOT
ATOM      1  O   UNL     1       1.524   9.378  22.517  0.00  0.00    +0.000 OA
ATOM      2  C   UNL     1       1.335   9.415  21.306  0.00  0.00    +0.000 C 
ATOM      3  N   UNL     1       0.882  10.529  20.646  0.00  0.00    +0.000 N 
ATOM      4  H   UNL     1       0.702  10.462  19.648  0.00  0.00    +0.000 HD
ENDROOT
BRANCH   3   5
ATOM      5  C   UNL     1       0.696  11.841  21.254  0.00  0.00    +0.000 C 
ATOM      6  C   UNL     1      -0.785  12.092  21.528  0.00  0.00    +0.000 A 
ATOM      7  C   UNL     1      -1.221  11.924  22.864  0.00  0.00    +0.000 A 
ATOM      8  C   UNL     1      -2.548  12.132  23.239  0.00  0.00    +0.000 A 
ATOM      9  C   UNL     1      -3.483  12.493  22.283  0.00  0.00    +0.000 A 
ATOM     10  C   UNL     1      -3.081  12.649  20.957  0.00  0.00    +0.000 A 
ATOM     11  C   UNL     1      -1.739  12.461  20.553  0.00  0.00    +0.000 A 
ATOM     12  C   UNL     1      -1.471  12.762  19.090  0.00  0.00    +0.000 C 
ATOM     13  C   UNL     1      -0.104  12.504  18.457  0.00  0.00    +0.000 C 
ATOM     14  C   UNL     1       1.018  13.248  19.133  0.00  0.00    +0.000 A 
ATOM     15  C   UNL     1       1.727  14.234  18.429  0.00  0.00    +0.000 A 
ATOM     16  C   UNL     1       2.738  14.966  19.049  0.00  0.00    +0.000 A 
ATOM     17  C   UNL     1       3.034  14.740  20.388  0.00  0.00    +0.000 A 
ATOM     18  C   UNL     1       2.348  13.750  21.093  0.00  0.00    +0.000 A 
ATOM     19  C   UNL     1       1.361  12.965  20.469  0.00  0.00    +0.000 A 
ENDBRANCH   3   5
BRANCH   2  20
ATOM     20  C   UNL     1       1.593   8.216  20.432  0.00  0.00    +0.000 A 
ATOM     21  C   UNL     1       1.562   6.976  20.963  0.00  0.00    +0.000 A 
ATOM     22  C   UNL     1       1.891   5.796  20.184  0.00  0.00    +0.000 A 
ATOM     23  C   UNL     1       2.239   5.906  18.889  0.00  0.00    +0.000 A 
ATOM     24  N   UNL     1       2.230   7.166  18.317  0.00  0.00    +0.000 N 
ATOM     25  C   UNL     1       1.931   8.329  18.979  0.00  0.00    +0.000 A 
ATOM     26  O   UNL     1       1.952   9.405  18.388  0.00  0.00    +0.000 OA
ATOM     27  H   UNL     1       2.470   7.267  17.332  0.00  0.00    +0.000 HD
BRANCH  23  28
ATOM     28  C   UNL     1       2.668   4.736  18.027  0.00  0.00    +0.000 C 
ATOM     29  F   UNL     1       3.147   3.718  18.786  0.00  0.00    +0.000 F 
ATOM     30  F   UNL     1       1.636   4.235  17.305  0.00  0.00    +0.000 F 
ATOM     31  F   UNL     1       3.647   5.072  17.151  0.00  0.00    +0.000 F 
ENDBRANCH  23  28
ENDBRANCH   2  20
TORSDOF 3
ENDMDL
MODEL 7
REMARK VINA RESULT:      -7.5      3.825      6.783
REMARK  Name = 
REMARK  3 active torsions:
REMARK  status: ('A' for Active; 'I' for Inactive)
REMARK    1  A    between atoms: C_2  and  C_19
REMARK    2  A    between atoms: N_3  and  C_4
REMARK    3  A    between atoms: C_22  and  C_23
REMARK                            x       y       z     vdW  Elec       q    Type
REMARK                         _______ _______ _______ _____ _____    ______ ____
ROOT
ATOM      1  O   UNL     1      -0.741  13.096  17.811  0.00  0.00    +0.000 OA
ATOM      2  C   UNL     1      -1.241  12.014  18.101  0.00  0.00    +0.000 C 
ATOM      3  N   UNL     1      -0.507  10.874  18.308  0.00  0.00    +0.000 N 
ATOM      4  H   UNL     1      -1.002  10.006  18.495  0.00  0.00    +0.000 HD
ENDROOT
BRANCH   3   5
ATOM      5  C   UNL     1       0.949  10.815  18.346  0.00  0.00    +0.000 C 
ATOM      6  C   UNL     1       1.410   9.439  18.824  0.00  0.00    +0.000 A 
ATOM      7  C   UNL     1       1.862   8.540  17.829  0.00  0.00    +0.000 A 
ATOM      8  C   UNL     1       2.315   7.259  18.142  0.00  0.00    +0.000 A 
ATOM      9  C   UNL     1       2.308   6.832  19.460  0.00  0.00    +0.000 A 
ATOM     10  C   UNL     1       1.853   7.694  20.457  0.00  0.00    +0.000 A 
ATOM     11  C   UNL     1       1.405   9.003  20.168  0.00  0.00    +0.000 A 
ATOM     12  C   UNL     1       1.032   9.827  21.387  0.00  0.00    +0.000 C 
ATOM     13  C   UNL     1       0.421  11.222  21.255  0.00  0.00    +0.000 C 
ATOM     14  C   UNL     1       1.290  12.184  20.488  0.00  0.00    +0.000 A 
ATOM     15  C   UNL     1       1.823  13.311  21.135  0.00  0.00    +0.000 A 
ATOM     16  C   UNL     1       2.665  14.191  20.457  0.00  0.00    +0.000 A 
ATOM     17  C   UNL     1       3.008  13.939  19.133  0.00  0.00    +0.000 A 
ATOM     18  C   UNL     1       2.470  12.832  18.475  0.00  0.00    +0.000 A 
ATOM     19  C   UNL     1       1.576  11.963  19.128  0.00  0.00    +0.000 A 
ENDBRANCH   3   5
BRANCH   2  20
ATOM     20  C   UNL     1      -2.730  11.853  18.260  0.00  0.00    +0.000 A 
ATOM     21  C   UNL     1      -3.350  12.360  19.346  0.00  0.00    +0.000 A 
ATOM     22  C   UNL     1      -4.766  12.155  19.590  0.00  0.00    +0.000 A 
ATOM     23  C   UNL     1      -5.514  11.445  18.725  0.00  0.00    +0.000 A 
ATOM     24  N   UNL     1      -4.903  10.958  17.584  0.00  0.00    +0.000 N 
ATOM     25  C   UNL     1      -3.575  11.108  17.276  0.00  0.00    +0.000 A 
ATOM     26  O   UNL     1      -3.119  10.636  16.238  0.00  0.00    +0.000 OA
ATOM     27  H   UNL     1      -5.457  10.437  16.907  0.00  0.00    +0.000 HD
BRANCH  23  28
ATOM     28  C   UNL     1      -6.979  11.122  18.943  0.00  0.00    +0.000 C 
ATOM     29  F   UNL     1      -7.777  11.986  18.265  0.00  0.00    +0.000 F 
ATOM     30  F   UNL     1      -7.291   9.877  18.509  0.00  0.00    +0.000 F 
ATOM     31  F   UNL     1      -7.334  11.196  20.249  0.00  0.00    +0.000 F 
ENDBRANCH  23  28
ENDBRANCH   2  20
TORSDOF 3
ENDMDL
MODEL 8
REMARK VINA RESULT:      -7.5      5.504      7.492
REMARK  Name = 
REMARK  3 active torsions:
REMARK  status: ('A' for Active; 'I' for Inactive)
REMARK    1  A    between atoms: C_2  and  C_19
REMARK    2  A    between atoms: N_3  and  C_4
REMARK    3  A    between atoms: C_22  and  C_23
REMARK                            x       y       z     vdW  Elec       q    Type
REMARK                         _______ _______ _______ _____ _____    ______ ____
ROOT
ATOM      1  O   UNL     1      -3.342  11.637  19.267  0.00  0.00    +0.000 OA
ATOM      2  C   UNL     1      -2.620  11.650  18.275  0.00  0.00    +0.000 C 
ATOM      3  N   UNL     1      -1.343  12.152  18.277  0.00  0.00    +0.000 N 
ATOM      4  H   UNL     1      -0.829  12.173  17.400  0.00  0.00    +0.000 HD
ENDROOT
BRANCH   3   5
ATOM      5  C   UNL     1      -0.627  12.607  19.462  0.00  0.00    +0.000 C 
ATOM      6  C   UNL     1       0.562  13.477  19.061  0.00  0.00    +0.000 A 
ATOM      7  C   UNL     1       0.398  14.876  19.191  0.00  0.00    +0.000 A 
ATOM      8  C   UNL     1       1.415  15.772  18.864  0.00  0.00    +0.000 A 
ATOM      9  C   UNL     1       2.619  15.295  18.374  0.00  0.00    +0.000 A 
ATOM     10  C   UNL     1       2.800  13.921  18.222  0.00  0.00    +0.000 A 
ATOM     11  C   UNL     1       1.792  12.990  18.563  0.00  0.00    +0.000 A 
ATOM     12  C   UNL     1       2.199  11.535  18.415  0.00  0.00    +0.000 C 
ATOM     13  C   UNL     1       1.200  10.399  18.630  0.00  0.00    +0.000 C 
ATOM     14  C   UNL     1       0.574  10.404  20.000  0.00  0.00    +0.000 A 
ATOM     15  C   UNL     1       0.814   9.339  20.882  0.00  0.00    +0.000 A 
ATOM     16  C   UNL     1       0.281   9.345  22.170  0.00  0.00    +0.000 A 
ATOM     17  C   UNL     1      -0.474  10.429  22.602  0.00  0.00    +0.000 A 
ATOM     18  C   UNL     1      -0.734  11.486  21.727  0.00  0.00    +0.000 A 
ATOM     19  C   UNL     1      -0.249  11.472  20.406  0.00  0.00    +0.000 A 
ENDBRANCH   3   5
BRANCH   2  20
ATOM     20  C   UNL     1      -3.088  11.101  16.953  0.00  0.00    +0.000 A 
ATOM     21  C   UNL     1      -2.293  10.269  16.250  0.00  0.00    +0.000 A 
ATOM     22  C   UNL     1      -2.660   9.784  14.931  0.00  0.00    +0.000 A 
ATOM     23  C   UNL     1      -3.824  10.153  14.366  0.00  0.00    +0.000 A 
ATOM     24  N   UNL     1      -4.671  10.969  15.094  0.00  0.00    +0.000 N 
ATOM     25  C   UNL     1      -4.403  11.469  16.342  0.00  0.00    +0.000 A 
ATOM     26  O   UNL     1      -5.218  12.190  16.912  0.00  0.00    +0.000 OA
ATOM     27  H   UNL     1      -5.566  11.241  14.691  0.00  0.00    +0.000 HD
BRANCH  23  28
ATOM     28  C   UNL     1      -4.248   9.752  12.967  0.00  0.00    +0.000 C 
ATOM     29  F   UNL     1      -5.288   8.881  13.000  0.00  0.00    +0.000 F 
ATOM     30  F   UNL     1      -4.653  10.820  12.237  0.00  0.00    +0.000 F 
ATOM     31  F   UNL     1      -3.247   9.149  12.279  0.00  0.00    +0.000 F 
ENDBRANCH  23  28
ENDBRANCH   2  20
TORSDOF 3
ENDMDL
MODEL 9
REMARK VINA RESULT:      -7.3      5.843      8.001
REMARK  Name = 
REMARK  3 active torsions:
REMARK  status: ('A' for Active; 'I' for Inactive)
REMARK    1  A    between atoms: C_2  and  C_19
REMARK    2  A    between atoms: N_3  and  C_4
REMARK    3  A    between atoms: C_22  and  C_23
REMARK                            x       y       z     vdW  Elec       q    Type
REMARK                         _______ _______ _______ _____ _____    ______ ____
ROOT
ATOM      1  O   UNL     1       2.377  11.159  18.013  0.00  0.00    +0.000 OA
ATOM      2  C   UNL     1       1.915  12.079  18.680  0.00  0.00    +0.000 C 
ATOM      3  N   UNL     1       0.690  12.023  19.295  0.00  0.00    +0.000 N 
ATOM      4  H   UNL     1       0.357  12.848  19.788  0.00  0.00    +0.000 HD
ENDROOT
BRANCH   3   5
ATOM      5  C   UNL     1      -0.160  10.841  19.357  0.00  0.00    +0.000 C 
ATOM      6  C   UNL     1      -1.472  11.093  18.617  0.00  0.00    +0.000 A 
ATOM      7  C   UNL     1      -1.587  10.537  17.320  0.00  0.00    +0.000 A 
ATOM      8  C   UNL     1      -2.738  10.693  16.549  0.00  0.00    +0.000 A 
ATOM      9  C   UNL     1      -3.802  11.428  17.046  0.00  0.00    +0.000 A 
ATOM     10  C   UNL     1      -3.708  11.999  18.314  0.00  0.00    +0.000 A 
ATOM     11  C   UNL     1      -2.558  11.842  19.123  0.00  0.00    +0.000 A 
ATOM     12  C   UNL     1      -2.670  12.456  20.506  0.00  0.00    +0.000 C 
ATOM     13  C   UNL     1      -1.484  12.480  21.470  0.00  0.00    +0.000 C 
ATOM     14  C   UNL     1      -0.942  11.111  21.785  0.00  0.00    +0.000 A 
ATOM     15  C   UNL     1      -1.019  10.614  23.097  0.00  0.00    +0.000 A 
ATOM     16  C   UNL     1      -0.564   9.332  23.402  0.00  0.00    +0.000 A 
ATOM     17  C   UNL     1      -0.054   8.521  22.394  0.00  0.00    +0.000 A 
ATOM     18  C   UNL     1       0.043   9.010  21.091  0.00  0.00    +0.000 A 
ATOM     19  C   UNL     1      -0.362  10.321  20.775  0.00  0.00    +0.000 A 
ENDBRANCH   3   5
BRANCH   2  20
ATOM     20  C   UNL     1       2.674  13.363  18.883  0.00  0.00    +0.000 A 
ATOM     21  C   UNL     1       3.190  14.015  17.820  0.00  0.00    +0.000 A 
ATOM     22  C   UNL     1       4.005  15.207  17.970  0.00  0.00    +0.000 A 
ATOM     23  C   UNL     1       4.269  15.707  19.191  0.00  0.00    +0.000 A 
ATOM     24  N   UNL     1       3.708  15.077  20.287  0.00  0.00    +0.000 N 
ATOM     25  C   UNL     1       2.928  13.950  20.235  0.00  0.00    +0.000 A 
ATOM     26  O   UNL     1       2.474  13.459  21.264  0.00  0.00    +0.000 OA
ATOM     27  H   UNL     1       3.879  15.453  21.218  0.00  0.00    +0.000 HD
BRANCH  23  28
ATOM     28  C   UNL     1       5.169  16.901  19.438  0.00  0.00    +0.000 C 
ATOM     29  F   UNL     1       5.710  17.356  18.279  0.00  0.00    +0.000 F 
ATOM     30  F   UNL     1       4.493  17.938  19.989  0.00  0.00    +0.000 F 
ATOM     31  F   UNL     1       6.201  16.605  20.268  0.00  0.00    +0.000 F 
ENDBRANCH  23  28
ENDBRANCH   2  20
TORSDOF 3
ENDMDL
