MODEL 1
REMARK VINA RESULT:      -9.7      0.000      0.000
REMARK  Name = 
REMARK  10 active torsions:
REMARK  status: ('A' for Active; 'I' for Inactive)
REMARK    1  A    between atoms: C_2  and  OXT_3
REMARK    2  A    between atoms: C_2  and  CA_4
REMARK    3  A    between atoms: C_6  and  C_7
REMARK    4  A    between atoms: C_10  and  O_11
REMARK    5  A    between atoms: O_11  and  C_12
REMARK    6  A    between atoms: C_22  and  N_23
REMARK    7  A    between atoms: N_23  and  C_24
REMARK    8  A    between atoms: N_23  and  C_31
REMARK    9  A    between atoms: C_24  and  C_25
REMARK   10  A    between atoms: C_25  and  C_26
REMARK                            x       y       z     vdW  Elec       q    Type
REMARK                         _______ _______ _______ _____ _____    ______ ____
ROOT
ATOM      1  CA  UNL     1       3.028   3.495  17.988  0.00  0.00    +0.000 A 
ATOM      2  C   UNL     1       2.382   4.683  18.247  0.00  0.00    +0.000 A 
ATOM      3  C   UNL     1       3.063   5.866  17.984  0.00  0.00    +0.000 A 
ATOM      4  C   UNL     1       4.334   5.761  17.383  0.00  0.00    +0.000 A 
ATOM      5  C   UNL     1       4.938   4.522  17.123  0.00  0.00    +0.000 A 
ATOM      6  N   UNL     1       4.293   3.393  17.486  0.00  0.00    +0.000 NA
ENDROOT
BRANCH   3   7
ATOM      7  C   UNL     1       2.481   7.175  18.342  0.00  0.00    +0.000 A 
ATOM      8  C   UNL     1       1.902   7.389  19.608  0.00  0.00    +0.000 A 
ATOM      9  C   UNL     1       1.400   8.643  19.972  0.00  0.00    +0.000 A 
ATOM     10  C   UNL     1       1.486   9.712  19.086  0.00  0.00    +0.000 A 
ATOM     11  C   UNL     1       1.993   9.503  17.803  0.00  0.00    +0.000 A 
ATOM     12  C   UNL     1       2.505   8.254  17.445  0.00  0.00    +0.000 A 
BRANCH  10  13
ATOM     13  O   UNL     1       1.003  10.915  19.540  0.00  0.00    +0.000 OA
BRANCH  13  14
ATOM     14  C   UNL     1      -0.332  11.208  19.380  0.00  0.00    +0.000 A 
ATOM     15  C   UNL     1      -0.900  12.007  20.376  0.00  0.00    +0.000 A 
ATOM     16  C   UNL     1      -2.252  12.346  20.310  0.00  0.00    +0.000 A 
ATOM     17  C   UNL     1      -3.022  11.884  19.247  0.00  0.00    +0.000 A 
ATOM     18  F   UNL     1      -4.325  12.189  19.197  0.00  0.00    +0.000 F 
ATOM     19  C   UNL     1      -2.462  11.116  18.234  0.00  0.00    +0.000 A 
ATOM     20  C   UNL     1      -1.104  10.802  18.285  0.00  0.00    +0.000 A 
ENDBRANCH  13  14
ENDBRANCH  10  13
ENDBRANCH   3   7
BRANCH   1  22
ATOM     21  O   UNL     1       1.139   2.101  18.493  0.00  0.00    +0.000 OA
ATOM     22  C   UNL     1       2.337   2.211  18.294  0.00  0.00    +0.000 C 
BRANCH  22  23
ATOM     23  OXT UNL     1       3.220   1.189  18.360  0.00  0.00    +0.000 OA
ATOM     24  HXT UNL     1       3.442   0.885  17.451  0.00  0.00    +0.000 HD
ENDBRANCH  22  23
ENDBRANCH   1  22
BRANCH   5  25
ATOM     25  N   UNL     1       6.195   4.469  16.468  0.00  0.00    +0.000 N 
BRANCH  25  26
ATOM     26  C   UNL     1       6.410   4.390  15.051  0.00  0.00    +0.000 A 
ATOM     27  C   UNL     1       5.627   3.542  14.243  0.00  0.00    +0.000 A 
ATOM     28  C   UNL     1       5.825   3.445  12.858  0.00  0.00    +0.000 A 
ATOM     29  C   UNL     1       6.802   4.213  12.235  0.00  0.00    +0.000 A 
ATOM     30  C   UNL     1       7.586   5.067  13.000  0.00  0.00    +0.000 A 
ATOM     31  C   UNL     1       7.395   5.148  14.386  0.00  0.00    +0.000 A 
ENDBRANCH  25  26
BRANCH  25  32
ATOM     32  C   UNL     1       7.464   4.546  17.265  0.00  0.00    +0.000 C 
BRANCH  32  33
ATOM     33  C   UNL     1       7.490   5.410  18.525  0.00  0.00    +0.000 C 
BRANCH  33  34
ATOM     34  C   UNL     1       7.718   6.848  18.259  0.00  0.00    +0.000 A 
ATOM     35  N   UNL     1       7.169   7.525  17.207  0.00  0.00    +0.000 NA
ATOM     36  N   UNL     1       7.689   8.746  17.240  0.00  0.00    +0.000 NA
ATOM     37  N   UNL     1       8.528   8.733  18.282  0.00  0.00    +0.000 N 
ATOM     38  N   UNL     1       8.576   7.587  18.978  0.00  0.00    +0.000 NA
ATOM     39  H   UNL     1       9.102   9.537  18.524  0.00  0.00    +0.000 HD
ENDBRANCH  33  34
ENDBRANCH  32  33
ENDBRANCH  25  32
ENDBRANCH   5  25
TORSDOF 10
ENDMDL
MODEL 2
REMARK VINA RESULT:      -9.7      2.738      4.490
REMARK  Name = 
REMARK  10 active torsions:
REMARK  status: ('A' for Active; 'I' for Inactive)
REMARK    1  A    between atoms: C_2  and  OXT_3
REMARK    2  A    between atoms: C_2  and  CA_4
REMARK    3  A    between atoms: C_6  and  C_7
REMARK    4  A    between atoms: C_10  and  O_11
REMARK    5  A    between atoms: O_11  and  C_12
REMARK    6  A    between atoms: C_22  and  N_23
REMARK    7  A    between atoms: N_23  and  C_24
REMARK    8  A    between atoms: N_23  and  C_31
REMARK    9  A    between atoms: C_24  and  C_25
REMARK   10  A    between atoms: C_25  and  C_26
REMARK                            x       y       z     vdW  Elec       q    Type
REMARK                         _______ _______ _______ _____ _____    ______ ____
ROOT
ATOM      1  CA  UNL     1       2.256   4.488  20.766  0.00  0.00    +0.000 A 
ATOM      2  C   UNL     1       1.589   5.681  20.931  0.00  0.00    +0.000 A 
ATOM      3  C   UNL     1       2.088   6.803  20.278  0.00  0.00    +0.000 A 
ATOM      4  C   UNL     1       3.188   6.614  19.418  0.00  0.00    +0.000 A 
ATOM      5  C   UNL     1       3.819   5.370  19.272  0.00  0.00    +0.000 A 
ATOM      6  N   UNL     1       3.374   4.323  20.001  0.00  0.00    +0.000 NA
ENDROOT
BRANCH   3   7
ATOM      7  C   UNL     1       1.495   8.137  20.496  0.00  0.00    +0.000 A 
ATOM      8  C   UNL     1       1.061   8.536  21.776  0.00  0.00    +0.000 A 
ATOM      9  C   UNL     1       0.552   9.820  22.000  0.00  0.00    +0.000 A 
ATOM     10  C   UNL     1       0.485  10.735  20.954  0.00  0.00    +0.000 A 
ATOM     11  C   UNL     1       0.845  10.336  19.667  0.00  0.00    +0.000 A 
ATOM     12  C   UNL     1       1.365   9.059  19.447  0.00  0.00    +0.000 A 
BRANCH  10  13
ATOM     13  O   UNL     1       0.007  11.983  21.271  0.00  0.00    +0.000 OA
BRANCH  13  14
ATOM     14  C   UNL     1      -1.352  12.197  21.297  0.00  0.00    +0.000 A 
ATOM     15  C   UNL     1      -1.926  12.296  22.567  0.00  0.00    +0.000 A 
ATOM     16  C   UNL     1      -3.301  12.499  22.695  0.00  0.00    +0.000 A 
ATOM     17  C   UNL     1      -4.087  12.603  21.552  0.00  0.00    +0.000 A 
ATOM     18  F   UNL     1      -5.409  12.772  21.675  0.00  0.00    +0.000 F 
ATOM     19  C   UNL     1      -3.524  12.538  20.283  0.00  0.00    +0.000 A 
ATOM     20  C   UNL     1      -2.145  12.365  20.155  0.00  0.00    +0.000 A 
ENDBRANCH  13  14
ENDBRANCH  10  13
ENDBRANCH   3   7
BRANCH   1  22
ATOM     21  O   UNL     1       2.388   2.691  22.354  0.00  0.00    +0.000 OA
ATOM     22  C   UNL     1       1.767   3.278  21.484  0.00  0.00    +0.000 C 
BRANCH  22  23
ATOM     23  OXT UNL     1       0.557   2.894  21.017  0.00  0.00    +0.000 OA
ATOM     24  HXT UNL     1       0.562   1.926  20.843  0.00  0.00    +0.000 HD
ENDBRANCH  22  23
ENDBRANCH   1  22
BRANCH   5  25
ATOM     25  N   UNL     1       4.890   5.219  18.353  0.00  0.00    +0.000 N 
BRANCH  25  26
ATOM     26  C   UNL     1       6.043   6.067  18.249  0.00  0.00    +0.000 A 
ATOM     27  C   UNL     1       7.156   5.888  19.095  0.00  0.00    +0.000 A 
ATOM     28  C   UNL     1       8.289   6.710  19.014  0.00  0.00    +0.000 A 
ATOM     29  C   UNL     1       8.353   7.724  18.067  0.00  0.00    +0.000 A 
ATOM     30  C   UNL     1       7.277   7.924  17.210  0.00  0.00    +0.000 A 
ATOM     31  C   UNL     1       6.140   7.110  17.306  0.00  0.00    +0.000 A 
ENDBRANCH  25  26
BRANCH  25  32
ATOM     32  C   UNL     1       4.909   4.058  17.403  0.00  0.00    +0.000 C 
BRANCH  32  33
ATOM     33  C   UNL     1       3.674   3.787  16.548  0.00  0.00    +0.000 C 
BRANCH  33  34
ATOM     34  C   UNL     1       2.619   3.021  17.248  0.00  0.00    +0.000 A 
ATOM     35  N   UNL     1       1.342   3.472  17.430  0.00  0.00    +0.000 NA
ATOM     36  N   UNL     1       0.734   2.568  18.187  0.00  0.00    +0.000 NA
ATOM     37  N   UNL     1       1.669   1.643  18.435  0.00  0.00    +0.000 N 
ATOM     38  N   UNL     1       2.861   1.850  17.858  0.00  0.00    +0.000 NA
ATOM     39  H   UNL     1       1.490   0.840  19.032  0.00  0.00    +0.000 HD
ENDBRANCH  33  34
ENDBRANCH  32  33
ENDBRANCH  25  32
ENDBRANCH   5  25
TORSDOF 10
ENDMDL
MODEL 3
REMARK VINA RESULT:      -9.6      1.088      1.414
REMARK  Name = 
REMARK  10 active torsions:
REMARK  status: ('A' for Active; 'I' for Inactive)
REMARK    1  A    between atoms: C_2  and  OXT_3
REMARK    2  A    between atoms: C_2  and  CA_4
REMARK    3  A    between atoms: C_6  and  C_7
REMARK    4  A    between atoms: C_10  and  O_11
REMARK    5  A    between atoms: O_11  and  C_12
REMARK    6  A    between atoms: C_22  and  N_23
REMARK    7  A    between atoms: N_23  and  C_24
REMARK    8  A    between atoms: N_23  and  C_31
REMARK    9  A    between atoms: C_24  and  C_25
REMARK   10  A    between atoms: C_25  and  C_26
REMARK                            x       y       z     vdW  Elec       q    Type
REMARK                         _______ _______ _______ _____ _____    ______ ____
ROOT
ATOM      1  CA  UNL     1       3.534   3.825  19.437  0.00  0.00    +0.000 A 
ATOM      2  C   UNL     1       2.757   4.962  19.463  0.00  0.00    +0.000 A 
ATOM      3  C   UNL     1       3.215   6.080  18.774  0.00  0.00    +0.000 A 
ATOM      4  C   UNL     1       4.398   5.935  18.021  0.00  0.00    +0.000 A 
ATOM      5  C   UNL     1       5.140   4.746  18.015  0.00  0.00    +0.000 A 
ATOM      6  N   UNL     1       4.723   3.713  18.778  0.00  0.00    +0.000 NA
ENDROOT
BRANCH   3   7
ATOM      7  C   UNL     1       2.496   7.367  18.849  0.00  0.00    +0.000 A 
ATOM      8  C   UNL     1       2.478   8.252  17.754  0.00  0.00    +0.000 A 
ATOM      9  C   UNL     1       1.751   9.447  17.800  0.00  0.00    +0.000 A 
ATOM     10  C   UNL     1       1.013   9.770  18.934  0.00  0.00    +0.000 A 
ATOM     11  C   UNL     1       1.073   8.940  20.053  0.00  0.00    +0.000 A 
ATOM     12  C   UNL     1       1.789   7.742  20.001  0.00  0.00    +0.000 A 
BRANCH  10  13
ATOM     13  O   UNL     1       0.300  10.942  18.879  0.00  0.00    +0.000 OA
BRANCH  13  14
ATOM     14  C   UNL     1      -1.029  10.907  18.524  0.00  0.00    +0.000 A 
ATOM     15  C   UNL     1      -1.848  11.850  19.149  0.00  0.00    +0.000 A 
ATOM     16  C   UNL     1      -3.215  11.883  18.865  0.00  0.00    +0.000 A 
ATOM     17  C   UNL     1      -3.746  10.974  17.956  0.00  0.00    +0.000 A 
ATOM     18  F   UNL     1      -5.061  10.989  17.703  0.00  0.00    +0.000 F 
ATOM     19  C   UNL     1      -2.937  10.052  17.304  0.00  0.00    +0.000 A 
ATOM     20  C   UNL     1      -1.567  10.038  17.566  0.00  0.00    +0.000 A 
ENDBRANCH  13  14
ENDBRANCH  10  13
ENDBRANCH   3   7
BRANCH   1  22
ATOM     21  O   UNL     1       2.006   2.078  20.056  0.00  0.00    +0.000 OA
ATOM     22  C   UNL     1       3.087   2.624  20.197  0.00  0.00    +0.000 C 
BRANCH  22  23
ATOM     23  OXT UNL     1       4.026   2.241  21.092  0.00  0.00    +0.000 OA
ATOM     24  HXT UNL     1       4.835   1.946  20.617  0.00  0.00    +0.000 HD
ENDBRANCH  22  23
ENDBRANCH   1  22
BRANCH   5  25
ATOM     25  N   UNL     1       6.295   4.633  17.198  0.00  0.00    +0.000 N 
BRANCH  25  26
ATOM     26  C   UNL     1       6.313   4.480  15.772  0.00  0.00    +0.000 A 
ATOM     27  C   UNL     1       5.247   3.856  15.094  0.00  0.00    +0.000 A 
ATOM     28  C   UNL     1       5.247   3.689  13.702  0.00  0.00    +0.000 A 
ATOM     29  C   UNL     1       6.308   4.164  12.940  0.00  0.00    +0.000 A 
ATOM     30  C   UNL     1       7.373   4.793  13.574  0.00  0.00    +0.000 A 
ATOM     31  C   UNL     1       7.375   4.942  14.968  0.00  0.00    +0.000 A 
ENDBRANCH  25  26
BRANCH  25  32
ATOM     32  C   UNL     1       7.662   4.724  17.810  0.00  0.00    +0.000 C 
BRANCH  32  33
ATOM     33  C   UNL     1       7.902   5.736  18.928  0.00  0.00    +0.000 C 
BRANCH  33  34
ATOM     34  C   UNL     1       7.976   7.138  18.459  0.00  0.00    +0.000 A 
ATOM     35  N   UNL     1       7.461   7.572  17.269  0.00  0.00    +0.000 NA
ATOM     36  N   UNL     1       7.818   8.845  17.154  0.00  0.00    +0.000 NA
ATOM     37  N   UNL     1       8.536   9.101  18.254  0.00  0.00    +0.000 N 
ATOM     38  N   UNL     1       8.652   8.087  19.124  0.00  0.00    +0.000 NA
ATOM     39  H   UNL     1       8.976  10.004  18.415  0.00  0.00    +0.000 HD
ENDBRANCH  33  34
ENDBRANCH  32  33
ENDBRANCH  25  32
ENDBRANCH   5  25
TORSDOF 10
ENDMDL
MODEL 4
REMARK VINA RESULT:      -9.4      2.330      3.917
REMARK  Name = 
REMARK  10 active torsions:
REMARK  status: ('A' for Active; 'I' for Inactive)
REMARK    1  A    between atoms: C_2  and  OXT_3
REMARK    2  A    between atoms: C_2  and  CA_4
REMARK    3  A    between atoms: C_6  and  C_7
REMARK    4  A    between atoms: C_10  and  O_11
REMARK    5  A    between atoms: O_11  and  C_12
REMARK    6  A    between atoms: C_22  and  N_23
REMARK    7  A    between atoms: N_23  and  C_24
REMARK    8  A    between atoms: N_23  and  C_31
REMARK    9  A    between atoms: C_24  and  C_25
REMARK   10  A    between atoms: C_25  and  C_26
REMARK                            x       y       z     vdW  Elec       q    Type
REMARK                         _______ _______ _______ _____ _____    ______ ____
ROOT
ATOM      1  CA  UNL     1       1.788   4.480  19.899  0.00  0.00    +0.000 A 
ATOM      2  C   UNL     1       1.216   5.663  20.310  0.00  0.00    +0.000 A 
ATOM      3  C   UNL     1       1.849   6.850  19.956  0.00  0.00    +0.000 A 
ATOM      4  C   UNL     1       2.980   6.755  19.120  0.00  0.00    +0.000 A 
ATOM      5  C   UNL     1       3.509   5.521  18.714  0.00  0.00    +0.000 A 
ATOM      6  N   UNL     1       2.932   4.385  19.162  0.00  0.00    +0.000 NA
ENDROOT
BRANCH   3   7
ATOM      7  C   UNL     1       1.361   8.150  20.455  0.00  0.00    +0.000 A 
ATOM      8  C   UNL     1       1.273   8.410  21.836  0.00  0.00    +0.000 A 
ATOM      9  C   UNL     1       0.866   9.660  22.314  0.00  0.00    +0.000 A 
ATOM     10  C   UNL     1       0.557  10.681  21.421  0.00  0.00    +0.000 A 
ATOM     11  C   UNL     1       0.571  10.422  20.050  0.00  0.00    +0.000 A 
ATOM     12  C   UNL     1       0.990   9.178  19.574  0.00  0.00    +0.000 A 
BRANCH  10  13
ATOM     13  O   UNL     1       0.202  11.886  21.976  0.00  0.00    +0.000 OA
BRANCH  13  14
ATOM     14  C   UNL     1      -1.130  12.181  22.151  0.00  0.00    +0.000 A 
ATOM     15  C   UNL     1      -1.745  12.854  21.093  0.00  0.00    +0.000 A 
ATOM     16  C   UNL     1      -3.092  13.210  21.184  0.00  0.00    +0.000 A 
ATOM     17  C   UNL     1      -3.810  12.886  22.330  0.00  0.00    +0.000 A 
ATOM     18  F   UNL     1      -5.095  13.250  22.427  0.00  0.00    +0.000 F 
ATOM     19  C   UNL     1      -3.219  12.189  23.376  0.00  0.00    +0.000 A 
ATOM     20  C   UNL     1      -1.880  11.807  23.273  0.00  0.00    +0.000 A 
ENDBRANCH  13  14
ENDBRANCH  10  13
ENDBRANCH   3   7
BRANCH   1  22
ATOM     21  O   UNL     1       0.495   2.486  19.551  0.00  0.00    +0.000 OA
ATOM     22  C   UNL     1       1.153   3.191  20.296  0.00  0.00    +0.000 C 
BRANCH  22  23
ATOM     23  OXT UNL     1       1.374   2.925  21.604  0.00  0.00    +0.000 OA
ATOM     24  HXT UNL     1       1.181   3.726  22.141  0.00  0.00    +0.000 HD
ENDBRANCH  22  23
ENDBRANCH   1  22
BRANCH   5  25
ATOM     25  N   UNL     1       4.618   5.480  17.830  0.00  0.00    +0.000 N 
BRANCH  25  26
ATOM     26  C   UNL     1       5.895   6.098  18.042  0.00  0.00    +0.000 A 
ATOM     27  C   UNL     1       6.278   7.245  17.318  0.00  0.00    +0.000 A 
ATOM     28  C   UNL     1       7.524   7.860  17.505  0.00  0.00    +0.000 A 
ATOM     29  C   UNL     1       8.419   7.358  18.442  0.00  0.00    +0.000 A 
ATOM     30  C   UNL     1       8.072   6.234  19.180  0.00  0.00    +0.000 A 
ATOM     31  C   UNL     1       6.832   5.613  18.978  0.00  0.00    +0.000 A 
ENDBRANCH  25  26
BRANCH  25  32
ATOM     32  C   UNL     1       4.535   4.694  16.555  0.00  0.00    +0.000 C 
BRANCH  32  33
ATOM     33  C   UNL     1       5.695   3.775  16.180  0.00  0.00    +0.000 C 
BRANCH  33  34
ATOM     34  C   UNL     1       6.456   4.225  14.993  0.00  0.00    +0.000 A 
ATOM     35  N   UNL     1       7.461   5.149  15.038  0.00  0.00    +0.000 NA
ATOM     36  N   UNL     1       7.817   5.371  13.779  0.00  0.00    +0.000 NA
ATOM     37  N   UNL     1       7.004   4.596  13.051  0.00  0.00    +0.000 N 
ATOM     38  N   UNL     1       6.146   3.835  13.747  0.00  0.00    +0.000 NA
ATOM     39  H   UNL     1       7.026   4.593  12.034  0.00  0.00    +0.000 HD
ENDBRANCH  33  34
ENDBRANCH  32  33
ENDBRANCH  25  32
ENDBRANCH   5  25
TORSDOF 10
ENDMDL
MODEL 5
REMARK VINA RESULT:      -9.3      3.020      4.812
REMARK  Name = 
REMARK  10 active torsions:
REMARK  status: ('A' for Active; 'I' for Inactive)
REMARK    1  A    between atoms: C_2  and  OXT_3
REMARK    2  A    between atoms: C_2  and  CA_4
REMARK    3  A    between atoms: C_6  and  C_7
REMARK    4  A    between atoms: C_10  and  O_11
REMARK    5  A    between atoms: O_11  and  C_12
REMARK    6  A    between atoms: C_22  and  N_23
REMARK    7  A    between atoms: N_23  and  C_24
REMARK    8  A    between atoms: N_23  and  C_31
REMARK    9  A    between atoms: C_24  and  C_25
REMARK   10  A    between atoms: C_25  and  C_26
REMARK                            x       y       z     vdW  Elec       q    Type
REMARK                         _______ _______ _______ _____ _____    ______ ____
ROOT
ATOM      1  CA  UNL     1       2.105   4.789  20.714  0.00  0.00    +0.000 A 
ATOM      2  C   UNL     1       1.391   5.944  20.942  0.00  0.00    +0.000 A 
ATOM      3  C   UNL     1       1.776   7.093  20.261  0.00  0.00    +0.000 A 
ATOM      4  C   UNL     1       2.813   6.967  19.315  0.00  0.00    +0.000 A 
ATOM      5  C   UNL     1       3.495   5.759  19.109  0.00  0.00    +0.000 A 
ATOM      6  N   UNL     1       3.165   4.687  19.862  0.00  0.00    +0.000 NA
ENDROOT
BRANCH   3   7
ATOM      7  C   UNL     1       1.134   8.393  20.538  0.00  0.00    +0.000 A 
ATOM      8  C   UNL     1       0.871   8.805  21.859  0.00  0.00    +0.000 A 
ATOM      9  C   UNL     1       0.314  10.060  22.129  0.00  0.00    +0.000 A 
ATOM     10  C   UNL     1       0.029  10.935  21.086  0.00  0.00    +0.000 A 
ATOM     11  C   UNL     1       0.218  10.519  19.768  0.00  0.00    +0.000 A 
ATOM     12  C   UNL     1       0.785   9.271  19.500  0.00  0.00    +0.000 A 
BRANCH  10  13
ATOM     13  O   UNL     1      -0.480  12.159  21.445  0.00  0.00    +0.000 OA
BRANCH  13  14
ATOM     14  C   UNL     1      -0.055  13.286  20.780  0.00  0.00    +0.000 A 
ATOM     15  C   UNL     1       1.277  13.649  20.994  0.00  0.00    +0.000 A 
ATOM     16  C   UNL     1       1.797  14.787  20.375  0.00  0.00    +0.000 A 
ATOM     17  C   UNL     1       0.980  15.548  19.547  0.00  0.00    +0.000 A 
ATOM     18  F   UNL     1       1.471  16.654  18.973  0.00  0.00    +0.000 F 
ATOM     19  C   UNL     1      -0.337  15.181  19.300  0.00  0.00    +0.000 A 
ATOM     20  C   UNL     1      -0.848  14.027  19.896  0.00  0.00    +0.000 A 
ENDBRANCH  13  14
ENDBRANCH  10  13
ENDBRANCH   3   7
BRANCH   1  22
ATOM     21  O   UNL     1       2.354   3.111  22.415  0.00  0.00    +0.000 OA
ATOM     22  C   UNL     1       1.739   3.551  21.458  0.00  0.00    +0.000 C 
BRANCH  22  23
ATOM     23  OXT UNL     1       0.653   2.959  20.909  0.00  0.00    +0.000 OA
ATOM     24  HXT UNL     1       0.649   2.002  21.135  0.00  0.00    +0.000 HD
ENDBRANCH  22  23
ENDBRANCH   1  22
BRANCH   5  25
ATOM     25  N   UNL     1       4.496   5.670  18.107  0.00  0.00    +0.000 N 
BRANCH  25  26
ATOM     26  C   UNL     1       5.823   6.210  18.184  0.00  0.00    +0.000 A 
ATOM     27  C   UNL     1       6.771   5.684  19.084  0.00  0.00    +0.000 A 
ATOM     28  C   UNL     1       8.071   6.201  19.180  0.00  0.00    +0.000 A 
ATOM     29  C   UNL     1       8.469   7.250  18.360  0.00  0.00    +0.000 A 
ATOM     30  C   UNL     1       7.563   7.787  17.455  0.00  0.00    +0.000 A 
ATOM     31  C   UNL     1       6.261   7.278  17.374  0.00  0.00    +0.000 A 
ENDBRANCH  25  26
BRANCH  25  32
ATOM     32  C   UNL     1       4.228   4.912  16.840  0.00  0.00    +0.000 C 
BRANCH  32  33
ATOM     33  C   UNL     1       4.391   3.394  16.843  0.00  0.00    +0.000 C 
BRANCH  33  34
ATOM     34  C   UNL     1       3.249   2.671  17.447  0.00  0.00    +0.000 A 
ATOM     35  N   UNL     1       1.947   3.069  17.330  0.00  0.00    +0.000 NA
ATOM     36  N   UNL     1       1.238   2.243  18.089  0.00  0.00    +0.000 NA
ATOM     37  N   UNL     1       2.140   1.417  18.633  0.00  0.00    +0.000 N 
ATOM     38  N   UNL     1       3.412   1.611  18.254  0.00  0.00    +0.000 NA
ATOM     39  H   UNL     1       1.879   0.695  19.299  0.00  0.00    +0.000 HD
ENDBRANCH  33  34
ENDBRANCH  32  33
ENDBRANCH  25  32
ENDBRANCH   5  25
TORSDOF 10
ENDMDL
MODEL 6
REMARK VINA RESULT:      -9.2      2.609      4.130
REMARK  Name = 
REMARK  10 active torsions:
REMARK  status: ('A' for Active; 'I' for Inactive)
REMARK    1  A    between atoms: C_2  and  OXT_3
REMARK    2  A    between atoms: C_2  and  CA_4
REMARK    3  A    between atoms: C_6  and  C_7
REMARK    4  A    between atoms: C_10  and  O_11
REMARK    5  A    between atoms: O_11  and  C_12
REMARK    6  A    between atoms: C_22  and  N_23
REMARK    7  A    between atoms: N_23  and  C_24
REMARK    8  A    between atoms: N_23  and  C_31
REMARK    9  A    between atoms: C_24  and  C_25
REMARK   10  A    between atoms: C_25  and  C_26
REMARK                            x       y       z     vdW  Elec       q    Type
REMARK                         _______ _______ _______ _____ _____    ______ ____
ROOT
ATOM      1  CA  UNL     1       1.817   4.508  20.192  0.00  0.00    +0.000 A 
ATOM      2  C   UNL     1       1.239   5.711  20.531  0.00  0.00    +0.000 A 
ATOM      3  C   UNL     1       1.848   6.876  20.078  0.00  0.00    +0.000 A 
ATOM      4  C   UNL     1       2.962   6.734  19.226  0.00  0.00    +0.000 A 
ATOM      5  C   UNL     1       3.498   5.481  18.898  0.00  0.00    +0.000 A 
ATOM      6  N   UNL     1       2.946   4.373  19.438  0.00  0.00    +0.000 NA
ENDROOT
BRANCH   3   7
ATOM      7  C   UNL     1       1.353   8.203  20.493  0.00  0.00    +0.000 A 
ATOM      8  C   UNL     1       1.137   8.503  21.852  0.00  0.00    +0.000 A 
ATOM      9  C   UNL     1       0.723   9.777  22.256  0.00  0.00    +0.000 A 
ATOM     10  C   UNL     1       0.538  10.782  21.312  0.00  0.00    +0.000 A 
ATOM     11  C   UNL     1       0.681  10.485  19.956  0.00  0.00    +0.000 A 
ATOM     12  C   UNL     1       1.106   9.217  19.555  0.00  0.00    +0.000 A 
BRANCH  10  13
ATOM     13  O   UNL     1       0.168  12.011  21.799  0.00  0.00    +0.000 OA
BRANCH  13  14
ATOM     14  C   UNL     1       0.403  13.135  21.041  0.00  0.00    +0.000 A 
ATOM     15  C   UNL     1      -0.723  13.711  20.447  0.00  0.00    +0.000 A 
ATOM     16  C   UNL     1      -0.583  14.846  19.646  0.00  0.00    +0.000 A 
ATOM     17  C   UNL     1       0.680  15.394  19.451  0.00  0.00    +0.000 A 
ATOM     18  F   UNL     1       0.817  16.468  18.663  0.00  0.00    +0.000 F 
ATOM     19  C   UNL     1       1.803  14.850  20.062  0.00  0.00    +0.000 A 
ATOM     20  C   UNL     1       1.659  13.733  20.885  0.00  0.00    +0.000 A 
ENDBRANCH  13  14
ENDBRANCH  10  13
ENDBRANCH   3   7
BRANCH   1  22
ATOM     21  O   UNL     1       1.489   2.714  21.757  0.00  0.00    +0.000 OA
ATOM     22  C   UNL     1       1.208   3.244  20.695  0.00  0.00    +0.000 C 
BRANCH  22  23
ATOM     23  OXT UNL     1       0.327   2.741  19.799  0.00  0.00    +0.000 OA
ATOM     24  HXT UNL     1       0.812   2.405  19.012  0.00  0.00    +0.000 HD
ENDBRANCH  22  23
ENDBRANCH   1  22
BRANCH   5  25
ATOM     25  N   UNL     1       4.588   5.389  17.994  0.00  0.00    +0.000 N 
BRANCH  25  26
ATOM     26  C   UNL     1       5.855   6.050  18.123  0.00  0.00    +0.000 A 
ATOM     27  C   UNL     1       6.155   7.200  17.365  0.00  0.00    +0.000 A 
ATOM     28  C   UNL     1       7.390   7.857  17.471  0.00  0.00    +0.000 A 
ATOM     29  C   UNL     1       8.355   7.396  18.357  0.00  0.00    +0.000 A 
ATOM     30  C   UNL     1       8.089   6.270  19.127  0.00  0.00    +0.000 A 
ATOM     31  C   UNL     1       6.860   5.607  19.006  0.00  0.00    +0.000 A 
ENDBRANCH  25  26
BRANCH  25  32
ATOM     32  C   UNL     1       4.495   4.496  16.791  0.00  0.00    +0.000 C 
BRANCH  32  33
ATOM     33  C   UNL     1       5.713   3.664  16.398  0.00  0.00    +0.000 C 
BRANCH  33  34
ATOM     34  C   UNL     1       6.397   4.144  15.176  0.00  0.00    +0.000 A 
ATOM     35  N   UNL     1       7.436   5.032  15.183  0.00  0.00    +0.000 NA
ATOM     36  N   UNL     1       7.701   5.301  13.911  0.00  0.00    +0.000 NA
ATOM     37  N   UNL     1       6.807   4.588  13.215  0.00  0.00    +0.000 N 
ATOM     38  N   UNL     1       5.979   3.823  13.942  0.00  0.00    +0.000 NA
ATOM     39  H   UNL     1       6.751   4.632  12.201  0.00  0.00    +0.000 HD
ENDBRANCH  33  34
ENDBRANCH  32  33
ENDBRANCH  25  32
ENDBRANCH   5  25
TORSDOF 10
ENDMDL
MODEL 7
REMARK VINA RESULT:      -9.2      0.663      1.318
REMARK  Name = 
REMARK  10 active torsions:
REMARK  status: ('A' for Active; 'I' for Inactive)
REMARK    1  A    between atoms: C_2  and  OXT_3
REMARK    2  A    between atoms: C_2  and  CA_4
REMARK    3  A    between atoms: C_6  and  C_7
REMARK    4  A    between atoms: C_10  and  O_11
REMARK    5  A    between atoms: O_11  and  C_12
REMARK    6  A    between atoms: C_22  and  N_23
REMARK    7  A    between atoms: N_23  and  C_24
REMARK    8  A    between atoms: N_23  and  C_31
REMARK    9  A    between atoms: C_24  and  C_25
REMARK   10  A    between atoms: C_25  and  C_26
REMARK                            x       y       z     vdW  Elec       q    Type
REMARK                         _______ _______ _______ _____ _____    ______ ____
ROOT
ATOM      1  CA  UNL     1       3.273   3.576  17.750  0.00  0.00    +0.000 A 
ATOM      2  C   UNL     1       2.583   4.682  18.193  0.00  0.00    +0.000 A 
ATOM      3  C   UNL     1       3.112   5.936  17.911  0.00  0.00    +0.000 A 
ATOM      4  C   UNL     1       4.270   5.984  17.109  0.00  0.00    +0.000 A 
ATOM      5  C   UNL     1       4.923   4.824  16.668  0.00  0.00    +0.000 A 
ATOM      6  N   UNL     1       4.442   3.620  17.047  0.00  0.00    +0.000 NA
ENDROOT
BRANCH   3   7
ATOM      7  C   UNL     1       2.491   7.162  18.449  0.00  0.00    +0.000 A 
ATOM      8  C   UNL     1       2.280   8.288  17.630  0.00  0.00    +0.000 A 
ATOM      9  C   UNL     1       1.641   9.432  18.120  0.00  0.00    +0.000 A 
ATOM     10  C   UNL     1       1.182   9.465  19.433  0.00  0.00    +0.000 A 
ATOM     11  C   UNL     1       1.442   8.387  20.280  0.00  0.00    +0.000 A 
ATOM     12  C   UNL     1       2.070   7.241  19.785  0.00  0.00    +0.000 A 
BRANCH  10  13
ATOM     13  O   UNL     1       0.533  10.611  19.820  0.00  0.00    +0.000 OA
BRANCH  13  14
ATOM     14  C   UNL     1      -0.719  10.880  19.314  0.00  0.00    +0.000 A 
ATOM     15  C   UNL     1      -1.365  11.992  19.860  0.00  0.00    +0.000 A 
ATOM     16  C   UNL     1      -2.646  12.336  19.422  0.00  0.00    +0.000 A 
ATOM     17  C   UNL     1      -3.263  11.567  18.442  0.00  0.00    +0.000 A 
ATOM     18  F   UNL     1      -4.501  11.883  18.041  0.00  0.00    +0.000 F 
ATOM     19  C   UNL     1      -2.619  10.478  17.869  0.00  0.00    +0.000 A 
ATOM     20  C   UNL     1      -1.328  10.151  18.286  0.00  0.00    +0.000 A 
ENDBRANCH  13  14
ENDBRANCH  10  13
ENDBRANCH   3   7
BRANCH   1  22
ATOM     21  O   UNL     1       3.432   1.289  18.467  0.00  0.00    +0.000 OA
ATOM     22  C   UNL     1       2.750   2.218  18.070  0.00  0.00    +0.000 C 
BRANCH  22  23
ATOM     23  OXT UNL     1       1.421   2.141  17.827  0.00  0.00    +0.000 OA
ATOM     24  HXT UNL     1       1.263   1.594  17.025  0.00  0.00    +0.000 HD
ENDBRANCH  22  23
ENDBRANCH   1  22
BRANCH   5  25
ATOM     25  N   UNL     1       6.056   4.924  15.819  0.00  0.00    +0.000 N 
BRANCH  25  26
ATOM     26  C   UNL     1       6.130   4.499  14.451  0.00  0.00    +0.000 A 
ATOM     27  C   UNL     1       5.072   3.784  13.854  0.00  0.00    +0.000 A 
ATOM     28  C   UNL     1       5.127   3.354  12.520  0.00  0.00    +0.000 A 
ATOM     29  C   UNL     1       6.236   3.646  11.735  0.00  0.00    +0.000 A 
ATOM     30  C   UNL     1       7.293   4.357  12.288  0.00  0.00    +0.000 A 
ATOM     31  C   UNL     1       7.240   4.771  13.626  0.00  0.00    +0.000 A 
ENDBRANCH  25  26
BRANCH  25  32
ATOM     32  C   UNL     1       7.315   5.570  16.317  0.00  0.00    +0.000 C 
BRANCH  32  33
ATOM     33  C   UNL     1       7.395   5.994  17.782  0.00  0.00    +0.000 C 
BRANCH  33  34
ATOM     34  C   UNL     1       7.874   7.381  17.978  0.00  0.00    +0.000 A 
ATOM     35  N   UNL     1       8.641   7.780  19.036  0.00  0.00    +0.000 NA
ATOM     36  N   UNL     1       8.772   9.096  18.923  0.00  0.00    +0.000 NA
ATOM     37  N   UNL     1       8.070   9.418  17.829  0.00  0.00    +0.000 N 
ATOM     38  N   UNL     1       7.505   8.392  17.176  0.00  0.00    +0.000 NA
ATOM     39  H   UNL     1       7.962  10.380  17.520  0.00  0.00    +0.000 HD
ENDBRANCH  33  34
ENDBRANCH  32  33
ENDBRANCH  25  32
ENDBRANCH   5  25
TORSDOF 10
ENDMDL
MODEL 8
REMARK VINA RESULT:      -9.1      2.076      2.623
REMARK  Name = 
REMARK  10 active torsions:
REMARK  status: ('A' for Active; 'I' for Inactive)
REMARK    1  A    between atoms: C_2  and  OXT_3
REMARK    2  A    between atoms: C_2  and  CA_4
REMARK    3  A    between atoms: C_6  and  C_7
REMARK    4  A    between atoms: C_10  and  O_11
REMARK    5  A    between atoms: O_11  and  C_12
REMARK    6  A    between atoms: C_22  and  N_23
REMARK    7  A    between atoms: N_23  and  C_24
REMARK    8  A    between atoms: N_23  and  C_31
REMARK    9  A    between atoms: C_24  and  C_25
REMARK   10  A    between atoms: C_25  and  C_26
REMARK                            x       y       z     vdW  Elec       q    Type
REMARK                         _______ _______ _______ _____ _____    ______ ____
ROOT
ATOM      1  CA  UNL     1       3.101   3.697  18.561  0.00  0.00    +0.000 A 
ATOM      2  C   UNL     1       2.440   4.892  18.737  0.00  0.00    +0.000 A 
ATOM      3  C   UNL     1       3.080   6.056  18.327  0.00  0.00    +0.000 A 
ATOM      4  C   UNL     1       4.322   5.916  17.675  0.00  0.00    +0.000 A 
ATOM      5  C   UNL     1       4.941   4.670  17.505  0.00  0.00    +0.000 A 
ATOM      6  N   UNL     1       4.341   3.569  18.007  0.00  0.00    +0.000 NA
ENDROOT
BRANCH   3   7
ATOM      7  C   UNL     1       2.485   7.382  18.586  0.00  0.00    +0.000 A 
ATOM      8  C   UNL     1       2.492   8.385  17.597  0.00  0.00    +0.000 A 
ATOM      9  C   UNL     1       1.879   9.624  17.818  0.00  0.00    +0.000 A 
ATOM     10  C   UNL     1       1.231   9.876  19.022  0.00  0.00    +0.000 A 
ATOM     11  C   UNL     1       1.273   8.921  20.039  0.00  0.00    +0.000 A 
ATOM     12  C   UNL     1       1.874   7.681  19.813  0.00  0.00    +0.000 A 
BRANCH  10  13
ATOM     13  O   UNL     1       0.626  11.103  19.139  0.00  0.00    +0.000 OA
BRANCH  13  14
ATOM     14  C   UNL     1       1.405  12.229  19.276  0.00  0.00    +0.000 A 
ATOM     15  C   UNL     1       1.679  12.620  20.588  0.00  0.00    +0.000 A 
ATOM     16  C   UNL     1       2.450  13.760  20.828  0.00  0.00    +0.000 A 
ATOM     17  C   UNL     1       2.940  14.493  19.753  0.00  0.00    +0.000 A 
ATOM     18  F   UNL     1       3.658  15.600  19.984  0.00  0.00    +0.000 F 
ATOM     19  C   UNL     1       2.702  14.096  18.443  0.00  0.00    +0.000 A 
ATOM     20  C   UNL     1       1.956  12.942  18.203  0.00  0.00    +0.000 A 
ENDBRANCH  13  14
ENDBRANCH  10  13
ENDBRANCH   3   7
BRANCH   1  22
ATOM     21  O   UNL     1       2.490   1.378  18.420  0.00  0.00    +0.000 OA
ATOM     22  C   UNL     1       2.456   2.436  19.025  0.00  0.00    +0.000 C 
BRANCH  22  23
ATOM     23  OXT UNL     1       1.796   2.630  20.190  0.00  0.00    +0.000 OA
ATOM     24  HXT UNL     1       1.427   3.541  20.213  0.00  0.00    +0.000 HD
ENDBRANCH  22  23
ENDBRANCH   1  22
BRANCH   5  25
ATOM     25  N   UNL     1       6.166   4.576  16.795  0.00  0.00    +0.000 N 
BRANCH  25  26
ATOM     26  C   UNL     1       6.314   4.449  15.373  0.00  0.00    +0.000 A 
ATOM     27  C   UNL     1       5.388   3.711  14.609  0.00  0.00    +0.000 A 
ATOM     28  C   UNL     1       5.517   3.568  13.220  0.00  0.00    +0.000 A 
ATOM     29  C   UNL     1       6.568   4.179  12.548  0.00  0.00    +0.000 A 
ATOM     30  C   UNL     1       7.495   4.922  13.268  0.00  0.00    +0.000 A 
ATOM     31  C   UNL     1       7.371   5.049  14.658  0.00  0.00    +0.000 A 
ENDBRANCH  25  26
BRANCH  25  32
ATOM     32  C   UNL     1       7.471   4.661  17.529  0.00  0.00    +0.000 C 
BRANCH  32  33
ATOM     33  C   UNL     1       7.605   5.657  18.679  0.00  0.00    +0.000 C 
BRANCH  33  34
ATOM     34  C   UNL     1       7.856   7.047  18.238  0.00  0.00    +0.000 A 
ATOM     35  N   UNL     1       8.635   7.936  18.925  0.00  0.00    +0.000 NA
ATOM     36  N   UNL     1       8.528   9.094  18.286  0.00  0.00    +0.000 NA
ATOM     37  N   UNL     1       7.686   8.850  17.273  0.00  0.00    +0.000 N 
ATOM     38  N   UNL     1       7.249   7.587  17.170  0.00  0.00    +0.000 NA
ATOM     39  H   UNL     1       7.388   9.580  16.631  0.00  0.00    +0.000 HD
ENDBRANCH  33  34
ENDBRANCH  32  33
ENDBRANCH  25  32
ENDBRANCH   5  25
TORSDOF 10
ENDMDL
MODEL 9
REMARK VINA RESULT:      -9.1      1.115      1.664
REMARK  Name = 
REMARK  10 active torsions:
REMARK  status: ('A' for Active; 'I' for Inactive)
REMARK    1  A    between atoms: C_2  and  OXT_3
REMARK    2  A    between atoms: C_2  and  CA_4
REMARK    3  A    between atoms: C_6  and  C_7
REMARK    4  A    between atoms: C_10  and  O_11
REMARK    5  A    between atoms: O_11  and  C_12
REMARK    6  A    between atoms: C_22  and  N_23
REMARK    7  A    between atoms: N_23  and  C_24
REMARK    8  A    between atoms: N_23  and  C_31
REMARK    9  A    between atoms: C_24  and  C_25
REMARK   10  A    between atoms: C_25  and  C_26
REMARK                            x       y       z     vdW  Elec       q    Type
REMARK                         _______ _______ _______ _____ _____    ______ ____
ROOT
ATOM      1  CA  UNL     1       2.682   3.610  18.037  0.00  0.00    +0.000 A 
ATOM      2  C   UNL     1       2.124   4.828  18.355  0.00  0.00    +0.000 A 
ATOM      3  C   UNL     1       2.874   5.973  18.107  0.00  0.00    +0.000 A 
ATOM      4  C   UNL     1       4.115   5.805  17.460  0.00  0.00    +0.000 A 
ATOM      5  C   UNL     1       4.627   4.539  17.141  0.00  0.00    +0.000 A 
ATOM      6  N   UNL     1       3.920   3.442  17.490  0.00  0.00    +0.000 NA
ENDROOT
BRANCH   3   7
ATOM      7  C   UNL     1       2.392   7.303  18.525  0.00  0.00    +0.000 A 
ATOM      8  C   UNL     1       2.440   8.402  17.644  0.00  0.00    +0.000 A 
ATOM      9  C   UNL     1       1.932   9.651  18.016  0.00  0.00    +0.000 A 
ATOM     10  C   UNL     1       1.347   9.822  19.266  0.00  0.00    +0.000 A 
ATOM     11  C   UNL     1       1.352   8.765  20.177  0.00  0.00    +0.000 A 
ATOM     12  C   UNL     1       1.848   7.515  19.801  0.00  0.00    +0.000 A 
BRANCH  10  13
ATOM     13  O   UNL     1       0.842  11.070  19.533  0.00  0.00    +0.000 OA
BRANCH  13  14
ATOM     14  C   UNL     1      -0.033  11.232  20.583  0.00  0.00    +0.000 A 
ATOM     15  C   UNL     1      -1.203  11.938  20.293  0.00  0.00    +0.000 A 
ATOM     16  C   UNL     1      -2.145  12.167  21.298  0.00  0.00    +0.000 A 
ATOM     17  C   UNL     1      -1.908  11.685  22.580  0.00  0.00    +0.000 A 
ATOM     18  F   UNL     1      -2.800  11.926  23.550  0.00  0.00    +0.000 F 
ATOM     19  C   UNL     1      -0.763  10.954  22.874  0.00  0.00    +0.000 A 
ATOM     20  C   UNL     1       0.164  10.701  21.864  0.00  0.00    +0.000 A 
ENDBRANCH  13  14
ENDBRANCH  10  13
ENDBRANCH   3   7
BRANCH   1  22
ATOM     21  O   UNL     1       0.701   2.278  18.305  0.00  0.00    +0.000 OA
ATOM     22  C   UNL     1       1.917   2.364  18.327  0.00  0.00    +0.000 C 
BRANCH  22  23
ATOM     23  OXT UNL     1       2.750   1.350  18.655  0.00  0.00    +0.000 OA
ATOM     24  HXT UNL     1       2.226   0.540  18.843  0.00  0.00    +0.000 HD
ENDBRANCH  22  23
ENDBRANCH   1  22
BRANCH   5  25
ATOM     25  N   UNL     1       5.857   4.425  16.441  0.00  0.00    +0.000 N 
BRANCH  25  26
ATOM     26  C   UNL     1       6.015   4.279  15.023  0.00  0.00    +0.000 A 
ATOM     27  C   UNL     1       5.058   3.589  14.252  0.00  0.00    +0.000 A 
ATOM     28  C   UNL     1       5.197   3.429  12.866  0.00  0.00    +0.000 A 
ATOM     29  C   UNL     1       6.289   3.975  12.203  0.00  0.00    +0.000 A 
ATOM     30  C   UNL     1       7.247   4.671  12.930  0.00  0.00    +0.000 A 
ATOM     31  C   UNL     1       7.112   4.814  14.318  0.00  0.00    +0.000 A 
ENDBRANCH  25  26
BRANCH  25  32
ATOM     32  C   UNL     1       7.157   4.506  17.186  0.00  0.00    +0.000 C 
BRANCH  32  33
ATOM     33  C   UNL     1       7.222   5.340  18.464  0.00  0.00    +0.000 C 
BRANCH  33  34
ATOM     34  C   UNL     1       7.604   6.752  18.237  0.00  0.00    +0.000 A 
ATOM     35  N   UNL     1       7.263   7.465  17.122  0.00  0.00    +0.000 NA
ATOM     36  N   UNL     1       7.874   8.637  17.231  0.00  0.00    +0.000 NA
ATOM     37  N   UNL     1       8.558   8.563  18.380  0.00  0.00    +0.000 N 
ATOM     38  N   UNL     1       8.414   7.423  19.071  0.00  0.00    +0.000 NA
ATOM     39  H   UNL     1       9.158   9.318  18.701  0.00  0.00    +0.000 HD
ENDBRANCH  33  34
ENDBRANCH  32  33
ENDBRANCH  25  32
ENDBRANCH   5  25
TORSDOF 10
ENDMDL
