MODEL 1
REMARK VINA RESULT:      -6.9      0.000      0.000
REMARK  Name = 
REMARK  4 active torsions:
REMARK  status: ('A' for Active; 'I' for Inactive)
REMARK    1  A    between atoms: C_1  and  C_2
REMARK    2  A    between atoms: C_2  and  O_3
REMARK    3  A    between atoms: O_3  and  C_4
REMARK    4  A    between atoms: C_4  and  C_5
REMARK                            x       y       z     vdW  Elec       q    Type
REMARK                         _______ _______ _______ _____ _____    ______ ____
ROOT
ATOM      1  C   UNL     1       4.853   4.985  18.057  0.00  0.00    +0.000 C 
ATOM      2  C   UNL     1       6.240   5.094  18.693  0.00  0.00    +0.000 C 
ATOM      3  C   UNL     1       4.309   6.383  17.753  0.00  0.00    +0.000 C 
ATOM      4  C   UNL     1       2.840   6.316  18.125  0.00  0.00    +0.000 C 
ATOM      5  O   UNL     1       2.591   7.264  19.185  0.00  0.00    +0.000 OA
ATOM      6  C   UNL     1       2.011   6.585  20.310  0.00  0.00    +0.000 C 
ATOM      7  C   UNL     1       1.875   5.164  19.930  0.00  0.00    +0.000 C 
ATOM      8  C   UNL     1       1.084   4.235  20.496  0.00  0.00    +0.000 C 
ATOM      9  C   UNL     1       0.913   2.867  19.904  0.00  0.00    +0.000 C 
ATOM     10  C   UNL     1       1.453   2.682  18.475  0.00  0.00    +0.000 C 
ATOM     11  C   UNL     1       1.822   3.987  17.756  0.00  0.00    +0.000 C 
ATOM     12  C   UNL     1       2.625   4.916  18.669  0.00  0.00    +0.000 C 
ATOM     13  O   UNL     1       3.923   4.384  18.966  0.00  0.00    +0.000 OA
ENDROOT
BRANCH   1  14
ATOM     14  O   UNL     1       4.913   4.255  16.822  0.00  0.00    +0.000 OA
BRANCH  14  16
ATOM     15  C   UNL     1       6.065   4.076  14.726  0.00  0.00    +0.000 C 
ATOM     16  C   UNL     1       5.401   5.014  15.715  0.00  0.00    +0.000 C 
ENDBRANCH  14  16
ENDBRANCH   1  14
TORSDOF 2
ENDMDL
MODEL 2
REMARK VINA RESULT:      -6.6      1.464      4.729
REMARK  Name = 
REMARK  4 active torsions:
REMARK  status: ('A' for Active; 'I' for Inactive)
REMARK    1  A    between atoms: C_1  and  C_2
REMARK    2  A    between atoms: C_2  and  O_3
REMARK    3  A    between atoms: O_3  and  C_4
REMARK    4  A    between atoms: C_4  and  C_5
REMARK                            x       y       z     vdW  Elec       q    Type
REMARK                         _______ _______ _______ _____ _____    ______ ____
ROOT
ATOM      1  C   UNL     1       3.263   5.802  18.345  0.00  0.00    +0.000 C 
ATOM      2  C   UNL     1       2.628   7.142  18.723  0.00  0.00    +0.000 C 
ATOM      3  C   UNL     1       3.935   5.181  19.572  0.00  0.00    +0.000 C 
ATOM      4  C   UNL     1       5.231   4.594  19.050  0.00  0.00    +0.000 C 
ATOM      5  O   UNL     1       6.333   5.254  19.710  0.00  0.00    +0.000 OA
ATOM      6  C   UNL     1       7.210   5.826  18.727  0.00  0.00    +0.000 C 
ATOM      7  C   UNL     1       6.644   5.493  17.403  0.00  0.00    +0.000 C 
ATOM      8  C   UNL     1       7.275   5.502  16.215  0.00  0.00    +0.000 C 
ATOM      9  C   UNL     1       6.629   4.978  14.966  0.00  0.00    +0.000 C 
ATOM     10  C   UNL     1       5.334   4.171  15.169  0.00  0.00    +0.000 C 
ATOM     11  C   UNL     1       5.049   3.773  16.622  0.00  0.00    +0.000 C 
ATOM     12  C   UNL     1       5.269   4.949  17.575  0.00  0.00    +0.000 C 
ATOM     13  O   UNL     1       4.301   5.989  17.375  0.00  0.00    +0.000 OA
ENDROOT
BRANCH   1  14
ATOM     14  O   UNL     1       2.271   4.882  17.868  0.00  0.00    +0.000 OA
BRANCH  14  16
ATOM     15  C   UNL     1       1.343   2.752  18.467  0.00  0.00    +0.000 C 
ATOM     16  C   UNL     1       1.571   4.187  18.901  0.00  0.00    +0.000 C 
ENDBRANCH  14  16
ENDBRANCH   1  14
TORSDOF 2
ENDMDL
MODEL 3
REMARK VINA RESULT:      -6.6      0.992      1.028
REMARK  Name = 
REMARK  4 active torsions:
REMARK  status: ('A' for Active; 'I' for Inactive)
REMARK    1  A    between atoms: C_1  and  C_2
REMARK    2  A    between atoms: C_2  and  O_3
REMARK    3  A    between atoms: O_3  and  C_4
REMARK    4  A    between atoms: C_4  and  C_5
REMARK                            x       y       z     vdW  Elec       q    Type
REMARK                         _______ _______ _______ _____ _____    ______ ____
ROOT
ATOM      1  C   UNL     1       5.633   4.708  17.552  0.00  0.00    +0.000 C 
ATOM      2  C   UNL     1       6.989   4.923  18.226  0.00  0.00    +0.000 C 
ATOM      3  C   UNL     1       4.996   6.059  17.220  0.00  0.00    +0.000 C 
ATOM      4  C   UNL     1       3.526   5.888  17.551  0.00  0.00    +0.000 C 
ATOM      5  O   UNL     1       3.178   6.823  18.595  0.00  0.00    +0.000 OA
ATOM      6  C   UNL     1       2.617   6.112  19.710  0.00  0.00    +0.000 C 
ATOM      7  C   UNL     1       2.597   4.682  19.340  0.00  0.00    +0.000 C 
ATOM      8  C   UNL     1       1.861   3.701  19.892  0.00  0.00    +0.000 C 
ATOM      9  C   UNL     1       1.808   2.320  19.310  0.00  0.00    +0.000 C 
ATOM     10  C   UNL     1       2.400   2.164  17.898  0.00  0.00    +0.000 C 
ATOM     11  C   UNL     1       2.692   3.487  17.177  0.00  0.00    +0.000 C 
ATOM     12  C   UNL     1       3.399   4.480  18.102  0.00  0.00    +0.000 C 
ATOM     13  O   UNL     1       4.724   4.047  18.441  0.00  0.00    +0.000 OA
ENDROOT
BRANCH   1  14
ATOM     14  O   UNL     1       5.781   3.974  16.327  0.00  0.00    +0.000 OA
BRANCH  14  16
ATOM     15  C   UNL     1       6.108   3.945  13.951  0.00  0.00    +0.000 C 
ATOM     16  C   UNL     1       6.228   4.762  15.223  0.00  0.00    +0.000 C 
ENDBRANCH  14  16
ENDBRANCH   1  14
TORSDOF 2
ENDMDL
MODEL 4
REMARK VINA RESULT:      -6.5      1.765      2.851
REMARK  Name = 
REMARK  4 active torsions:
REMARK  status: ('A' for Active; 'I' for Inactive)
REMARK    1  A    between atoms: C_1  and  C_2
REMARK    2  A    between atoms: C_2  and  O_3
REMARK    3  A    between atoms: O_3  and  C_4
REMARK    4  A    between atoms: C_4  and  C_5
REMARK                            x       y       z     vdW  Elec       q    Type
REMARK                         _______ _______ _______ _____ _____    ______ ____
ROOT
ATOM      1  C   UNL     1       4.753   4.951  18.251  0.00  0.00    +0.000 C 
ATOM      2  C   UNL     1       4.934   6.423  17.879  0.00  0.00    +0.000 C 
ATOM      3  C   UNL     1       4.382   4.141  17.007  0.00  0.00    +0.000 C 
ATOM      4  C   UNL     1       3.324   3.163  17.481  0.00  0.00    +0.000 C 
ATOM      5  O   UNL     1       2.100   3.425  16.760  0.00  0.00    +0.000 OA
ATOM      6  C   UNL     1       1.038   3.682  17.693  0.00  0.00    +0.000 C 
ATOM      7  C   UNL     1       1.617   3.556  19.046  0.00  0.00    +0.000 C 
ATOM      8  C   UNL     1       0.961   3.360  20.204  0.00  0.00    +0.000 C 
ATOM      9  C   UNL     1       1.681   3.079  21.490  0.00  0.00    +0.000 C 
ATOM     10  C   UNL     1       3.177   2.739  21.360  0.00  0.00    +0.000 C 
ATOM     11  C   UNL     1       3.646   2.452  19.928  0.00  0.00    +0.000 C 
ATOM     12  C   UNL     1       3.100   3.490  18.946  0.00  0.00    +0.000 C 
ATOM     13  O   UNL     1       3.665   4.789  19.171  0.00  0.00    +0.000 OA
ENDROOT
BRANCH   1  14
ATOM     14  O   UNL     1       5.967   4.406  18.789  0.00  0.00    +0.000 OA
BRANCH  14  16
ATOM     15  C   UNL     1       7.969   5.644  19.253  0.00  0.00    +0.000 C 
ATOM     16  C   UNL     1       7.157   4.925  18.194  0.00  0.00    +0.000 C 
ENDBRANCH  14  16
ENDBRANCH   1  14
TORSDOF 2
ENDMDL
MODEL 5
REMARK VINA RESULT:      -6.2      1.849      3.516
REMARK  Name = 
REMARK  4 active torsions:
REMARK  status: ('A' for Active; 'I' for Inactive)
REMARK    1  A    between atoms: C_1  and  C_2
REMARK    2  A    between atoms: C_2  and  O_3
REMARK    3  A    between atoms: O_3  and  C_4
REMARK    4  A    between atoms: C_4  and  C_5
REMARK                            x       y       z     vdW  Elec       q    Type
REMARK                         _______ _______ _______ _____ _____    ______ ____
ROOT
ATOM      1  C   UNL     1       6.293   5.427  16.856  0.00  0.00    +0.000 C 
ATOM      2  C   UNL     1       6.946   4.739  15.656  0.00  0.00    +0.000 C 
ATOM      3  C   UNL     1       6.827   4.822  18.157  0.00  0.00    +0.000 C 
ATOM      4  C   UNL     1       5.616   4.719  19.064  0.00  0.00    +0.000 C 
ATOM      5  O   UNL     1       5.398   3.327  19.382  0.00  0.00    +0.000 OA
ATOM      6  C   UNL     1       4.064   2.951  19.007  0.00  0.00    +0.000 C 
ATOM      7  C   UNL     1       3.419   4.159  18.451  0.00  0.00    +0.000 C 
ATOM      8  C   UNL     1       2.102   4.390  18.300  0.00  0.00    +0.000 C 
ATOM      9  C   UNL     1       1.572   5.729  17.879  0.00  0.00    +0.000 C 
ATOM     10  C   UNL     1       2.581   6.891  17.914  0.00  0.00    +0.000 C 
ATOM     11  C   UNL     1       3.893   6.578  18.644  0.00  0.00    +0.000 C 
ATOM     12  C   UNL     1       4.447   5.212  18.231  0.00  0.00    +0.000 C 
ATOM     13  O   UNL     1       4.878   5.200  16.864  0.00  0.00    +0.000 OA
ENDROOT
BRANCH   1  14
ATOM     14  O   UNL     1       6.590   6.831  16.864  0.00  0.00    +0.000 OA
BRANCH  14  16
ATOM     15  C   UNL     1       7.840   8.702  17.696  0.00  0.00    +0.000 C 
ATOM     16  C   UNL     1       7.684   7.194  17.708  0.00  0.00    +0.000 C 
ENDBRANCH  14  16
ENDBRANCH   1  14
TORSDOF 2
ENDMDL
MODEL 6
REMARK VINA RESULT:      -6.1      1.518      4.187
REMARK  Name = 
REMARK  4 active torsions:
REMARK  status: ('A' for Active; 'I' for Inactive)
REMARK    1  A    between atoms: C_1  and  C_2
REMARK    2  A    between atoms: C_2  and  O_3
REMARK    3  A    between atoms: O_3  and  C_4
REMARK    4  A    between atoms: C_4  and  C_5
REMARK                            x       y       z     vdW  Elec       q    Type
REMARK                         _______ _______ _______ _____ _____    ______ ____
ROOT
ATOM      1  C   UNL     1       2.669   6.773  18.872  0.00  0.00    +0.000 C 
ATOM      2  C   UNL     1       2.417   7.881  17.847  0.00  0.00    +0.000 C 
ATOM      3  C   UNL     1       4.170   6.485  18.967  0.00  0.00    +0.000 C 
ATOM      4  C   UNL     1       4.269   4.975  19.077  0.00  0.00    +0.000 C 
ATOM      5  O   UNL     1       5.005   4.480  17.937  0.00  0.00    +0.000 OA
ATOM      6  C   UNL     1       4.213   3.506  17.239  0.00  0.00    +0.000 C 
ATOM      7  C   UNL     1       2.942   3.376  17.982  0.00  0.00    +0.000 C 
ATOM      8  C   UNL     1       2.058   2.364  17.924  0.00  0.00    +0.000 C 
ATOM      9  C   UNL     1       0.888   2.273  18.858  0.00  0.00    +0.000 C 
ATOM     10  C   UNL     1       0.917   3.231  20.063  0.00  0.00    +0.000 C 
ATOM     11  C   UNL     1       2.263   3.929  20.294  0.00  0.00    +0.000 C 
ATOM     12  C   UNL     1       2.840   4.471  18.985  0.00  0.00    +0.000 C 
ATOM     13  O   UNL     1       2.054   5.548  18.457  0.00  0.00    +0.000 OA
ENDROOT
BRANCH   1  14
ATOM     14  O   UNL     1       2.209   7.167  20.173  0.00  0.00    +0.000 OA
BRANCH  14  16
ATOM     15  C   UNL     1       0.978   8.658  21.593  0.00  0.00    +0.000 C 
ATOM     16  C   UNL     1       1.521   8.418  20.198  0.00  0.00    +0.000 C 
ENDBRANCH  14  16
ENDBRANCH   1  14
TORSDOF 2
ENDMDL
MODEL 7
REMARK VINA RESULT:      -6.1      1.721      2.965
REMARK  Name = 
REMARK  4 active torsions:
REMARK  status: ('A' for Active; 'I' for Inactive)
REMARK    1  A    between atoms: C_1  and  C_2
REMARK    2  A    between atoms: C_2  and  O_3
REMARK    3  A    between atoms: O_3  and  C_4
REMARK    4  A    between atoms: C_4  and  C_5
REMARK                            x       y       z     vdW  Elec       q    Type
REMARK                         _______ _______ _______ _____ _____    ______ ____
ROOT
ATOM      1  C   UNL     1       4.987   4.346  16.805  0.00  0.00    +0.000 C 
ATOM      2  C   UNL     1       5.927   3.722  15.772  0.00  0.00    +0.000 C 
ATOM      3  C   UNL     1       5.748   4.621  18.104  0.00  0.00    +0.000 C 
ATOM      4  C   UNL     1       4.784   4.236  19.209  0.00  0.00    +0.000 C 
ATOM      5  O   UNL     1       5.366   3.158  19.972  0.00  0.00    +0.000 OA
ATOM      6  C   UNL     1       4.466   2.038  19.986  0.00  0.00    +0.000 C 
ATOM      7  C   UNL     1       3.269   2.441  19.219  0.00  0.00    +0.000 C 
ATOM      8  C   UNL     1       2.046   1.882  19.254  0.00  0.00    +0.000 C 
ATOM      9  C   UNL     1       0.871   2.494  18.552  0.00  0.00    +0.000 C 
ATOM     10  C   UNL     1       1.070   3.932  18.040  0.00  0.00    +0.000 C 
ATOM     11  C   UNL     1       2.327   4.632  18.571  0.00  0.00    +0.000 C 
ATOM     12  C   UNL     1       3.548   3.713  18.500  0.00  0.00    +0.000 C 
ATOM     13  O   UNL     1       3.932   3.438  17.146  0.00  0.00    +0.000 OA
ENDROOT
BRANCH   1  14
ATOM     14  O   UNL     1       4.459   5.593  16.328  0.00  0.00    +0.000 OA
BRANCH  14  16
ATOM     15  C   UNL     1       3.838   7.621  17.449  0.00  0.00    +0.000 C 
ATOM     16  C   UNL     1       4.986   6.744  16.988  0.00  0.00    +0.000 C 
ENDBRANCH  14  16
ENDBRANCH   1  14
TORSDOF 2
ENDMDL
MODEL 8
REMARK VINA RESULT:      -6.0      1.823      5.188
REMARK  Name = 
REMARK  4 active torsions:
REMARK  status: ('A' for Active; 'I' for Inactive)
REMARK    1  A    between atoms: C_1  and  C_2
REMARK    2  A    between atoms: C_2  and  O_3
REMARK    3  A    between atoms: O_3  and  C_4
REMARK    4  A    between atoms: C_4  and  C_5
REMARK                            x       y       z     vdW  Elec       q    Type
REMARK                         _______ _______ _______ _____ _____    ______ ____
ROOT
ATOM      1  C   UNL     1       3.645   2.988  18.490  0.00  0.00    +0.000 C 
ATOM      2  C   UNL     1       3.363   1.485  18.533  0.00  0.00    +0.000 C 
ATOM      3  C   UNL     1       3.081   3.587  17.199  0.00  0.00    +0.000 C 
ATOM      4  C   UNL     1       4.131   4.580  16.740  0.00  0.00    +0.000 C 
ATOM      5  O   UNL     1       4.625   4.162  15.449  0.00  0.00    +0.000 OA
ATOM      6  C   UNL     1       6.051   4.004  15.507  0.00  0.00    +0.000 C 
ATOM      7  C   UNL     1       6.465   4.355  16.882  0.00  0.00    +0.000 C 
ATOM      8  C   UNL     1       7.696   4.694  17.307  0.00  0.00    +0.000 C 
ATOM      9  C   UNL     1       7.948   5.194  18.698  0.00  0.00    +0.000 C 
ATOM     10  C   UNL     1       6.697   5.572  19.512  0.00  0.00    +0.000 C 
ATOM     11  C   UNL     1       5.403   5.661  18.693  0.00  0.00    +0.000 C 
ATOM     12  C   UNL     1       5.260   4.466  17.748  0.00  0.00    +0.000 C 
ATOM     13  O   UNL     1       5.055   3.240  18.463  0.00  0.00    +0.000 OA
ENDROOT
BRANCH   1  14
ATOM     14  O   UNL     1       3.023   3.657  19.598  0.00  0.00    +0.000 OA
BRANCH  14  16
ATOM     15  C   UNL     1       1.175   3.057  21.005  0.00  0.00    +0.000 C 
ATOM     16  C   UNL     1       1.601   3.537  19.631  0.00  0.00    +0.000 C 
ENDBRANCH  14  16
ENDBRANCH   1  14
TORSDOF 2
ENDMDL
MODEL 9
REMARK VINA RESULT:      -6.0      1.367      4.592
REMARK  Name = 
REMARK  4 active torsions:
REMARK  status: ('A' for Active; 'I' for Inactive)
REMARK    1  A    between atoms: C_1  and  C_2
REMARK    2  A    between atoms: C_2  and  O_3
REMARK    3  A    between atoms: O_3  and  C_4
REMARK    4  A    between atoms: C_4  and  C_5
REMARK                            x       y       z     vdW  Elec       q    Type
REMARK                         _______ _______ _______ _____ _____    ______ ____
ROOT
ATOM      1  C   UNL     1       2.391   4.121  18.984  0.00  0.00    +0.000 C 
ATOM      2  C   UNL     1       1.190   3.477  18.291  0.00  0.00    +0.000 C 
ATOM      3  C   UNL     1       1.953   5.395  19.711  0.00  0.00    +0.000 C 
ATOM      4  C   UNL     1       3.070   6.389  19.459  0.00  0.00    +0.000 C 
ATOM      5  O   UNL     1       2.528   7.512  18.731  0.00  0.00    +0.000 OA
ATOM      6  C   UNL     1       3.268   7.697  17.513  0.00  0.00    +0.000 C 
ATOM      7  C   UNL     1       4.322   6.661  17.491  0.00  0.00    +0.000 C 
ATOM      8  C   UNL     1       5.448   6.652  16.756  0.00  0.00    +0.000 C 
ATOM      9  C   UNL     1       6.520   5.622  16.953  0.00  0.00    +0.000 C 
ATOM     10  C   UNL     1       6.398   4.762  18.224  0.00  0.00    +0.000 C 
ATOM     11  C   UNL     1       5.373   5.271  19.245  0.00  0.00    +0.000 C 
ATOM     12  C   UNL     1       4.059   5.666  18.566  0.00  0.00    +0.000 C 
ATOM     13  O   UNL     1       3.374   4.528  18.024  0.00  0.00    +0.000 OA
ENDROOT
BRANCH   1  14
ATOM     14  O   UNL     1       2.959   3.229  19.956  0.00  0.00    +0.000 OA
BRANCH  14  16
ATOM     15  C   UNL     1       1.544   2.435  21.723  0.00  0.00    +0.000 C 
ATOM     16  C   UNL     1       2.549   3.488  21.299  0.00  0.00    +0.000 C 
ENDBRANCH  14  16
ENDBRANCH   1  14
TORSDOF 2
ENDMDL
