MODEL 1
REMARK VINA RESULT:      -7.9      0.000      0.000
REMARK  Name = 
REMARK  6 active torsions:
REMARK  status: ('A' for Active; 'I' for Inactive)
REMARK    1  A    between atoms: C_1  and  N_2
REMARK    2  A    between atoms: N_2  and  C_3
REMARK    3  A    between atoms: C_3  and  C_4
REMARK    4  A    between atoms: C_4  and  C_5
REMARK    5  A    between atoms: C_5  and  C_6
REMARK    6  A    between atoms: C_5  and  N_12
REMARK                            x       y       z     vdW  Elec       q    Type
REMARK                         _______ _______ _______ _____ _____    ______ ____
ROOT
ATOM      1  N   UNL     1       4.533   4.832  17.633  0.00  0.00    +0.000 N 
ATOM      2  C   UNL     1       3.507   3.878  17.787  0.00  0.00    +0.000 C 
ATOM      3  O   UNL     1       3.472   2.760  17.290  0.00  0.00    +0.000 OA
ATOM      4  C   UNL     1       2.465   4.511  18.698  0.00  0.00    +0.000 C 
ATOM      5  C   UNL     1       1.110   3.793  18.655  0.00  0.00    +0.000 C 
ATOM      6  C   UNL     1       1.236   2.344  19.176  0.00  0.00    +0.000 C 
ATOM      7  C   UNL     1       1.899   2.255  20.551  0.00  0.00    +0.000 C 
ATOM      8  C   UNL     1       3.177   3.077  20.670  0.00  0.00    +0.000 C 
ATOM      9  C   UNL     1       2.976   4.498  20.170  0.00  0.00    +0.000 C 
ATOM     10  C   UNL     1       2.581   5.932  18.205  0.00  0.00    +0.000 A 
ATOM     11  C   UNL     1       1.620   6.936  18.212  0.00  0.00    +0.000 A 
ATOM     12  C   UNL     1       2.013   8.194  17.781  0.00  0.00    +0.000 A 
ATOM     13  C   UNL     1       3.355   8.426  17.426  0.00  0.00    +0.000 A 
ATOM     14  C   UNL     1       4.312   7.389  17.413  0.00  0.00    +0.000 A 
ATOM     15  C   UNL     1       3.908   6.111  17.734  0.00  0.00    +0.000 A 
ENDROOT
BRANCH   1  16
ATOM     16  C   UNL     1       5.795   4.315  17.121  0.00  0.00    +0.000 C 
BRANCH  16  17
ATOM     17  C   UNL     1       6.069   4.510  15.635  0.00  0.00    +0.000 A 
ATOM     18  C   UNL     1       7.184   5.217  15.178  0.00  0.00    +0.000 A 
ATOM     19  C   UNL     1       7.569   5.154  13.839  0.00  0.00    +0.000 A 
ATOM     20  C   UNL     1       6.839   4.391  12.935  0.00  0.00    +0.000 A 
ATOM     21  C   UNL     1       5.702   3.713  13.362  0.00  0.00    +0.000 A 
ATOM     22  C   UNL     1       5.315   3.777  14.701  0.00  0.00    +0.000 A 
ENDBRANCH  16  17
BRANCH  16  23
ATOM     23  C   UNL     1       7.115   4.541  17.895  0.00  0.00    +0.000 C 
BRANCH  23  24
ATOM     24  C   UNL     1       7.165   5.633  18.979  0.00  0.00    +0.000 C 
BRANCH  24  26
ATOM     25  C   UNL     1       7.881   7.740  17.896  0.00  0.00    +0.000 C 
ATOM     26  N   UNL     1       8.169   6.700  18.886  0.00  0.00    +0.000 NA
ATOM     27  H   UNL     1       8.224   7.159  19.800  0.00  0.00    +0.000 HD
ENDBRANCH  24  26
ENDBRANCH  23  24
ENDBRANCH  16  23
ENDBRANCH   1  16
TORSDOF 5
ENDMDL
MODEL 2
REMARK VINA RESULT:      -7.4      0.431      1.031
REMARK  Name = 
REMARK  6 active torsions:
REMARK  status: ('A' for Active; 'I' for Inactive)
REMARK    1  A    between atoms: C_1  and  N_2
REMARK    2  A    between atoms: N_2  and  C_3
REMARK    3  A    between atoms: C_3  and  C_4
REMARK    4  A    between atoms: C_4  and  C_5
REMARK    5  A    between atoms: C_5  and  C_6
REMARK    6  A    between atoms: C_5  and  N_12
REMARK                            x       y       z     vdW  Elec       q    Type
REMARK                         _______ _______ _______ _____ _____    ______ ____
ROOT
ATOM      1  N   UNL     1       4.506   4.733  18.026  0.00  0.00    +0.000 N 
ATOM      2  C   UNL     1       3.465   3.799  18.202  0.00  0.00    +0.000 C 
ATOM      3  O   UNL     1       3.453   2.640  17.809  0.00  0.00    +0.000 OA
ATOM      4  C   UNL     1       2.373   4.515  18.984  0.00  0.00    +0.000 C 
ATOM      5  C   UNL     1       1.018   3.798  18.922  0.00  0.00    +0.000 C 
ATOM      6  C   UNL     1       1.101   2.403  19.582  0.00  0.00    +0.000 C 
ATOM      7  C   UNL     1       1.677   2.440  20.998  0.00  0.00    +0.000 C 
ATOM      8  C   UNL     1       2.951   3.268  21.120  0.00  0.00    +0.000 C 
ATOM      9  C   UNL     1       2.791   4.637  20.481  0.00  0.00    +0.000 C 
ATOM     10  C   UNL     1       2.530   5.884  18.371  0.00  0.00    +0.000 A 
ATOM     11  C   UNL     1       1.578   6.886  18.225  0.00  0.00    +0.000 A 
ATOM     12  C   UNL     1       2.006   8.098  17.706  0.00  0.00    +0.000 A 
ATOM     13  C   UNL     1       3.369   8.295  17.417  0.00  0.00    +0.000 A 
ATOM     14  C   UNL     1       4.318   7.260  17.558  0.00  0.00    +0.000 A 
ATOM     15  C   UNL     1       3.885   6.017  17.970  0.00  0.00    +0.000 A 
ENDROOT
BRANCH   1  16
ATOM     16  C   UNL     1       5.794   4.170  17.644  0.00  0.00    +0.000 C 
BRANCH  16  17
ATOM     17  C   UNL     1       6.137   4.177  16.160  0.00  0.00    +0.000 A 
ATOM     18  C   UNL     1       5.220   3.762  15.190  0.00  0.00    +0.000 A 
ATOM     19  C   UNL     1       5.440   4.029  13.839  0.00  0.00    +0.000 A 
ATOM     20  C   UNL     1       6.585   4.708  13.437  0.00  0.00    +0.000 A 
ATOM     21  C   UNL     1       7.529   5.094  14.383  0.00  0.00    +0.000 A 
ATOM     22  C   UNL     1       7.311   4.824  15.734  0.00  0.00    +0.000 A 
ENDBRANCH  16  17
BRANCH  16  23
ATOM     23  C   UNL     1       7.074   4.507  18.443  0.00  0.00    +0.000 C 
BRANCH  23  24
ATOM     24  C   UNL     1       7.151   5.848  19.195  0.00  0.00    +0.000 C 
BRANCH  24  26
ATOM     25  C   UNL     1       7.869   7.818  17.880  0.00  0.00    +0.000 C 
ATOM     26  N   UNL     1       8.222   6.800  18.870  0.00  0.00    +0.000 NA
ATOM     27  H   UNL     1       8.476   7.291  19.732  0.00  0.00    +0.000 HD
ENDBRANCH  24  26
ENDBRANCH  23  24
ENDBRANCH  16  23
ENDBRANCH   1  16
TORSDOF 5
ENDMDL
MODEL 3
REMARK VINA RESULT:      -6.9      1.739      5.919
REMARK  Name = 
REMARK  6 active torsions:
REMARK  status: ('A' for Active; 'I' for Inactive)
REMARK    1  A    between atoms: C_1  and  N_2
REMARK    2  A    between atoms: N_2  and  C_3
REMARK    3  A    between atoms: C_3  and  C_4
REMARK    4  A    between atoms: C_4  and  C_5
REMARK    5  A    between atoms: C_5  and  C_6
REMARK    6  A    between atoms: C_5  and  N_12
REMARK                            x       y       z     vdW  Elec       q    Type
REMARK                         _______ _______ _______ _____ _____    ______ ____
ROOT
ATOM      1  N   UNL     1       4.647   5.307  16.739  0.00  0.00    +0.000 N 
ATOM      2  C   UNL     1       5.436   6.414  17.111  0.00  0.00    +0.000 C 
ATOM      3  O   UNL     1       5.044   7.436  17.658  0.00  0.00    +0.000 OA
ATOM      4  C   UNL     1       6.865   6.078  16.706  0.00  0.00    +0.000 C 
ATOM      5  C   UNL     1       7.784   7.306  16.664  0.00  0.00    +0.000 C 
ATOM      6  C   UNL     1       7.928   7.936  18.068  0.00  0.00    +0.000 C 
ATOM      7  C   UNL     1       8.348   6.930  19.140  0.00  0.00    +0.000 C 
ATOM      8  C   UNL     1       7.544   5.635  19.113  0.00  0.00    +0.000 C 
ATOM      9  C   UNL     1       7.469   5.052  17.712  0.00  0.00    +0.000 C 
ATOM     10  C   UNL     1       6.559   5.322  15.437  0.00  0.00    +0.000 A 
ATOM     11  C   UNL     1       7.352   5.163  14.308  0.00  0.00    +0.000 A 
ATOM     12  C   UNL     1       6.870   4.335  13.305  0.00  0.00    +0.000 A 
ATOM     13  C   UNL     1       5.657   3.645  13.488  0.00  0.00    +0.000 A 
ATOM     14  C   UNL     1       4.860   3.831  14.637  0.00  0.00    +0.000 A 
ATOM     15  C   UNL     1       5.275   4.735  15.592  0.00  0.00    +0.000 A 
ENDROOT
BRANCH   1  16
ATOM     16  C   UNL     1       3.331   5.240  17.360  0.00  0.00    +0.000 C 
BRANCH  16  17
ATOM     17  C   UNL     1       2.805   3.854  17.713  0.00  0.00    +0.000 A 
ATOM     18  C   UNL     1       3.663   2.803  18.048  0.00  0.00    +0.000 A 
ATOM     19  C   UNL     1       3.169   1.636  18.628  0.00  0.00    +0.000 A 
ATOM     20  C   UNL     1       1.807   1.498  18.875  0.00  0.00    +0.000 A 
ATOM     21  C   UNL     1       0.932   2.516  18.511  0.00  0.00    +0.000 A 
ATOM     22  C   UNL     1       1.425   3.683  17.928  0.00  0.00    +0.000 A 
ENDBRANCH  16  17
BRANCH  16  23
ATOM     23  C   UNL     1       2.941   6.214  18.496  0.00  0.00    +0.000 C 
BRANCH  23  24
ATOM     24  C   UNL     1       3.257   5.826  19.951  0.00  0.00    +0.000 C 
BRANCH  24  26
ATOM     25  C   UNL     1       2.232   4.163  21.471  0.00  0.00    +0.000 C 
ATOM     26  N   UNL     1       2.158   5.494  20.867  0.00  0.00    +0.000 NA
ATOM     27  H   UNL     1       2.172   6.175  21.632  0.00  0.00    +0.000 HD
ENDBRANCH  24  26
ENDBRANCH  23  24
ENDBRANCH  16  23
ENDBRANCH   1  16
TORSDOF 5
ENDMDL
MODEL 4
REMARK VINA RESULT:      -6.8      1.695      5.940
REMARK  Name = 
REMARK  6 active torsions:
REMARK  status: ('A' for Active; 'I' for Inactive)
REMARK    1  A    between atoms: C_1  and  N_2
REMARK    2  A    between atoms: N_2  and  C_3
REMARK    3  A    between atoms: C_3  and  C_4
REMARK    4  A    between atoms: C_4  and  C_5
REMARK    5  A    between atoms: C_5  and  C_6
REMARK    6  A    between atoms: C_5  and  N_12
REMARK                            x       y       z     vdW  Elec       q    Type
REMARK                         _______ _______ _______ _____ _____    ______ ____
ROOT
ATOM      1  N   UNL     1       4.652   5.362  16.726  0.00  0.00    +0.000 N 
ATOM      2  C   UNL     1       5.469   6.445  17.110  0.00  0.00    +0.000 C 
ATOM      3  O   UNL     1       5.099   7.480  17.648  0.00  0.00    +0.000 OA
ATOM      4  C   UNL     1       6.893   6.063  16.731  0.00  0.00    +0.000 C 
ATOM      5  C   UNL     1       7.851   7.261  16.703  0.00  0.00    +0.000 C 
ATOM      6  C   UNL     1       7.990   7.891  18.107  0.00  0.00    +0.000 C 
ATOM      7  C   UNL     1       8.359   6.875  19.188  0.00  0.00    +0.000 C 
ATOM      8  C   UNL     1       7.516   5.605  19.151  0.00  0.00    +0.000 C 
ATOM      9  C   UNL     1       7.447   5.021  17.749  0.00  0.00    +0.000 C 
ATOM     10  C   UNL     1       6.585   5.313  15.459  0.00  0.00    +0.000 A 
ATOM     11  C   UNL     1       7.393   5.127  14.343  0.00  0.00    +0.000 A 
ATOM     12  C   UNL     1       6.903   4.311  13.335  0.00  0.00    +0.000 A 
ATOM     13  C   UNL     1       5.666   3.660  13.498  0.00  0.00    +0.000 A 
ATOM     14  C   UNL     1       4.855   3.874  14.632  0.00  0.00    +0.000 A 
ATOM     15  C   UNL     1       5.282   4.768  15.592  0.00  0.00    +0.000 A 
ENDROOT
BRANCH   1  16
ATOM     16  C   UNL     1       3.324   5.338  17.325  0.00  0.00    +0.000 C 
BRANCH  16  17
ATOM     17  C   UNL     1       2.795   3.982  17.775  0.00  0.00    +0.000 A 
ATOM     18  C   UNL     1       3.652   2.924  18.089  0.00  0.00    +0.000 A 
ATOM     19  C   UNL     1       3.178   1.795  18.755  0.00  0.00    +0.000 A 
ATOM     20  C   UNL     1       1.836   1.702  19.109  0.00  0.00    +0.000 A 
ATOM     21  C   UNL     1       0.958   2.727  18.769  0.00  0.00    +0.000 A 
ATOM     22  C   UNL     1       1.432   3.855  18.101  0.00  0.00    +0.000 A 
ENDBRANCH  16  17
BRANCH  16  23
ATOM     23  C   UNL     1       2.908   6.397  18.372  0.00  0.00    +0.000 C 
BRANCH  23  24
ATOM     24  C   UNL     1       1.883   7.474  17.974  0.00  0.00    +0.000 C 
BRANCH  24  26
ATOM     25  C   UNL     1       1.680   9.933  18.167  0.00  0.00    +0.000 C 
ATOM     26  N   UNL     1       2.353   8.796  17.538  0.00  0.00    +0.000 NA
ATOM     27  H   UNL     1       3.348   8.866  17.769  0.00  0.00    +0.000 HD
ENDBRANCH  24  26
ENDBRANCH  23  24
ENDBRANCH  16  23
ENDBRANCH   1  16
TORSDOF 5
ENDMDL
MODEL 5
REMARK VINA RESULT:      -6.5      1.740      5.930
REMARK  Name = 
REMARK  6 active torsions:
REMARK  status: ('A' for Active; 'I' for Inactive)
REMARK    1  A    between atoms: C_1  and  N_2
REMARK    2  A    between atoms: N_2  and  C_3
REMARK    3  A    between atoms: C_3  and  C_4
REMARK    4  A    between atoms: C_4  and  C_5
REMARK    5  A    between atoms: C_5  and  C_6
REMARK    6  A    between atoms: C_5  and  N_12
REMARK                            x       y       z     vdW  Elec       q    Type
REMARK                         _______ _______ _______ _____ _____    ______ ____
ROOT
ATOM      1  N   UNL     1       4.554   5.418  16.814  0.00  0.00    +0.000 N 
ATOM      2  C   UNL     1       5.403   6.485  17.174  0.00  0.00    +0.000 C 
ATOM      3  O   UNL     1       5.066   7.536  17.701  0.00  0.00    +0.000 OA
ATOM      4  C   UNL     1       6.813   6.060  16.786  0.00  0.00    +0.000 C 
ATOM      5  C   UNL     1       7.801   7.233  16.731  0.00  0.00    +0.000 C 
ATOM      6  C   UNL     1       7.971   7.878  18.125  0.00  0.00    +0.000 C 
ATOM      7  C   UNL     1       8.325   6.868  19.217  0.00  0.00    +0.000 C 
ATOM      8  C   UNL     1       7.448   5.620  19.206  0.00  0.00    +0.000 C 
ATOM      9  C   UNL     1       7.349   5.019  17.814  0.00  0.00    +0.000 C 
ATOM     10  C   UNL     1       6.472   5.301  15.528  0.00  0.00    +0.000 A 
ATOM     11  C   UNL     1       7.263   5.078  14.407  0.00  0.00    +0.000 A 
ATOM     12  C   UNL     1       6.741   4.262  13.415  0.00  0.00    +0.000 A 
ATOM     13  C   UNL     1       5.490   3.645  13.600  0.00  0.00    +0.000 A 
ATOM     14  C   UNL     1       4.697   3.897  14.740  0.00  0.00    +0.000 A 
ATOM     15  C   UNL     1       5.157   4.792  15.682  0.00  0.00    +0.000 A 
ENDROOT
BRANCH   1  16
ATOM     16  C   UNL     1       3.232   5.438  17.426  0.00  0.00    +0.000 C 
BRANCH  16  17
ATOM     17  C   UNL     1       2.789   4.173  18.151  0.00  0.00    +0.000 A 
ATOM     18  C   UNL     1       1.450   3.774  18.185  0.00  0.00    +0.000 A 
ATOM     19  C   UNL     1       1.098   2.493  18.607  0.00  0.00    +0.000 A 
ATOM     20  C   UNL     1       2.079   1.593  19.009  0.00  0.00    +0.000 A 
ATOM     21  C   UNL     1       3.414   1.984  19.020  0.00  0.00    +0.000 A 
ATOM     22  C   UNL     1       3.766   3.267  18.601  0.00  0.00    +0.000 A 
ENDBRANCH  16  17
BRANCH  16  23
ATOM     23  C   UNL     1       2.755   6.661  18.242  0.00  0.00    +0.000 C 
BRANCH  23  24
ATOM     24  C   UNL     1       2.612   6.528  19.769  0.00  0.00    +0.000 C 
BRANCH  24  26
ATOM     25  C   UNL     1       1.475   8.726  19.733  0.00  0.00    +0.000 C 
ATOM     26  N   UNL     1       1.908   7.572  20.524  0.00  0.00    +0.000 NA
ATOM     27  H   UNL     1       1.068   7.151  20.932  0.00  0.00    +0.000 HD
ENDBRANCH  24  26
ENDBRANCH  23  24
ENDBRANCH  16  23
ENDBRANCH   1  16
TORSDOF 5
ENDMDL
MODEL 6
REMARK VINA RESULT:      -6.5      9.496     12.440
REMARK  Name = 
REMARK  6 active torsions:
REMARK  status: ('A' for Active; 'I' for Inactive)
REMARK    1  A    between atoms: C_1  and  N_2
REMARK    2  A    between atoms: N_2  and  C_3
REMARK    3  A    between atoms: C_3  and  C_4
REMARK    4  A    between atoms: C_4  and  C_5
REMARK    5  A    between atoms: C_5  and  C_6
REMARK    6  A    between atoms: C_5  and  N_12
REMARK                            x       y       z     vdW  Elec       q    Type
REMARK                         _______ _______ _______ _____ _____    ______ ____
ROOT
ATOM      1  N   UNL     1      -3.106  12.762  22.216  0.00  0.00    +0.000 N 
ATOM      2  C   UNL     1      -4.285  12.641  22.980  0.00  0.00    +0.000 C 
ATOM      3  O   UNL     1      -4.365  12.252  24.137  0.00  0.00    +0.000 OA
ATOM      4  C   UNL     1      -5.426  13.100  22.083  0.00  0.00    +0.000 C 
ATOM      5  C   UNL     1      -6.806  12.666  22.594  0.00  0.00    +0.000 C 
ATOM      6  C   UNL     1      -7.117  13.314  23.962  0.00  0.00    +0.000 C 
ATOM      7  C   UNL     1      -6.948  14.834  23.960  0.00  0.00    +0.000 C 
ATOM      8  C   UNL     1      -5.644  15.305  23.325  0.00  0.00    +0.000 C 
ATOM      9  C   UNL     1      -5.415  14.654  21.971  0.00  0.00    +0.000 C 
ATOM     10  C   UNL     1      -4.903  12.561  20.775  0.00  0.00    +0.000 A 
ATOM     11  C   UNL     1      -5.617  12.168  19.649  0.00  0.00    +0.000 A 
ATOM     12  C   UNL     1      -4.886  11.793  18.533  0.00  0.00    +0.000 A 
ATOM     13  C   UNL     1      -3.482  11.887  18.550  0.00  0.00    +0.000 A 
ATOM     14  C   UNL     1      -2.775  12.276  19.708  0.00  0.00    +0.000 A 
ATOM     15  C   UNL     1      -3.486  12.546  20.858  0.00  0.00    +0.000 A 
ENDROOT
BRANCH   1  16
ATOM     16  C   UNL     1      -1.864  12.742  22.977  0.00  0.00    +0.000 C 
BRANCH  16  17
ATOM     17  C   UNL     1      -0.874  11.629  22.653  0.00  0.00    +0.000 A 
ATOM     18  C   UNL     1      -1.004  10.348  23.196  0.00  0.00    +0.000 A 
ATOM     19  C   UNL     1      -0.268   9.279  22.686  0.00  0.00    +0.000 A 
ATOM     20  C   UNL     1       0.617   9.478  21.631  0.00  0.00    +0.000 A 
ATOM     21  C   UNL     1       0.790  10.754  21.104  0.00  0.00    +0.000 A 
ATOM     22  C   UNL     1       0.055  11.823  21.615  0.00  0.00    +0.000 A 
ENDBRANCH  16  17
BRANCH  16  23
ATOM     23  C   UNL     1      -1.069  14.045  23.229  0.00  0.00    +0.000 C 
BRANCH  23  24
ATOM     24  C   UNL     1      -1.604  15.056  24.259  0.00  0.00    +0.000 C 
BRANCH  24  26
ATOM     25  C   UNL     1      -1.181  16.595  26.150  0.00  0.00    +0.000 C 
ATOM     26  N   UNL     1      -0.807  15.363  25.453  0.00  0.00    +0.000 NA
ATOM     27  H   UNL     1      -0.926  14.592  26.116  0.00  0.00    +0.000 HD
ENDBRANCH  24  26
ENDBRANCH  23  24
ENDBRANCH  16  23
ENDBRANCH   1  16
TORSDOF 5
ENDMDL
MODEL 7
REMARK VINA RESULT:      -6.4      8.987     12.058
REMARK  Name = 
REMARK  6 active torsions:
REMARK  status: ('A' for Active; 'I' for Inactive)
REMARK    1  A    between atoms: C_1  and  N_2
REMARK    2  A    between atoms: N_2  and  C_3
REMARK    3  A    between atoms: C_3  and  C_4
REMARK    4  A    between atoms: C_4  and  C_5
REMARK    5  A    between atoms: C_5  and  C_6
REMARK    6  A    between atoms: C_5  and  N_12
REMARK                            x       y       z     vdW  Elec       q    Type
REMARK                         _______ _______ _______ _____ _____    ______ ____
ROOT
ATOM      1  N   UNL     1      -3.142  12.713  21.605  0.00  0.00    +0.000 N 
ATOM      2  C   UNL     1      -4.199  12.650  22.535  0.00  0.00    +0.000 C 
ATOM      3  O   UNL     1      -4.114  12.328  23.713  0.00  0.00    +0.000 OA
ATOM      4  C   UNL     1      -5.456  13.073  21.786  0.00  0.00    +0.000 C 
ATOM      5  C   UNL     1      -6.750  12.686  22.514  0.00  0.00    +0.000 C 
ATOM      6  C   UNL     1      -6.858  13.414  23.873  0.00  0.00    +0.000 C 
ATOM      7  C   UNL     1      -6.683  14.929  23.760  0.00  0.00    +0.000 C 
ATOM      8  C   UNL     1      -5.482  15.346  22.919  0.00  0.00    +0.000 C 
ATOM      9  C   UNL     1      -5.453  14.618  21.586  0.00  0.00    +0.000 C 
ATOM     10  C   UNL     1      -5.129  12.455  20.450  0.00  0.00    +0.000 A 
ATOM     11  C   UNL     1      -6.000  12.009  19.463  0.00  0.00    +0.000 A 
ATOM     12  C   UNL     1      -5.438  11.562  18.276  0.00  0.00    +0.000 A 
ATOM     13  C   UNL     1      -4.046  11.639  18.086  0.00  0.00    +0.000 A 
ATOM     14  C   UNL     1      -3.178  12.083  19.107  0.00  0.00    +0.000 A 
ATOM     15  C   UNL     1      -3.715  12.426  20.330  0.00  0.00    +0.000 A 
ENDROOT
BRANCH   1  16
ATOM     16  C   UNL     1      -1.804  12.720  22.179  0.00  0.00    +0.000 C 
BRANCH  16  17
ATOM     17  C   UNL     1      -1.003  11.427  22.079  0.00  0.00    +0.000 A 
ATOM     18  C   UNL     1      -0.089  11.206  21.045  0.00  0.00    +0.000 A 
ATOM     19  C   UNL     1       0.826  10.155  21.114  0.00  0.00    +0.000 A 
ATOM     20  C   UNL     1       0.834   9.305  22.215  0.00  0.00    +0.000 A 
ATOM     21  C   UNL     1      -0.094   9.485  23.235  0.00  0.00    +0.000 A 
ATOM     22  C   UNL     1      -1.011  10.534  23.165  0.00  0.00    +0.000 A 
ENDBRANCH  16  17
BRANCH  16  23
ATOM     23  C   UNL     1      -0.845  13.909  21.938  0.00  0.00    +0.000 C 
BRANCH  23  24
ATOM     24  C   UNL     1      -1.375  15.157  21.210  0.00  0.00    +0.000 C 
BRANCH  24  26
ATOM     25  C   UNL     1      -0.260  14.503  19.099  0.00  0.00    +0.000 C 
ATOM     26  N   UNL     1      -1.382  15.190  19.741  0.00  0.00    +0.000 NA
ATOM     27  H   UNL     1      -2.241  14.731  19.422  0.00  0.00    +0.000 HD
ENDBRANCH  24  26
ENDBRANCH  23  24
ENDBRANCH  16  23
ENDBRANCH   1  16
TORSDOF 5
ENDMDL
MODEL 8
REMARK VINA RESULT:      -6.3      6.635     10.250
REMARK  Name = 
REMARK  6 active torsions:
REMARK  status: ('A' for Active; 'I' for Inactive)
REMARK    1  A    between atoms: C_1  and  N_2
REMARK    2  A    between atoms: N_2  and  C_3
REMARK    3  A    between atoms: C_3  and  C_4
REMARK    4  A    between atoms: C_4  and  C_5
REMARK    5  A    between atoms: C_5  and  C_6
REMARK    6  A    between atoms: C_5  and  N_12
REMARK                            x       y       z     vdW  Elec       q    Type
REMARK                         _______ _______ _______ _____ _____    ______ ____
ROOT
ATOM      1  N   UNL     1      -0.120  12.240  19.825  0.00  0.00    +0.000 N 
ATOM      2  C   UNL     1       0.944  13.163  19.762  0.00  0.00    +0.000 C 
ATOM      3  O   UNL     1       2.027  12.988  19.221  0.00  0.00    +0.000 OA
ATOM      4  C   UNL     1       0.469  14.414  20.488  0.00  0.00    +0.000 C 
ATOM      5  C   UNL     1       1.615  15.362  20.867  0.00  0.00    +0.000 C 
ATOM      6  C   UNL     1       2.324  15.904  19.605  0.00  0.00    +0.000 C 
ATOM      7  C   UNL     1       1.360  16.528  18.595  0.00  0.00    +0.000 C 
ATOM      8  C   UNL     1       0.134  15.670  18.305  0.00  0.00    +0.000 C 
ATOM      9  C   UNL     1      -0.532  15.197  19.587  0.00  0.00    +0.000 C 
ATOM     10  C   UNL     1      -0.343  13.743  21.567  0.00  0.00    +0.000 A 
ATOM     11  C   UNL     1      -0.638  14.203  22.845  0.00  0.00    +0.000 A 
ATOM     12  C   UNL     1      -1.490  13.428  23.617  0.00  0.00    +0.000 A 
ATOM     13  C   UNL     1      -2.069  12.266  23.073  0.00  0.00    +0.000 A 
ATOM     14  C   UNL     1      -1.744  11.809  21.778  0.00  0.00    +0.000 A 
ATOM     15  C   UNL     1      -0.814  12.512  21.041  0.00  0.00    +0.000 A 
ENDROOT
BRANCH   1  16
ATOM     16  C   UNL     1      -0.041  11.130  18.884  0.00  0.00    +0.000 C 
BRANCH  16  17
ATOM     17  C   UNL     1       0.875   9.971  19.261  0.00  0.00    +0.000 A 
ATOM     18  C   UNL     1       0.806   9.355  20.513  0.00  0.00    +0.000 A 
ATOM     19  C   UNL     1       1.445   8.137  20.745  0.00  0.00    +0.000 A 
ATOM     20  C   UNL     1       2.171   7.522  19.730  0.00  0.00    +0.000 A 
ATOM     21  C   UNL     1       2.285   8.140  18.489  0.00  0.00    +0.000 A 
ATOM     22  C   UNL     1       1.648   9.359  18.257  0.00  0.00    +0.000 A 
ENDBRANCH  16  17
BRANCH  16  23
ATOM     23  C   UNL     1      -1.318  10.551  18.233  0.00  0.00    +0.000 C 
BRANCH  23  24
ATOM     24  C   UNL     1      -2.310  11.515  17.556  0.00  0.00    +0.000 C 
BRANCH  24  26
ATOM     25  C   UNL     1      -3.417  10.817  15.455  0.00  0.00    +0.000 C 
ATOM     26  N   UNL     1      -2.354  11.598  16.091  0.00  0.00    +0.000 NA
ATOM     27  H   UNL     1      -2.505  12.578  15.837  0.00  0.00    +0.000 HD
ENDBRANCH  24  26
ENDBRANCH  23  24
ENDBRANCH  16  23
ENDBRANCH   1  16
TORSDOF 5
ENDMDL
MODEL 9
REMARK VINA RESULT:      -6.3      8.779     11.838
REMARK  Name = 
REMARK  6 active torsions:
REMARK  status: ('A' for Active; 'I' for Inactive)
REMARK    1  A    between atoms: C_1  and  N_2
REMARK    2  A    between atoms: N_2  and  C_3
REMARK    3  A    between atoms: C_3  and  C_4
REMARK    4  A    between atoms: C_4  and  C_5
REMARK    5  A    between atoms: C_5  and  C_6
REMARK    6  A    between atoms: C_5  and  N_12
REMARK                            x       y       z     vdW  Elec       q    Type
REMARK                         _______ _______ _______ _____ _____    ______ ____
ROOT
ATOM      1  N   UNL     1      -3.040  12.737  20.853  0.00  0.00    +0.000 N 
ATOM      2  C   UNL     1      -4.282  12.557  21.495  0.00  0.00    +0.000 C 
ATOM      3  O   UNL     1      -4.461  12.352  22.688  0.00  0.00    +0.000 OA
ATOM      4  C   UNL     1      -5.346  12.680  20.413  0.00  0.00    +0.000 C 
ATOM      5  C   UNL     1      -6.709  12.122  20.842  0.00  0.00    +0.000 C 
ATOM      6  C   UNL     1      -7.285  12.924  22.031  0.00  0.00    +0.000 C 
ATOM      7  C   UNL     1      -7.326  14.432  21.775  0.00  0.00    +0.000 C 
ATOM      8  C   UNL     1      -6.026  14.993  21.210  0.00  0.00    +0.000 C 
ATOM      9  C   UNL     1      -5.533  14.177  20.026  0.00  0.00    +0.000 C 
ATOM     10  C   UNL     1      -4.585  12.027  19.286  0.00  0.00    +0.000 A 
ATOM     11  C   UNL     1      -5.083  11.349  18.180  0.00  0.00    +0.000 A 
ATOM     12  C   UNL     1      -4.165  10.919  17.233  0.00  0.00    +0.000 A 
ATOM     13  C   UNL     1      -2.802  11.235  17.383  0.00  0.00    +0.000 A 
ATOM     14  C   UNL     1      -2.316  11.912  18.522  0.00  0.00    +0.000 A 
ATOM     15  C   UNL     1      -3.203  12.248  19.522  0.00  0.00    +0.000 A 
ENDROOT
BRANCH   1  16
ATOM     16  C   UNL     1      -1.918  13.037  21.733  0.00  0.00    +0.000 C 
BRANCH  16  17
ATOM     17  C   UNL     1      -0.959  11.894  22.041  0.00  0.00    +0.000 A 
ATOM     18  C   UNL     1      -1.217  10.970  23.058  0.00  0.00    +0.000 A 
ATOM     19  C   UNL     1      -0.486   9.786  23.149  0.00  0.00    +0.000 A 
ATOM     20  C   UNL     1       0.521   9.513  22.230  0.00  0.00    +0.000 A 
ATOM     21  C   UNL     1       0.821  10.438  21.235  0.00  0.00    +0.000 A 
ATOM     22  C   UNL     1       0.091  11.623  21.145  0.00  0.00    +0.000 A 
ENDBRANCH  16  17
BRANCH  16  23
ATOM     23  C   UNL     1      -1.093  14.332  21.551  0.00  0.00    +0.000 C 
BRANCH  23  24
ATOM     24  C   UNL     1      -1.498  15.324  20.447  0.00  0.00    +0.000 C 
BRANCH  24  26
ATOM     25  C   UNL     1       0.102  16.228  18.789  0.00  0.00    +0.000 C 
ATOM     26  N   UNL     1      -0.897  15.207  19.112  0.00  0.00    +0.000 NA
ATOM     27  H   UNL     1      -0.429  14.298  19.058  0.00  0.00    +0.000 HD
ENDBRANCH  24  26
ENDBRANCH  23  24
ENDBRANCH  16  23
ENDBRANCH   1  16
TORSDOF 5
ENDMDL
