MODEL 1
REMARK VINA RESULT:      -7.3      0.000      0.000
REMARK  Name = 
REMARK  4 active torsions:
REMARK  status: ('A' for Active; 'I' for Inactive)
REMARK    1  A    between atoms: C_2  and  C_15
REMARK    2  A    between atoms: N_3  and  N_4
REMARK    3  A    between atoms: C_5  and  C_6
REMARK    4  A    between atoms: C_8  and  C_9
REMARK                            x       y       z     vdW  Elec       q    Type
REMARK                         _______ _______ _______ _____ _____    ______ ____
ROOT
ATOM      1  N   UNL     1       8.003   8.743  18.209  0.00  0.00    +0.000 NA
ATOM      2  C   UNL     1       7.518   7.976  17.288  0.00  0.00    +0.000 C 
ENDROOT
BRANCH   1   5
ATOM      3  O   UNL     1       9.185  10.355  20.054  0.00  0.00    +0.000 OA
ATOM      4  C   UNL     1       9.347  10.558  18.854  0.00  0.00    +0.000 C 
ATOM      5  N   UNL     1       8.782   9.797  17.838  0.00  0.00    +0.000 N 
ATOM      6  H   UNL     1       9.047   9.910  16.867  0.00  0.00    +0.000 HD
BRANCH   4   7
ATOM      7  C   UNL     1      10.238  11.673  18.448  0.00  0.00    +0.000 A 
ATOM      8  C   UNL     1      11.510  11.724  19.027  0.00  0.00    +0.000 A 
ATOM      9  C   UNL     1      12.333  12.782  18.699  0.00  0.00    +0.000 A 
ATOM     10  N   UNL     1      11.972  13.772  17.855  0.00  0.00    +0.000 NA
ATOM     11  C   UNL     1      10.729  13.709  17.327  0.00  0.00    +0.000 A 
ATOM     12  C   UNL     1       9.830  12.687  17.585  0.00  0.00    +0.000 A 
ENDBRANCH   4   7
ENDBRANCH   1   5
BRANCH   2  13
ATOM     13  C   UNL     1       6.684   6.774  17.595  0.00  0.00    +0.000 C 
ATOM     14 BR   UNL     1       7.395   5.547  18.805  0.00  0.00    +0.000 Br
ATOM     15  C   UNL     1       5.476   6.681  17.009  0.00  0.00    +0.000 C 
BRANCH  15  16
ATOM     16  C   UNL     1       4.493   5.621  17.237  0.00  0.00    +0.000 A 
ATOM     17  C   UNL     1       4.765   4.324  16.789  0.00  0.00    +0.000 A 
ATOM     18  C   UNL     1       3.845   3.296  17.011  0.00  0.00    +0.000 A 
ATOM     19  C   UNL     1       2.654   3.560  17.685  0.00  0.00    +0.000 A 
ATOM     20  C   UNL     1       2.382   4.851  18.139  0.00  0.00    +0.000 A 
ATOM     21  C   UNL     1       3.299   5.881  17.916  0.00  0.00    +0.000 A 
ENDBRANCH  15  16
ENDBRANCH   2  13
TORSDOF 4
ENDMDL
MODEL 2
REMARK VINA RESULT:      -7.2      0.269      1.521
REMARK  Name = 
REMARK  4 active torsions:
REMARK  status: ('A' for Active; 'I' for Inactive)
REMARK    1  A    between atoms: C_2  and  C_15
REMARK    2  A    between atoms: N_3  and  N_4
REMARK    3  A    between atoms: C_5  and  C_6
REMARK    4  A    between atoms: C_8  and  C_9
REMARK                            x       y       z     vdW  Elec       q    Type
REMARK                         _______ _______ _______ _____ _____    ______ ____
ROOT
ATOM      1  N   UNL     1       7.752   8.969  18.111  0.00  0.00    +0.000 NA
ATOM      2  C   UNL     1       7.817   7.860  17.449  0.00  0.00    +0.000 C 
ENDROOT
BRANCH   1   5
ATOM      3  O   UNL     1       9.009  10.357  20.083  0.00  0.00    +0.000 OA
ATOM      4  C   UNL     1       9.244  10.600  18.903  0.00  0.00    +0.000 C 
ATOM      5  N   UNL     1       8.650   9.953  17.827  0.00  0.00    +0.000 N 
ATOM      6  H   UNL     1       8.968  10.085  16.874  0.00  0.00    +0.000 HD
BRANCH   4   7
ATOM      7  C   UNL     1      10.261  11.635  18.592  0.00  0.00    +0.000 A 
ATOM      8  C   UNL     1      10.051  12.425  17.457  0.00  0.00    +0.000 A 
ATOM      9  C   UNL     1      11.012  13.358  17.125  0.00  0.00    +0.000 A 
ATOM     10  N   UNL     1      12.146  13.542  17.834  0.00  0.00    +0.000 NA
ATOM     11  C   UNL     1      12.333  12.751  18.914  0.00  0.00    +0.000 A 
ATOM     12  C   UNL     1      11.428  11.791  19.336  0.00  0.00    +0.000 A 
ENDBRANCH   4   7
ENDBRANCH   1   5
BRANCH   2  13
ATOM     13  C   UNL     1       6.902   6.708  17.712  0.00  0.00    +0.000 C 
ATOM     14 BR   UNL     1       7.498   5.425  18.926  0.00  0.00    +0.000 Br
ATOM     15  C   UNL     1       5.710   6.695  17.087  0.00  0.00    +0.000 C 
BRANCH  15  16
ATOM     16  C   UNL     1       4.658   5.695  17.269  0.00  0.00    +0.000 A 
ATOM     17  C   UNL     1       3.445   6.074  17.856  0.00  0.00    +0.000 A 
ATOM     18  C   UNL     1       2.423   5.138  18.024  0.00  0.00    +0.000 A 
ATOM     19  C   UNL     1       2.607   3.822  17.603  0.00  0.00    +0.000 A 
ATOM     20  C   UNL     1       3.811   3.442  17.012  0.00  0.00    +0.000 A 
ATOM     21  C   UNL     1       4.837   4.376  16.845  0.00  0.00    +0.000 A 
ENDBRANCH  15  16
ENDBRANCH   2  13
TORSDOF 4
ENDMDL
MODEL 3
REMARK VINA RESULT:      -7.2      1.668      2.078
REMARK  Name = 
REMARK  4 active torsions:
REMARK  status: ('A' for Active; 'I' for Inactive)
REMARK    1  A    between atoms: C_2  and  C_15
REMARK    2  A    between atoms: N_3  and  N_4
REMARK    3  A    between atoms: C_5  and  C_6
REMARK    4  A    between atoms: C_8  and  C_9
REMARK                            x       y       z     vdW  Elec       q    Type
REMARK                         _______ _______ _______ _____ _____    ______ ____
ROOT
ATOM      1  N   UNL     1       7.700   7.668  18.198  0.00  0.00    +0.000 NA
ATOM      2  C   UNL     1       7.702   6.422  18.542  0.00  0.00    +0.000 C 
ENDROOT
BRANCH   1   5
ATOM      3  O   UNL     1       7.811  10.306  17.546  0.00  0.00    +0.000 OA
ATOM      4  C   UNL     1       8.631   9.821  18.321  0.00  0.00    +0.000 C 
ATOM      5  N   UNL     1       8.662   8.487  18.709  0.00  0.00    +0.000 N 
ATOM      6  H   UNL     1       9.266   8.154  19.450  0.00  0.00    +0.000 HD
BRANCH   4   7
ATOM      7  C   UNL     1       9.646  10.723  18.919  0.00  0.00    +0.000 A 
ATOM      8  C   UNL     1      10.660  11.197  18.080  0.00  0.00    +0.000 A 
ATOM      9  C   UNL     1      11.640  11.997  18.632  0.00  0.00    +0.000 A 
ATOM     10  N   UNL     1      11.674  12.338  19.937  0.00  0.00    +0.000 NA
ATOM     11  C   UNL     1      10.694  11.849  20.729  0.00  0.00    +0.000 A 
ATOM     12  C   UNL     1       9.661  11.046  20.274  0.00  0.00    +0.000 A 
ENDBRANCH   4   7
ENDBRANCH   1   5
BRANCH   2  13
ATOM     13  C   UNL     1       6.669   5.452  18.066  0.00  0.00    +0.000 C 
ATOM     14 BR   UNL     1       7.068   4.495  16.517  0.00  0.00    +0.000 Br
ATOM     15  C   UNL     1       5.550   5.314  18.801  0.00  0.00    +0.000 C 
BRANCH  15  16
ATOM     16  C   UNL     1       4.463   4.370  18.538  0.00  0.00    +0.000 A 
ATOM     17  C   UNL     1       4.481   3.113  19.153  0.00  0.00    +0.000 A 
ATOM     18  C   UNL     1       3.445   2.205  18.927  0.00  0.00    +0.000 A 
ATOM     19  C   UNL     1       2.386   2.550  18.089  0.00  0.00    +0.000 A 
ATOM     20  C   UNL     1       2.361   3.804  17.479  0.00  0.00    +0.000 A 
ATOM     21  C   UNL     1       3.397   4.714  17.702  0.00  0.00    +0.000 A 
ENDBRANCH  15  16
ENDBRANCH   2  13
TORSDOF 4
ENDMDL
MODEL 4
REMARK VINA RESULT:      -7.2      1.598      1.854
REMARK  Name = 
REMARK  4 active torsions:
REMARK  status: ('A' for Active; 'I' for Inactive)
REMARK    1  A    between atoms: C_2  and  C_15
REMARK    2  A    between atoms: N_3  and  N_4
REMARK    3  A    between atoms: C_5  and  C_6
REMARK    4  A    between atoms: C_8  and  C_9
REMARK                            x       y       z     vdW  Elec       q    Type
REMARK                         _______ _______ _______ _____ _____    ______ ____
ROOT
ATOM      1  N   UNL     1       7.662   7.881  17.907  0.00  0.00    +0.000 NA
ATOM      2  C   UNL     1       7.576   6.636  18.245  0.00  0.00    +0.000 C 
ENDROOT
BRANCH   1   5
ATOM      3  O   UNL     1       7.785  10.569  17.512  0.00  0.00    +0.000 OA
ATOM      4  C   UNL     1       8.639   9.998  18.184  0.00  0.00    +0.000 C 
ATOM      5  N   UNL     1       8.667   8.632  18.437  0.00  0.00    +0.000 N 
ATOM      6  H   UNL     1       9.307   8.219  19.105  0.00  0.00    +0.000 HD
BRANCH   4   7
ATOM      7  C   UNL     1       9.704  10.823  18.806  0.00  0.00    +0.000 A 
ATOM      8  C   UNL     1       9.594  11.093  20.174  0.00  0.00    +0.000 A 
ATOM      9  C   UNL     1      10.549  11.900  20.758  0.00  0.00    +0.000 A 
ATOM     10  N   UNL     1      11.578  12.447  20.077  0.00  0.00    +0.000 NA
ATOM     11  C   UNL     1      11.648  12.187  18.752  0.00  0.00    +0.000 A 
ATOM     12  C   UNL     1      10.747  11.385  18.072  0.00  0.00    +0.000 A 
ENDBRANCH   4   7
ENDBRANCH   1   5
BRANCH   2  13
ATOM     13  C   UNL     1       6.488   5.738  17.748  0.00  0.00    +0.000 C 
ATOM     14 BR   UNL     1       6.740   4.967  16.070  0.00  0.00    +0.000 Br
ATOM     15  C   UNL     1       5.432   5.525  18.554  0.00  0.00    +0.000 C 
BRANCH  15  16
ATOM     16  C   UNL     1       4.309   4.629  18.275  0.00  0.00    +0.000 A 
ATOM     17  C   UNL     1       4.455   3.255  18.497  0.00  0.00    +0.000 A 
ATOM     18  C   UNL     1       3.390   2.386  18.252  0.00  0.00    +0.000 A 
ATOM     19  C   UNL     1       2.175   2.886  17.787  0.00  0.00    +0.000 A 
ATOM     20  C   UNL     1       2.023   4.255  17.570  0.00  0.00    +0.000 A 
ATOM     21  C   UNL     1       3.087   5.127  17.813  0.00  0.00    +0.000 A 
ENDBRANCH  15  16
ENDBRANCH   2  13
TORSDOF 4
ENDMDL
MODEL 5
REMARK VINA RESULT:      -7.1      0.566      1.214
REMARK  Name = 
REMARK  4 active torsions:
REMARK  status: ('A' for Active; 'I' for Inactive)
REMARK    1  A    between atoms: C_2  and  C_15
REMARK    2  A    between atoms: N_3  and  N_4
REMARK    3  A    between atoms: C_5  and  C_6
REMARK    4  A    between atoms: C_8  and  C_9
REMARK                            x       y       z     vdW  Elec       q    Type
REMARK                         _______ _______ _______ _____ _____    ______ ____
ROOT
ATOM      1  N   UNL     1       7.794   9.085  18.008  0.00  0.00    +0.000 NA
ATOM      2  C   UNL     1       7.943   7.959  17.389  0.00  0.00    +0.000 C 
ENDROOT
BRANCH   1   5
ATOM      3  O   UNL     1       9.052  10.271  20.108  0.00  0.00    +0.000 OA
ATOM      4  C   UNL     1       9.316  10.602  18.955  0.00  0.00    +0.000 C 
ATOM      5  N   UNL     1       8.724  10.061  17.820  0.00  0.00    +0.000 N 
ATOM      6  H   UNL     1       9.064  10.260  16.887  0.00  0.00    +0.000 HD
BRANCH   4   7
ATOM      7  C   UNL     1      10.368  11.627  18.746  0.00  0.00    +0.000 A 
ATOM      8  C   UNL     1      11.309  11.801  19.766  0.00  0.00    +0.000 A 
ATOM      9  C   UNL     1      12.265  12.785  19.610  0.00  0.00    +0.000 A 
ATOM     10  N   UNL     1      12.333  13.591  18.529  0.00  0.00    +0.000 NA
ATOM     11  C   UNL     1      11.398  13.415  17.569  0.00  0.00    +0.000 A 
ATOM     12  C   UNL     1      10.403  12.453  17.625  0.00  0.00    +0.000 A 
ENDBRANCH   4   7
ENDBRANCH   1   5
BRANCH   2  13
ATOM     13  C   UNL     1       6.997   6.813  17.559  0.00  0.00    +0.000 C 
ATOM     14 BR   UNL     1       7.704   5.243  18.273  0.00  0.00    +0.000 Br
ATOM     15  C   UNL     1       5.709   7.006  17.220  0.00  0.00    +0.000 C 
BRANCH  15  16
ATOM     16  C   UNL     1       4.627   6.033  17.379  0.00  0.00    +0.000 A 
ATOM     17  C   UNL     1       3.502   6.376  18.137  0.00  0.00    +0.000 A 
ATOM     18  C   UNL     1       2.452   5.468  18.287  0.00  0.00    +0.000 A 
ATOM     19  C   UNL     1       2.521   4.216  17.678  0.00  0.00    +0.000 A 
ATOM     20  C   UNL     1       3.638   3.872  16.917  0.00  0.00    +0.000 A 
ATOM     21  C   UNL     1       4.691   4.779  16.767  0.00  0.00    +0.000 A 
ENDBRANCH  15  16
ENDBRANCH   2  13
TORSDOF 4
ENDMDL
MODEL 6
REMARK VINA RESULT:      -7.1      1.724      2.217
REMARK  Name = 
REMARK  4 active torsions:
REMARK  status: ('A' for Active; 'I' for Inactive)
REMARK    1  A    between atoms: C_2  and  C_15
REMARK    2  A    between atoms: N_3  and  N_4
REMARK    3  A    between atoms: C_5  and  C_6
REMARK    4  A    between atoms: C_8  and  C_9
REMARK                            x       y       z     vdW  Elec       q    Type
REMARK                         _______ _______ _______ _____ _____    ______ ____
ROOT
ATOM      1  N   UNL     1       7.627   7.553  18.271  0.00  0.00    +0.000 NA
ATOM      2  C   UNL     1       7.725   6.274  18.436  0.00  0.00    +0.000 C 
ENDROOT
BRANCH   1   5
ATOM      3  O   UNL     1       7.783  10.183  17.596  0.00  0.00    +0.000 OA
ATOM      4  C   UNL     1       8.615   9.682  18.347  0.00  0.00    +0.000 C 
ATOM      5  N   UNL     1       8.624   8.350  18.744  0.00  0.00    +0.000 N 
ATOM      6  H   UNL     1       9.244   8.007  19.468  0.00  0.00    +0.000 HD
BRANCH   4   7
ATOM      7  C   UNL     1       9.672  10.561  18.905  0.00  0.00    +0.000 A 
ATOM      8  C   UNL     1       9.564  10.923  20.252  0.00  0.00    +0.000 A 
ATOM      9  C   UNL     1      10.511  11.781  20.774  0.00  0.00    +0.000 A 
ATOM     10  N   UNL     1      11.529  12.293  20.051  0.00  0.00    +0.000 NA
ATOM     11  C   UNL     1      11.596  11.945  18.747  0.00  0.00    +0.000 A 
ATOM     12  C   UNL     1      10.703  11.086  18.129  0.00  0.00    +0.000 A 
ENDBRANCH   4   7
ENDBRANCH   1   5
BRANCH   2  13
ATOM     13  C   UNL     1       6.666   5.319  17.987  0.00  0.00    +0.000 C 
ATOM     14 BR   UNL     1       6.982   4.409  16.390  0.00  0.00    +0.000 Br
ATOM     15  C   UNL     1       5.588   5.158  18.776  0.00  0.00    +0.000 C 
BRANCH  15  16
ATOM     16  C   UNL     1       4.487   4.223  18.542  0.00  0.00    +0.000 A 
ATOM     17  C   UNL     1       3.391   4.630  17.774  0.00  0.00    +0.000 A 
ATOM     18  C   UNL     1       2.338   3.747  17.527  0.00  0.00    +0.000 A 
ATOM     19  C   UNL     1       2.379   2.453  18.044  0.00  0.00    +0.000 A 
ATOM     20  C   UNL     1       3.472   2.041  18.805  0.00  0.00    +0.000 A 
ATOM     21  C   UNL     1       4.526   2.923  19.055  0.00  0.00    +0.000 A 
ENDBRANCH  15  16
ENDBRANCH   2  13
TORSDOF 4
ENDMDL
MODEL 7
REMARK VINA RESULT:      -7.1      1.812      2.361
REMARK  Name = 
REMARK  4 active torsions:
REMARK  status: ('A' for Active; 'I' for Inactive)
REMARK    1  A    between atoms: C_2  and  C_15
REMARK    2  A    between atoms: N_3  and  N_4
REMARK    3  A    between atoms: C_5  and  C_6
REMARK    4  A    between atoms: C_8  and  C_9
REMARK                            x       y       z     vdW  Elec       q    Type
REMARK                         _______ _______ _______ _____ _____    ______ ____
ROOT
ATOM      1  N   UNL     1       7.909   7.428  18.164  0.00  0.00    +0.000 NA
ATOM      2  C   UNL     1       7.407   6.456  18.854  0.00  0.00    +0.000 C 
ENDROOT
BRANCH   1   5
ATOM      3  O   UNL     1       7.847  10.105  17.689  0.00  0.00    +0.000 OA
ATOM      4  C   UNL     1       8.665   9.630  18.472  0.00  0.00    +0.000 C 
ATOM      5  N   UNL     1       8.780   8.279  18.775  0.00  0.00    +0.000 N 
ATOM      6  H   UNL     1       9.372   7.942  19.525  0.00  0.00    +0.000 HD
BRANCH   4   7
ATOM      7  C   UNL     1       9.578  10.562  19.179  0.00  0.00    +0.000 A 
ATOM      8  C   UNL     1      10.716  10.994  18.490  0.00  0.00    +0.000 A 
ATOM      9  C   UNL     1      11.602  11.822  19.150  0.00  0.00    +0.000 A 
ATOM     10  N   UNL     1      11.431  12.228  20.426  0.00  0.00    +0.000 NA
ATOM     11  C   UNL     1      10.334  11.778  21.074  0.00  0.00    +0.000 A 
ATOM     12  C   UNL     1       9.381  10.952  20.501  0.00  0.00    +0.000 A 
ENDBRANCH   4   7
ENDBRANCH   1   5
BRANCH   2  13
ATOM     13  C   UNL     1       6.415   5.492  18.285  0.00  0.00    +0.000 C 
ATOM     14 BR   UNL     1       6.841   4.725  16.640  0.00  0.00    +0.000 Br
ATOM     15  C   UNL     1       5.314   5.222  19.010  0.00  0.00    +0.000 C 
BRANCH  15  16
ATOM     16  C   UNL     1       4.270   4.260  18.656  0.00  0.00    +0.000 A 
ATOM     17  C   UNL     1       3.075   4.719  18.091  0.00  0.00    +0.000 A 
ATOM     18  C   UNL     1       2.074   3.814  17.732  0.00  0.00    +0.000 A 
ATOM     19  C   UNL     1       2.264   2.448  17.934  0.00  0.00    +0.000 A 
ATOM     20  C   UNL     1       3.456   1.986  18.491  0.00  0.00    +0.000 A 
ATOM     21  C   UNL     1       4.459   2.889  18.853  0.00  0.00    +0.000 A 
ENDBRANCH  15  16
ENDBRANCH   2  13
TORSDOF 4
ENDMDL
MODEL 8
REMARK VINA RESULT:      -7.1      1.174      1.482
REMARK  Name = 
REMARK  4 active torsions:
REMARK  status: ('A' for Active; 'I' for Inactive)
REMARK    1  A    between atoms: C_2  and  C_15
REMARK    2  A    between atoms: N_3  and  N_4
REMARK    3  A    between atoms: C_5  and  C_6
REMARK    4  A    between atoms: C_8  and  C_9
REMARK                            x       y       z     vdW  Elec       q    Type
REMARK                         _______ _______ _______ _____ _____    ______ ____
ROOT
ATOM      1  N   UNL     1       7.843   8.088  17.943  0.00  0.00    +0.000 NA
ATOM      2  C   UNL     1       6.866   7.571  17.272  0.00  0.00    +0.000 C 
ENDROOT
BRANCH   1   5
ATOM      3  O   UNL     1       9.195   9.680  19.685  0.00  0.00    +0.000 OA
ATOM      4  C   UNL     1       8.999  10.046  18.529  0.00  0.00    +0.000 C 
ATOM      5  N   UNL     1       8.315   9.310  17.570  0.00  0.00    +0.000 N 
ATOM      6  H   UNL     1       8.292   9.583  16.595  0.00  0.00    +0.000 HD
BRANCH   4   7
ATOM      7  C   UNL     1       9.559  11.354  18.107  0.00  0.00    +0.000 A 
ATOM      8  C   UNL     1      10.939  11.424  17.891  0.00  0.00    +0.000 A 
ATOM      9  C   UNL     1      11.483  12.644  17.547  0.00  0.00    +0.000 A 
ATOM     10  N   UNL     1      10.755  13.773  17.414  0.00  0.00    +0.000 NA
ATOM     11  C   UNL     1       9.427  13.681  17.648  0.00  0.00    +0.000 A 
ATOM     12  C   UNL     1       8.782  12.504  17.992  0.00  0.00    +0.000 A 
ENDBRANCH   4   7
ENDBRANCH   1   5
BRANCH   2  13
ATOM     13  C   UNL     1       6.303   6.220  17.578  0.00  0.00    +0.000 C 
ATOM     14 BR   UNL     1       7.524   4.820  17.744  0.00  0.00    +0.000 Br
ATOM     15  C   UNL     1       4.972   6.117  17.746  0.00  0.00    +0.000 C 
BRANCH  15  16
ATOM     16  C   UNL     1       4.246   4.902  18.118  0.00  0.00    +0.000 A 
ATOM     17  C   UNL     1       4.029   4.619  19.471  0.00  0.00    +0.000 A 
ATOM     18  C   UNL     1       3.326   3.472  19.845  0.00  0.00    +0.000 A 
ATOM     19  C   UNL     1       2.833   2.607  18.869  0.00  0.00    +0.000 A 
ATOM     20  C   UNL     1       3.041   2.889  17.519  0.00  0.00    +0.000 A 
ATOM     21  C   UNL     1       3.747   4.035  17.142  0.00  0.00    +0.000 A 
ENDBRANCH  15  16
ENDBRANCH   2  13
TORSDOF 4
ENDMDL
MODEL 9
REMARK VINA RESULT:      -6.8      1.574      2.132
REMARK  Name = 
REMARK  4 active torsions:
REMARK  status: ('A' for Active; 'I' for Inactive)
REMARK    1  A    between atoms: C_2  and  C_15
REMARK    2  A    between atoms: N_3  and  N_4
REMARK    3  A    between atoms: C_5  and  C_6
REMARK    4  A    between atoms: C_8  and  C_9
REMARK                            x       y       z     vdW  Elec       q    Type
REMARK                         _______ _______ _______ _____ _____    ______ ____
ROOT
ATOM      1  N   UNL     1       7.138   7.682  17.116  0.00  0.00    +0.000 NA
ATOM      2  C   UNL     1       5.870   7.515  17.303  0.00  0.00    +0.000 C 
ENDROOT
BRANCH   1   5
ATOM      3  O   UNL     1       8.803   8.318  19.171  0.00  0.00    +0.000 OA
ATOM      4  C   UNL     1       8.503   9.160  18.328  0.00  0.00    +0.000 C 
ATOM      5  N   UNL     1       7.658   8.934  17.249  0.00  0.00    +0.000 N 
ATOM      6  H   UNL     1       7.543   9.609  16.502  0.00  0.00    +0.000 HD
BRANCH   4   7
ATOM      7  C   UNL     1       9.111  10.508  18.441  0.00  0.00    +0.000 A 
ATOM      8  C   UNL     1      10.138  10.676  19.376  0.00  0.00    +0.000 A 
ATOM      9  C   UNL     1      10.680  11.936  19.529  0.00  0.00    +0.000 A 
ATOM     10  N   UNL     1      10.266  13.014  18.831  0.00  0.00    +0.000 NA
ATOM     11  C   UNL     1       9.258  12.828  17.950  0.00  0.00    +0.000 A 
ATOM     12  C   UNL     1       8.651  11.605  17.715  0.00  0.00    +0.000 A 
ENDBRANCH   4   7
ENDBRANCH   1   5
BRANCH   2  13
ATOM     13  C   UNL     1       5.198   6.189  17.145  0.00  0.00    +0.000 C 
ATOM     14 BR   UNL     1       5.704   5.164  15.672  0.00  0.00    +0.000 Br
ATOM     15  C   UNL     1       4.311   5.817  18.086  0.00  0.00    +0.000 C 
BRANCH  15  16
ATOM     16  C   UNL     1       3.608   4.535  18.142  0.00  0.00    +0.000 A 
ATOM     17  C   UNL     1       2.239   4.489  17.854  0.00  0.00    +0.000 A 
ATOM     18  C   UNL     1       1.555   3.272  17.887  0.00  0.00    +0.000 A 
ATOM     19  C   UNL     1       2.236   2.098  18.203  0.00  0.00    +0.000 A 
ATOM     20  C   UNL     1       3.601   2.138  18.484  0.00  0.00    +0.000 A 
ATOM     21  C   UNL     1       4.288   3.354  18.454  0.00  0.00    +0.000 A 
ENDBRANCH  15  16
ENDBRANCH   2  13
TORSDOF 4
ENDMDL
