MODEL 1
REMARK VINA RESULT:      -8.2      0.000      0.000
REMARK  Name = 
REMARK  11 active torsions:
REMARK  status: ('A' for Active; 'I' for Inactive)
REMARK    1  A    between atoms: C_1  and  C_2
REMARK    2  A    between atoms: C_5  and  C_6
REMARK    3  A    between atoms: C_8  and  C_9
REMARK    4  A    between atoms: C_9  and  O_10
REMARK    5  A    between atoms: O_10  and  C_11
REMARK    6  A    between atoms: C_14  and  C_15
REMARK    7  A    between atoms: C_15  and  C_16
REMARK    8  A    between atoms: C_19  and  C_20
REMARK    9  A    between atoms: C_19  and  C_21
REMARK   10  A    between atoms: C_21  and  O_23
REMARK   11  A    between atoms: C_28  and  C_29
REMARK                            x       y       z     vdW  Elec       q    Type
REMARK                         _______ _______ _______ _____ _____    ______ ____
ROOT
ATOM      1  C   UNL     1       0.796   9.850  21.910  0.00  0.00    +0.000 A 
ATOM      2  C   UNL     1       0.824  11.072  21.238  0.00  0.00    +0.000 A 
ATOM      3  C   UNL     1      -0.062  12.084  21.588  0.00  0.00    +0.000 A 
ATOM      4  C   UNL     1      -1.026  11.873  22.579  0.00  0.00    +0.000 A 
ATOM      5  C   UNL     1      -1.046  10.650  23.262  0.00  0.00    +0.000 A 
ATOM      6  C   UNL     1      -0.141   9.642  22.923  0.00  0.00    +0.000 A 
ENDROOT
BRANCH   1   7
ATOM      7  O   UNL     1       1.629   8.800  21.645  0.00  0.00    +0.000 OA
BRANCH   7   8
ATOM      8  C   UNL     1       1.082   7.817  20.760  0.00  0.00    +0.000 C 
BRANCH   8  11
ATOM      9  C   UNL     1       3.177   6.856  18.062  0.00  0.00    +0.000 A 
ATOM     10  N   UNL     1       2.637   6.612  19.242  0.00  0.00    +0.000 NA
ATOM     11  C   UNL     1       1.873   7.728  19.510  0.00  0.00    +0.000 A 
ATOM     12  C   UNL     1       1.993   8.629  18.479  0.00  0.00    +0.000 A 
ATOM     13  C   UNL     1       1.433   9.957  18.178  0.00  0.00    +0.000 C 
ATOM     14  O   UNL     1       2.832   8.084  17.549  0.00  0.00    +0.000 OA
BRANCH   9  19
ATOM     15  C   UNL     1       6.954   4.567  15.166  0.00  0.00    +0.000 C 
ATOM     16  C   UNL     1       5.776   4.818  16.040  0.00  0.00    +0.000 A 
ATOM     17  C   UNL     1       4.929   3.904  16.630  0.00  0.00    +0.000 A 
ATOM     18  C   UNL     1       3.922   4.538  17.415  0.00  0.00    +0.000 A 
ATOM     19  C   UNL     1       4.026   5.916  17.390  0.00  0.00    +0.000 A 
ATOM     20  S   UNL     1       5.339   6.427  16.422  0.00  0.00    +0.000 S 
ENDBRANCH   9  19
ENDBRANCH   8  11
ENDBRANCH   7   8
ENDBRANCH   1   7
BRANCH   4  21
ATOM     21  C   UNL     1      -2.064  12.933  22.852  0.00  0.00    +0.000 C 
BRANCH  21  22
ATOM     22  C   UNL     1      -3.485  12.347  22.954  0.00  0.00    +0.000 C 
ATOM     23  C   UNL     1      -4.109  12.584  24.328  0.00  0.00    +0.000 C 
ATOM     24  O   UNL     1      -5.470  12.145  24.367  0.00  0.00    +0.000 OA
ATOM     25  C   UNL     1      -6.260  12.737  23.323  0.00  0.00    +0.000 C 
ATOM     26  C   UNL     1      -7.619  12.035  23.370  0.00  0.00    +0.000 C 
ATOM     27  O   UNL     1      -5.719  12.452  22.043  0.00  0.00    +0.000 OA
ATOM     28  C   UNL     1      -4.395  12.944  21.888  0.00  0.00    +0.000 C 
BRANCH  25  29
ATOM     29  C   UNL     1      -6.546  14.240  23.673  0.00  0.00    +0.000 C 
ATOM     30  O   UNL     1      -5.907  15.201  23.278  0.00  0.00    +0.000 OA
BRANCH  29  31
ATOM     31  O   UNL     1      -7.604  14.367  24.528  0.00  0.00    +0.000 OA
ATOM     32  H   UNL     1      -7.697  13.549  25.066  0.00  0.00    +0.000 HD
ENDBRANCH  29  31
ENDBRANCH  25  29
ENDBRANCH  21  22
ENDBRANCH   4  21
TORSDOF 8
ENDMDL
MODEL 2
REMARK VINA RESULT:      -8.0      1.612      2.242
REMARK  Name = 
REMARK  11 active torsions:
REMARK  status: ('A' for Active; 'I' for Inactive)
REMARK    1  A    between atoms: C_1  and  C_2
REMARK    2  A    between atoms: C_5  and  C_6
REMARK    3  A    between atoms: C_8  and  C_9
REMARK    4  A    between atoms: C_9  and  O_10
REMARK    5  A    between atoms: O_10  and  C_11
REMARK    6  A    between atoms: C_14  and  C_15
REMARK    7  A    between atoms: C_15  and  C_16
REMARK    8  A    between atoms: C_19  and  C_20
REMARK    9  A    between atoms: C_19  and  C_21
REMARK   10  A    between atoms: C_21  and  O_23
REMARK   11  A    between atoms: C_28  and  C_29
REMARK                            x       y       z     vdW  Elec       q    Type
REMARK                         _______ _______ _______ _____ _____    ______ ____
ROOT
ATOM      1  C   UNL     1       0.827   9.122  21.563  0.00  0.00    +0.000 A 
ATOM      2  C   UNL     1       0.314   9.431  22.823  0.00  0.00    +0.000 A 
ATOM      3  C   UNL     1      -0.568  10.494  22.979  0.00  0.00    +0.000 A 
ATOM      4  C   UNL     1      -0.910  11.298  21.887  0.00  0.00    +0.000 A 
ATOM      5  C   UNL     1      -0.404  10.980  20.620  0.00  0.00    +0.000 A 
ATOM      6  C   UNL     1       0.465   9.899  20.462  0.00  0.00    +0.000 A 
ENDROOT
BRANCH   1   7
ATOM      7  O   UNL     1       1.691   8.094  21.308  0.00  0.00    +0.000 OA
BRANCH   7   8
ATOM      8  C   UNL     1       1.058   6.837  21.046  0.00  0.00    +0.000 C 
BRANCH   8  11
ATOM      9  C   UNL     1       3.267   5.368  18.688  0.00  0.00    +0.000 A 
ATOM     10  N   UNL     1       2.538   6.390  19.101  0.00  0.00    +0.000 NA
ATOM     11  C   UNL     1       1.948   5.947  20.265  0.00  0.00    +0.000 A 
ATOM     12  C   UNL     1       2.329   4.648  20.511  0.00  0.00    +0.000 A 
ATOM     13  C   UNL     1       2.058   3.659  21.567  0.00  0.00    +0.000 C 
ATOM     14  O   UNL     1       3.167   4.266  19.503  0.00  0.00    +0.000 OA
BRANCH   9  19
ATOM     15  C   UNL     1       6.165   4.182  14.436  0.00  0.00    +0.000 C 
ATOM     16  C   UNL     1       5.447   4.903  15.522  0.00  0.00    +0.000 A 
ATOM     17  C   UNL     1       5.344   6.261  15.735  0.00  0.00    +0.000 A 
ATOM     18  C   UNL     1       4.552   6.564  16.881  0.00  0.00    +0.000 A 
ATOM     19  C   UNL     1       4.083   5.426  17.511  0.00  0.00    +0.000 A 
ATOM     20  S   UNL     1       4.605   4.008  16.712  0.00  0.00    +0.000 S 
ENDBRANCH   9  19
ENDBRANCH   8  11
ENDBRANCH   7   8
ENDBRANCH   1   7
BRANCH   4  21
ATOM     21  C   UNL     1      -1.760  12.526  22.099  0.00  0.00    +0.000 C 
BRANCH  21  22
ATOM     22  C   UNL     1      -3.188  12.177  22.558  0.00  0.00    +0.000 C 
ATOM     23  C   UNL     1      -3.516  12.771  23.927  0.00  0.00    +0.000 C 
ATOM     24  O   UNL     1      -4.882  12.543  24.283  0.00  0.00    +0.000 OA
ATOM     25  C   UNL     1      -5.790  13.016  23.275  0.00  0.00    +0.000 C 
ATOM     26  C   UNL     1      -7.180  12.534  23.697  0.00  0.00    +0.000 C 
ATOM     27  O   UNL     1      -5.532  12.406  22.021  0.00  0.00    +0.000 OA
ATOM     28  C   UNL     1      -4.218  12.667  21.547  0.00  0.00    +0.000 C 
BRANCH  25  29
ATOM     29  C   UNL     1      -5.852  14.583  23.321  0.00  0.00    +0.000 C 
ATOM     30  O   UNL     1      -5.419  15.291  24.216  0.00  0.00    +0.000 OA
BRANCH  29  31
ATOM     31  O   UNL     1      -6.496  15.096  22.231  0.00  0.00    +0.000 OA
ATOM     32  H   UNL     1      -7.398  14.709  22.164  0.00  0.00    +0.000 HD
ENDBRANCH  29  31
ENDBRANCH  25  29
ENDBRANCH  21  22
ENDBRANCH   4  21
TORSDOF 8
ENDMDL
MODEL 3
REMARK VINA RESULT:      -7.8      3.861     11.816
REMARK  Name = 
REMARK  11 active torsions:
REMARK  status: ('A' for Active; 'I' for Inactive)
REMARK    1  A    between atoms: C_1  and  C_2
REMARK    2  A    between atoms: C_5  and  C_6
REMARK    3  A    between atoms: C_8  and  C_9
REMARK    4  A    between atoms: C_9  and  O_10
REMARK    5  A    between atoms: O_10  and  C_11
REMARK    6  A    between atoms: C_14  and  C_15
REMARK    7  A    between atoms: C_15  and  C_16
REMARK    8  A    between atoms: C_19  and  C_20
REMARK    9  A    between atoms: C_19  and  C_21
REMARK   10  A    between atoms: C_21  and  O_23
REMARK   11  A    between atoms: C_28  and  C_29
REMARK                            x       y       z     vdW  Elec       q    Type
REMARK                         _______ _______ _______ _____ _____    ______ ____
ROOT
ATOM      1  C   UNL     1       0.699   9.984  19.224  0.00  0.00    +0.000 A 
ATOM      2  C   UNL     1       0.896   9.267  20.404  0.00  0.00    +0.000 A 
ATOM      3  C   UNL     1       1.682   8.119  20.403  0.00  0.00    +0.000 A 
ATOM      4  C   UNL     1       2.238   7.641  19.213  0.00  0.00    +0.000 A 
ATOM      5  C   UNL     1       2.049   8.368  18.030  0.00  0.00    +0.000 A 
ATOM      6  C   UNL     1       1.277   9.531  18.038  0.00  0.00    +0.000 A 
ENDROOT
BRANCH   1   7
ATOM      7  O   UNL     1      -0.048  11.124  19.125  0.00  0.00    +0.000 OA
BRANCH   7   8
ATOM      8  C   UNL     1      -1.146  11.038  18.211  0.00  0.00    +0.000 C 
BRANCH   8  11
ATOM      9  C   UNL     1      -3.613  12.503  20.299  0.00  0.00    +0.000 A 
ATOM     10  N   UNL     1      -2.375  12.088  20.097  0.00  0.00    +0.000 NA
ATOM     11  C   UNL     1      -2.383  11.586  18.813  0.00  0.00    +0.000 A 
ATOM     12  C   UNL     1      -3.646  11.697  18.282  0.00  0.00    +0.000 A 
ATOM     13  C   UNL     1      -4.273  11.364  16.992  0.00  0.00    +0.000 C 
ATOM     14  O   UNL     1      -4.444  12.276  19.227  0.00  0.00    +0.000 OA
BRANCH   9  19
ATOM     15  C   UNL     1      -5.853  15.660  23.891  0.00  0.00    +0.000 C 
ATOM     16  C   UNL     1      -5.056  14.599  23.217  0.00  0.00    +0.000 A 
ATOM     17  C   UNL     1      -4.258  13.628  23.785  0.00  0.00    +0.000 A 
ATOM     18  C   UNL     1      -3.669  12.780  22.802  0.00  0.00    +0.000 A 
ATOM     19  C   UNL     1      -4.028  13.137  21.516  0.00  0.00    +0.000 A 
ATOM     20  S   UNL     1      -5.072  14.490  21.511  0.00  0.00    +0.000 S 
ENDBRANCH   9  19
ENDBRANCH   8  11
ENDBRANCH   7   8
ENDBRANCH   1   7
BRANCH   4  21
ATOM     21  C   UNL     1       2.974   6.324  19.206  0.00  0.00    +0.000 C 
BRANCH  21  22
ATOM     22  C   UNL     1       3.434   5.918  17.794  0.00  0.00    +0.000 C 
ATOM     23  C   UNL     1       4.429   6.914  17.202  0.00  0.00    +0.000 C 
ATOM     24  O   UNL     1       4.940   6.460  15.945  0.00  0.00    +0.000 OA
ATOM     25  C   UNL     1       5.507   5.143  16.036  0.00  0.00    +0.000 C 
ATOM     26  C   UNL     1       5.827   4.720  14.600  0.00  0.00    +0.000 C 
ATOM     27  O   UNL     1       4.558   4.205  16.515  0.00  0.00    +0.000 OA
ATOM     28  C   UNL     1       4.071   4.533  17.809  0.00  0.00    +0.000 C 
BRANCH  25  29
ATOM     29  C   UNL     1       6.890   5.220  16.774  0.00  0.00    +0.000 C 
ATOM     30  O   UNL     1       7.279   4.461  17.646  0.00  0.00    +0.000 OA
BRANCH  29  31
ATOM     31  O   UNL     1       7.630   6.286  16.349  0.00  0.00    +0.000 OA
ATOM     32  H   UNL     1       7.867   6.171  15.401  0.00  0.00    +0.000 HD
ENDBRANCH  29  31
ENDBRANCH  25  29
ENDBRANCH  21  22
ENDBRANCH   4  21
TORSDOF 8
ENDMDL
MODEL 4
REMARK VINA RESULT:      -7.8      4.283     11.188
REMARK  Name = 
REMARK  11 active torsions:
REMARK  status: ('A' for Active; 'I' for Inactive)
REMARK    1  A    between atoms: C_1  and  C_2
REMARK    2  A    between atoms: C_5  and  C_6
REMARK    3  A    between atoms: C_8  and  C_9
REMARK    4  A    between atoms: C_9  and  O_10
REMARK    5  A    between atoms: O_10  and  C_11
REMARK    6  A    between atoms: C_14  and  C_15
REMARK    7  A    between atoms: C_15  and  C_16
REMARK    8  A    between atoms: C_19  and  C_20
REMARK    9  A    between atoms: C_19  and  C_21
REMARK   10  A    between atoms: C_21  and  O_23
REMARK   11  A    between atoms: C_28  and  C_29
REMARK                            x       y       z     vdW  Elec       q    Type
REMARK                         _______ _______ _______ _____ _____    ______ ____
ROOT
ATOM      1  C   UNL     1       0.541  10.552  20.115  0.00  0.00    +0.000 A 
ATOM      2  C   UNL     1       0.483   9.860  21.324  0.00  0.00    +0.000 A 
ATOM      3  C   UNL     1       1.003   8.574  21.420  0.00  0.00    +0.000 A 
ATOM      4  C   UNL     1       1.542   7.940  20.296  0.00  0.00    +0.000 A 
ATOM      5  C   UNL     1       1.611   8.640  19.085  0.00  0.00    +0.000 A 
ATOM      6  C   UNL     1       1.107   9.939  18.996  0.00  0.00    +0.000 A 
ENDROOT
BRANCH   1   7
ATOM      7  O   UNL     1       0.065  11.819  19.924  0.00  0.00    +0.000 OA
BRANCH   7   8
ATOM      8  C   UNL     1      -0.461  12.064  18.615  0.00  0.00    +0.000 C 
BRANCH   8  11
ATOM      9  C   UNL     1      -3.973  11.905  19.099  0.00  0.00    +0.000 A 
ATOM     10  N   UNL     1      -2.785  12.373  19.438  0.00  0.00    +0.000 NA
ATOM     11  C   UNL     1      -1.911  11.766  18.561  0.00  0.00    +0.000 A 
ATOM     12  C   UNL     1      -2.606  10.925  17.724  0.00  0.00    +0.000 A 
ATOM     13  C   UNL     1      -2.254  10.037  16.604  0.00  0.00    +0.000 C 
ATOM     14  O   UNL     1      -3.926  11.001  18.065  0.00  0.00    +0.000 OA
BRANCH   9  19
ATOM     15  C   UNL     1      -7.601  14.477  21.946  0.00  0.00    +0.000 C 
ATOM     16  C   UNL     1      -6.897  13.496  21.076  0.00  0.00    +0.000 A 
ATOM     17  C   UNL     1      -7.401  12.369  20.464  0.00  0.00    +0.000 A 
ATOM     18  C   UNL     1      -6.411  11.692  19.693  0.00  0.00    +0.000 A 
ATOM     19  C   UNL     1      -5.181  12.319  19.749  0.00  0.00    +0.000 A 
ATOM     20  S   UNL     1      -5.237  13.717  20.731  0.00  0.00    +0.000 S 
ENDBRANCH   9  19
ENDBRANCH   8  11
ENDBRANCH   7   8
ENDBRANCH   1   7
BRANCH   4  21
ATOM     21  C   UNL     1       1.978   6.499  20.386  0.00  0.00    +0.000 C 
BRANCH  21  22
ATOM     22  C   UNL     1       2.833   6.070  19.179  0.00  0.00    +0.000 C 
ATOM     23  C   UNL     1       4.186   5.500  19.603  0.00  0.00    +0.000 C 
ATOM     24  O   UNL     1       4.914   4.993  18.481  0.00  0.00    +0.000 OA
ATOM     25  C   UNL     1       4.153   4.034  17.730  0.00  0.00    +0.000 C 
ATOM     26  C   UNL     1       4.973   3.734  16.473  0.00  0.00    +0.000 C 
ATOM     27  O   UNL     1       2.931   4.589  17.273  0.00  0.00    +0.000 OA
ATOM     28  C   UNL     1       2.100   5.031  18.338  0.00  0.00    +0.000 C 
BRANCH  25  29
ATOM     29  C   UNL     1       4.085   2.683  18.525  0.00  0.00    +0.000 C 
ATOM     30  O   UNL     1       3.193   1.854  18.453  0.00  0.00    +0.000 OA
BRANCH  29  31
ATOM     31  O   UNL     1       5.152   2.538  19.366  0.00  0.00    +0.000 OA
ATOM     32  H   UNL     1       5.407   3.413  19.734  0.00  0.00    +0.000 HD
ENDBRANCH  29  31
ENDBRANCH  25  29
ENDBRANCH  21  22
ENDBRANCH   4  21
TORSDOF 8
ENDMDL
MODEL 5
REMARK VINA RESULT:      -7.7      4.098     12.030
REMARK  Name = 
REMARK  11 active torsions:
REMARK  status: ('A' for Active; 'I' for Inactive)
REMARK    1  A    between atoms: C_1  and  C_2
REMARK    2  A    between atoms: C_5  and  C_6
REMARK    3  A    between atoms: C_8  and  C_9
REMARK    4  A    between atoms: C_9  and  O_10
REMARK    5  A    between atoms: O_10  and  C_11
REMARK    6  A    between atoms: C_14  and  C_15
REMARK    7  A    between atoms: C_15  and  C_16
REMARK    8  A    between atoms: C_19  and  C_20
REMARK    9  A    between atoms: C_19  and  C_21
REMARK   10  A    between atoms: C_21  and  O_23
REMARK   11  A    between atoms: C_28  and  C_29
REMARK                            x       y       z     vdW  Elec       q    Type
REMARK                         _______ _______ _______ _____ _____    ______ ____
ROOT
ATOM      1  C   UNL     1       1.035   9.001  19.620  0.00  0.00    +0.000 A 
ATOM      2  C   UNL     1       1.719   8.960  18.406  0.00  0.00    +0.000 A 
ATOM      3  C   UNL     1       2.663   7.968  18.166  0.00  0.00    +0.000 A 
ATOM      4  C   UNL     1       2.976   7.032  19.157  0.00  0.00    +0.000 A 
ATOM      5  C   UNL     1       2.281   7.066  20.372  0.00  0.00    +0.000 A 
ATOM      6  C   UNL     1       1.318   8.051  20.602  0.00  0.00    +0.000 A 
ENDROOT
BRANCH   1   7
ATOM      7  O   UNL     1       0.087   9.930  19.946  0.00  0.00    +0.000 OA
BRANCH   7   8
ATOM      8  C   UNL     1      -0.111  10.947  18.958  0.00  0.00    +0.000 C 
BRANCH   8  11
ATOM      9  C   UNL     1      -3.398  12.183  19.469  0.00  0.00    +0.000 A 
ATOM     10  N   UNL     1      -2.162  11.993  19.893  0.00  0.00    +0.000 NA
ATOM     11  C   UNL     1      -1.541  11.322  18.861  0.00  0.00    +0.000 A 
ATOM     12  C   UNL     1      -2.439  11.109  17.842  0.00  0.00    +0.000 A 
ATOM     13  C   UNL     1      -2.385  10.480  16.512  0.00  0.00    +0.000 C 
ATOM     14  O   UNL     1      -3.634  11.649  18.224  0.00  0.00    +0.000 OA
BRANCH   9  19
ATOM     15  C   UNL     1      -6.132  14.484  23.356  0.00  0.00    +0.000 C 
ATOM     16  C   UNL     1      -5.683  13.968  22.035  0.00  0.00    +0.000 A 
ATOM     17  C   UNL     1      -6.298  14.089  20.807  0.00  0.00    +0.000 A 
ATOM     18  C   UNL     1      -5.543  13.470  19.768  0.00  0.00    +0.000 A 
ATOM     19  C   UNL     1      -4.380  12.889  20.238  0.00  0.00    +0.000 A 
ATOM     20  S   UNL     1      -4.215  13.099  21.927  0.00  0.00    +0.000 S 
ENDBRANCH   9  19
ENDBRANCH   8  11
ENDBRANCH   7   8
ENDBRANCH   1   7
BRANCH   4  21
ATOM     21  C   UNL     1       4.096   6.047  18.929  0.00  0.00    +0.000 C 
BRANCH  21  22
ATOM     22  C   UNL     1       4.163   5.564  17.468  0.00  0.00    +0.000 C 
ATOM     23  C   UNL     1       4.948   6.526  16.578  0.00  0.00    +0.000 C 
ATOM     24  O   UNL     1       5.107   6.003  15.256  0.00  0.00    +0.000 OA
ATOM     25  C   UNL     1       5.694   4.692  15.259  0.00  0.00    +0.000 C 
ATOM     26  C   UNL     1       5.620   4.192  13.815  0.00  0.00    +0.000 C 
ATOM     27  O   UNL     1       4.921   3.783  16.025  0.00  0.00    +0.000 OA
ATOM     28  C   UNL     1       4.797   4.181  17.383  0.00  0.00    +0.000 C 
BRANCH  25  29
ATOM     29  C   UNL     1       7.224   4.806  15.591  0.00  0.00    +0.000 C 
ATOM     30  O   UNL     1       7.774   4.367  16.587  0.00  0.00    +0.000 OA
BRANCH  29  31
ATOM     31  O   UNL     1       7.898   5.504  14.630  0.00  0.00    +0.000 OA
ATOM     32  H   UNL     1       7.645   5.174  13.739  0.00  0.00    +0.000 HD
ENDBRANCH  29  31
ENDBRANCH  25  29
ENDBRANCH  21  22
ENDBRANCH   4  21
TORSDOF 8
ENDMDL
MODEL 6
REMARK VINA RESULT:      -7.7      5.951     11.601
REMARK  Name = 
REMARK  11 active torsions:
REMARK  status: ('A' for Active; 'I' for Inactive)
REMARK    1  A    between atoms: C_1  and  C_2
REMARK    2  A    between atoms: C_5  and  C_6
REMARK    3  A    between atoms: C_8  and  C_9
REMARK    4  A    between atoms: C_9  and  O_10
REMARK    5  A    between atoms: O_10  and  C_11
REMARK    6  A    between atoms: C_14  and  C_15
REMARK    7  A    between atoms: C_15  and  C_16
REMARK    8  A    between atoms: C_19  and  C_20
REMARK    9  A    between atoms: C_19  and  C_21
REMARK   10  A    between atoms: C_21  and  O_23
REMARK   11  A    between atoms: C_28  and  C_29
REMARK                            x       y       z     vdW  Elec       q    Type
REMARK                         _______ _______ _______ _____ _____    ______ ____
ROOT
ATOM      1  C   UNL     1       7.254   6.232  17.440  0.00  0.00    +0.000 A 
ATOM      2  C   UNL     1       7.218   7.467  16.793  0.00  0.00    +0.000 A 
ATOM      3  C   UNL     1       7.827   8.577  17.368  0.00  0.00    +0.000 A 
ATOM      4  C   UNL     1       8.436   8.482  18.624  0.00  0.00    +0.000 A 
ATOM      5  C   UNL     1       8.481   7.239  19.268  0.00  0.00    +0.000 A 
ATOM      6  C   UNL     1       7.887   6.122  18.679  0.00  0.00    +0.000 A 
ENDROOT
BRANCH   1   7
ATOM      7  O   UNL     1       6.693   5.085  16.953  0.00  0.00    +0.000 OA
BRANCH   7   8
ATOM      8  C   UNL     1       5.358   5.241  16.460  0.00  0.00    +0.000 C 
BRANCH   8  11
ATOM      9  C   UNL     1       3.033   6.911  18.558  0.00  0.00    +0.000 A 
ATOM     10  N   UNL     1       3.766   6.865  17.460  0.00  0.00    +0.000 NA
ATOM     11  C   UNL     1       4.438   5.664  17.541  0.00  0.00    +0.000 A 
ATOM     12  C   UNL     1       4.099   5.024  18.710  0.00  0.00    +0.000 A 
ATOM     13  C   UNL     1       4.457   3.745  19.345  0.00  0.00    +0.000 C 
ATOM     14  O   UNL     1       3.206   5.816  19.372  0.00  0.00    +0.000 OA
BRANCH   9  19
ATOM     15  C   UNL     1      -0.208  10.347  20.919  0.00  0.00    +0.000 C 
ATOM     16  C   UNL     1       0.620   9.613  19.923  0.00  0.00    +0.000 A 
ATOM     17  C   UNL     1       0.808   9.891  18.586  0.00  0.00    +0.000 A 
ATOM     18  C   UNL     1       1.692   8.960  17.967  0.00  0.00    +0.000 A 
ATOM     19  C   UNL     1       2.142   7.995  18.849  0.00  0.00    +0.000 A 
ATOM     20  S   UNL     1       1.493   8.227  20.413  0.00  0.00    +0.000 S 
ENDBRANCH   9  19
ENDBRANCH   8  11
ENDBRANCH   7   8
ENDBRANCH   1   7
BRANCH   4  21
ATOM     21  C   UNL     1       8.972   9.724  19.292  0.00  0.00    +0.000 C 
BRANCH  21  22
ATOM     22  C   UNL     1       9.634  10.688  18.289  0.00  0.00    +0.000 C 
ATOM     23  C   UNL     1       8.812  11.959  18.084  0.00  0.00    +0.000 C 
ATOM     24  O   UNL     1       9.498  12.896  17.248  0.00  0.00    +0.000 OA
ATOM     25  C   UNL     1      10.815  13.196  17.738  0.00  0.00    +0.000 C 
ATOM     26  C   UNL     1      11.487  14.042  16.655  0.00  0.00    +0.000 C 
ATOM     27  O   UNL     1      11.601  12.021  17.857  0.00  0.00    +0.000 OA
ATOM     28  C   UNL     1      11.034  11.073  18.751  0.00  0.00    +0.000 C 
BRANCH  25  29
ATOM     29  C   UNL     1      10.705  14.126  18.997  0.00  0.00    +0.000 C 
ATOM     30  O   UNL     1      11.281  13.964  20.060  0.00  0.00    +0.000 OA
BRANCH  29  31
ATOM     31  O   UNL     1       9.835  15.159  18.787  0.00  0.00    +0.000 OA
ATOM     32  H   UNL     1       8.915  14.861  18.963  0.00  0.00    +0.000 HD
ENDBRANCH  29  31
ENDBRANCH  25  29
ENDBRANCH  21  22
ENDBRANCH   4  21
TORSDOF 8
ENDMDL
MODEL 7
REMARK VINA RESULT:      -7.7      4.213      5.612
REMARK  Name = 
REMARK  11 active torsions:
REMARK  status: ('A' for Active; 'I' for Inactive)
REMARK    1  A    between atoms: C_1  and  C_2
REMARK    2  A    between atoms: C_5  and  C_6
REMARK    3  A    between atoms: C_8  and  C_9
REMARK    4  A    between atoms: C_9  and  O_10
REMARK    5  A    between atoms: O_10  and  C_11
REMARK    6  A    between atoms: C_14  and  C_15
REMARK    7  A    between atoms: C_15  and  C_16
REMARK    8  A    between atoms: C_19  and  C_20
REMARK    9  A    between atoms: C_19  and  C_21
REMARK   10  A    between atoms: C_21  and  O_23
REMARK   11  A    between atoms: C_28  and  C_29
REMARK                            x       y       z     vdW  Elec       q    Type
REMARK                         _______ _______ _______ _____ _____    ______ ____
ROOT
ATOM      1  C   UNL     1       2.163   6.967  19.510  0.00  0.00    +0.000 A 
ATOM      2  C   UNL     1       2.310   7.534  18.245  0.00  0.00    +0.000 A 
ATOM      3  C   UNL     1       1.896   8.841  18.010  0.00  0.00    +0.000 A 
ATOM      4  C   UNL     1       1.281   9.583  19.023  0.00  0.00    +0.000 A 
ATOM      5  C   UNL     1       1.145   9.017  20.297  0.00  0.00    +0.000 A 
ATOM      6  C   UNL     1       1.580   7.713  20.536  0.00  0.00    +0.000 A 
ENDROOT
BRANCH   1   7
ATOM      7  O   UNL     1       2.546   5.697  19.840  0.00  0.00    +0.000 OA
BRANCH   7   8
ATOM      8  C   UNL     1       3.955   5.462  19.758  0.00  0.00    +0.000 C 
BRANCH   8  11
ATOM      9  C   UNL     1       5.060   4.118  16.666  0.00  0.00    +0.000 A 
ATOM     10  N   UNL     1       4.897   5.143  17.482  0.00  0.00    +0.000 NA
ATOM     11  C   UNL     1       4.285   4.607  18.595  0.00  0.00    +0.000 A 
ATOM     12  C   UNL     1       4.078   3.261  18.404  0.00  0.00    +0.000 A 
ATOM     13  C   UNL     1       3.500   2.167  19.202  0.00  0.00    +0.000 C 
ATOM     14  O   UNL     1       4.563   2.938  17.169  0.00  0.00    +0.000 OA
BRANCH   9  19
ATOM     15  C   UNL     1       8.257   5.451  12.680  0.00  0.00    +0.000 C 
ATOM     16  C   UNL     1       7.178   4.846  13.507  0.00  0.00    +0.000 A 
ATOM     17  C   UNL     1       6.210   3.938  13.133  0.00  0.00    +0.000 A 
ATOM     18  C   UNL     1       5.362   3.583  14.223  0.00  0.00    +0.000 A 
ATOM     19  C   UNL     1       5.704   4.238  15.390  0.00  0.00    +0.000 A 
ATOM     20  S   UNL     1       7.044   5.273  15.157  0.00  0.00    +0.000 S 
ENDBRANCH   9  19
ENDBRANCH   8  11
ENDBRANCH   7   8
ENDBRANCH   1   7
BRANCH   4  21
ATOM     21  C   UNL     1       0.718  10.948  18.715  0.00  0.00    +0.000 C 
BRANCH  21  22
ATOM     22  C   UNL     1      -0.821  10.972  18.770  0.00  0.00    +0.000 C 
ATOM     23  C   UNL     1      -1.409  12.141  17.982  0.00  0.00    +0.000 C 
ATOM     24  O   UNL     1      -2.837  12.079  17.939  0.00  0.00    +0.000 OA
ATOM     25  C   UNL     1      -3.309  10.818  17.437  0.00  0.00    +0.000 C 
ATOM     26  C   UNL     1      -4.827  10.826  17.633  0.00  0.00    +0.000 C 
ATOM     27  O   UNL     1      -2.823   9.738  18.218  0.00  0.00    +0.000 OA
ATOM     28  C   UNL     1      -1.403   9.671  18.231  0.00  0.00    +0.000 C 
BRANCH  25  29
ATOM     29  C   UNL     1      -3.081  10.755  15.886  0.00  0.00    +0.000 C 
ATOM     30  O   UNL     1      -2.469   9.886  15.287  0.00  0.00    +0.000 OA
BRANCH  29  31
ATOM     31  O   UNL     1      -3.628  11.833  15.251  0.00  0.00    +0.000 OA
ATOM     32  H   UNL     1      -4.484  12.071  15.675  0.00  0.00    +0.000 HD
ENDBRANCH  29  31
ENDBRANCH  25  29
ENDBRANCH  21  22
ENDBRANCH   4  21
TORSDOF 8
ENDMDL
MODEL 8
REMARK VINA RESULT:      -7.7      3.748     11.834
REMARK  Name = 
REMARK  11 active torsions:
REMARK  status: ('A' for Active; 'I' for Inactive)
REMARK    1  A    between atoms: C_1  and  C_2
REMARK    2  A    between atoms: C_5  and  C_6
REMARK    3  A    between atoms: C_8  and  C_9
REMARK    4  A    between atoms: C_9  and  O_10
REMARK    5  A    between atoms: O_10  and  C_11
REMARK    6  A    between atoms: C_14  and  C_15
REMARK    7  A    between atoms: C_15  and  C_16
REMARK    8  A    between atoms: C_19  and  C_20
REMARK    9  A    between atoms: C_19  and  C_21
REMARK   10  A    between atoms: C_21  and  O_23
REMARK   11  A    between atoms: C_28  and  C_29
REMARK                            x       y       z     vdW  Elec       q    Type
REMARK                         _______ _______ _______ _____ _____    ______ ____
ROOT
ATOM      1  C   UNL     1       0.499   9.880  18.976  0.00  0.00    +0.000 A 
ATOM      2  C   UNL     1       0.740   9.246  20.195  0.00  0.00    +0.000 A 
ATOM      3  C   UNL     1       1.638   8.186  20.268  0.00  0.00    +0.000 A 
ATOM      4  C   UNL     1       2.269   7.711  19.114  0.00  0.00    +0.000 A 
ATOM      5  C   UNL     1       2.035   8.355  17.893  0.00  0.00    +0.000 A 
ATOM      6  C   UNL     1       1.149   9.432  17.826  0.00  0.00    +0.000 A 
ENDROOT
BRANCH   1   7
ATOM      7  O   UNL     1      -0.357  10.932  18.806  0.00  0.00    +0.000 OA
BRANCH   7   8
ATOM      8  C   UNL     1       0.129  12.180  19.311  0.00  0.00    +0.000 C 
BRANCH   8  11
ATOM      9  C   UNL     1      -2.852  13.350  20.840  0.00  0.00    +0.000 A 
ATOM     10  N   UNL     1      -2.109  12.362  20.375  0.00  0.00    +0.000 NA
ATOM     11  C   UNL     1      -0.971  12.979  19.900  0.00  0.00    +0.000 A 
ATOM     12  C   UNL     1      -1.074  14.339  20.078  0.00  0.00    +0.000 A 
ATOM     13  C   UNL     1      -0.212  15.499  19.800  0.00  0.00    +0.000 C 
ATOM     14  O   UNL     1      -2.277  14.588  20.673  0.00  0.00    +0.000 OA
BRANCH   9  19
ATOM     15  C   UNL     1      -7.915  12.224  21.833  0.00  0.00    +0.000 C 
ATOM     16  C   UNL     1      -6.485  12.620  21.960  0.00  0.00    +0.000 A 
ATOM     17  C   UNL     1      -5.790  12.990  23.091  0.00  0.00    +0.000 A 
ATOM     18  C   UNL     1      -4.424  13.282  22.807  0.00  0.00    +0.000 A 
ATOM     19  C   UNL     1      -4.123  13.134  21.466  0.00  0.00    +0.000 A 
ATOM     20  S   UNL     1      -5.492  12.644  20.568  0.00  0.00    +0.000 S 
ENDBRANCH   9  19
ENDBRANCH   8  11
ENDBRANCH   7   8
ENDBRANCH   1   7
BRANCH   4  21
ATOM     21  C   UNL     1       3.135   6.477  19.188  0.00  0.00    +0.000 C 
BRANCH  21  22
ATOM     22  C   UNL     1       3.585   5.994  17.797  0.00  0.00    +0.000 C 
ATOM     23  C   UNL     1       4.861   6.691  17.329  0.00  0.00    +0.000 C 
ATOM     24  O   UNL     1       5.334   6.144  16.095  0.00  0.00    +0.000 OA
ATOM     25  C   UNL     1       5.511   4.720  16.167  0.00  0.00    +0.000 C 
ATOM     26  C   UNL     1       5.825   4.260  14.742  0.00  0.00    +0.000 C 
ATOM     27  O   UNL     1       4.304   4.068  16.529  0.00  0.00    +0.000 OA
ATOM     28  C   UNL     1       3.816   4.487  17.796  0.00  0.00    +0.000 C 
BRANCH  25  29
ATOM     29  C   UNL     1       6.794   4.395  17.010  0.00  0.00    +0.000 C 
ATOM     30  O   UNL     1       7.948   4.508  16.631  0.00  0.00    +0.000 OA
BRANCH  29  31
ATOM     31  O   UNL     1       6.475   3.919  18.251  0.00  0.00    +0.000 OA
ATOM     32  H   UNL     1       6.886   4.487  18.941  0.00  0.00    +0.000 HD
ENDBRANCH  29  31
ENDBRANCH  25  29
ENDBRANCH  21  22
ENDBRANCH   4  21
TORSDOF 8
ENDMDL
MODEL 9
REMARK VINA RESULT:      -7.6      8.632     11.405
REMARK  Name = 
REMARK  11 active torsions:
REMARK  status: ('A' for Active; 'I' for Inactive)
REMARK    1  A    between atoms: C_1  and  C_2
REMARK    2  A    between atoms: C_5  and  C_6
REMARK    3  A    between atoms: C_8  and  C_9
REMARK    4  A    between atoms: C_9  and  O_10
REMARK    5  A    between atoms: O_10  and  C_11
REMARK    6  A    between atoms: C_14  and  C_15
REMARK    7  A    between atoms: C_15  and  C_16
REMARK    8  A    between atoms: C_19  and  C_20
REMARK    9  A    between atoms: C_19  and  C_21
REMARK   10  A    between atoms: C_21  and  O_23
REMARK   11  A    between atoms: C_28  and  C_29
REMARK                            x       y       z     vdW  Elec       q    Type
REMARK                         _______ _______ _______ _____ _____    ______ ____
ROOT
ATOM      1  C   UNL     1       8.241   7.734  18.540  0.00  0.00    +0.000 A 
ATOM      2  C   UNL     1       8.216   6.515  19.216  0.00  0.00    +0.000 A 
ATOM      3  C   UNL     1       7.311   5.526  18.844  0.00  0.00    +0.000 A 
ATOM      4  C   UNL     1       6.383   5.761  17.825  0.00  0.00    +0.000 A 
ATOM      5  C   UNL     1       6.417   6.981  17.138  0.00  0.00    +0.000 A 
ATOM      6  C   UNL     1       7.339   7.964  17.500  0.00  0.00    +0.000 A 
ENDROOT
BRANCH   1   7
ATOM      7  O   UNL     1       9.096   8.762  18.826  0.00  0.00    +0.000 OA
BRANCH   7   8
ATOM      8  C   UNL     1       8.808   9.982  18.135  0.00  0.00    +0.000 C 
BRANCH   8  11
ATOM      9  C   UNL     1       9.427  12.533  20.524  0.00  0.00    +0.000 A 
ATOM     10  N   UNL     1       8.753  11.469  20.125  0.00  0.00    +0.000 NA
ATOM     11  C   UNL     1       9.299  11.153  18.899  0.00  0.00    +0.000 A 
ATOM     12  C   UNL     1      10.283  12.060  18.584  0.00  0.00    +0.000 A 
ATOM     13  C   UNL     1      11.213  12.248  17.458  0.00  0.00    +0.000 C 
ATOM     14  O   UNL     1      10.369  12.952  19.614  0.00  0.00    +0.000 OA
BRANCH   9  19
ATOM     15  C   UNL     1       9.114  15.978  24.514  0.00  0.00    +0.000 C 
ATOM     16  C   UNL     1       9.041  14.752  23.673  0.00  0.00    +0.000 A 
ATOM     17  C   UNL     1       8.561  13.503  24.008  0.00  0.00    +0.000 A 
ATOM     18  C   UNL     1       8.645  12.589  22.918  0.00  0.00    +0.000 A 
ATOM     19  C   UNL     1       9.194  13.166  21.789  0.00  0.00    +0.000 A 
ATOM     20  S   UNL     1       9.601  14.804  22.059  0.00  0.00    +0.000 S 
ENDBRANCH   9  19
ENDBRANCH   8  11
ENDBRANCH   7   8
ENDBRANCH   1   7
BRANCH   4  21
ATOM     21  C   UNL     1       5.324   4.730  17.525  0.00  0.00    +0.000 C 
BRANCH  21  22
ATOM     22  C   UNL     1       4.438   4.428  18.749  0.00  0.00    +0.000 C 
ATOM     23  C   UNL     1       3.075   5.112  18.657  0.00  0.00    +0.000 C 
ATOM     24  O   UNL     1       2.221   4.724  19.737  0.00  0.00    +0.000 OA
ATOM     25  C   UNL     1       2.087   3.297  19.835  0.00  0.00    +0.000 C 
ATOM     26  C   UNL     1       1.319   3.032  21.132  0.00  0.00    +0.000 C 
ATOM     27  O   UNL     1       3.349   2.670  19.996  0.00  0.00    +0.000 OA
ATOM     28  C   UNL     1       4.228   2.927  18.910  0.00  0.00    +0.000 C 
BRANCH  25  29
ATOM     29  C   UNL     1       1.160   2.780  18.679  0.00  0.00    +0.000 C 
ATOM     30  O   UNL     1       0.487   3.475  17.936  0.00  0.00    +0.000 OA
BRANCH  29  31
ATOM     31  O   UNL     1       1.155   1.416  18.608  0.00  0.00    +0.000 OA
ATOM     32  H   UNL     1       1.903   1.109  18.047  0.00  0.00    +0.000 HD
ENDBRANCH  29  31
ENDBRANCH  25  29
ENDBRANCH  21  22
ENDBRANCH   4  21
TORSDOF 8
ENDMDL
