MODEL 1
REMARK VINA RESULT:      -7.8      0.000      0.000
REMARK  Name = 
REMARK  7 active torsions:
REMARK  status: ('A' for Active; 'I' for Inactive)
REMARK    1  A    between atoms: C_1  and  O_2
REMARK    2  A    between atoms: O_2  and  C_3
REMARK    3  A    between atoms: C_6  and  N_7
REMARK    4  A    between atoms: C_8  and  C_10
REMARK    5  A    between atoms: C_10  and  O_11
REMARK    6  A    between atoms: O_11  and  C_12
REMARK    7  A    between atoms: C_16  and  N_17
REMARK                            x       y       z     vdW  Elec       q    Type
REMARK                         _______ _______ _______ _____ _____    ______ ____
ROOT
ATOM      1  C   UNL     1       3.235   3.885  20.094  0.00  0.00    +0.000 C 
ENDROOT
BRANCH   1   3
ATOM      2  N   UNL     1       2.720   6.277  19.994  0.00  0.00    +0.000 N 
ATOM      3  C   UNL     1       2.398   5.017  19.502  0.00  0.00    +0.000 C 
ATOM      4  O   UNL     1       1.531   4.765  18.668  0.00  0.00    +0.000 OA
ATOM      5  H   UNL     1       3.465   6.329  20.679  0.00  0.00    +0.000 HD
BRANCH   2   9
ATOM      6  C   UNL     1       0.945   9.988  18.959  0.00  0.00    +0.000 A 
ATOM      7  C   UNL     1       1.697   9.291  18.017  0.00  0.00    +0.000 A 
ATOM      8  C   UNL     1       2.279   8.060  18.334  0.00  0.00    +0.000 A 
ATOM      9  C   UNL     1       2.138   7.509  19.609  0.00  0.00    +0.000 A 
ATOM     10  C   UNL     1       1.394   8.221  20.561  0.00  0.00    +0.000 A 
ATOM     11  C   UNL     1       0.797   9.452  20.238  0.00  0.00    +0.000 A 
BRANCH   6  13
ATOM     12  C   UNL     1      -0.923  11.433  18.811  0.00  0.00    +0.000 C 
ATOM     13  O   UNL     1       0.445  11.183  18.525  0.00  0.00    +0.000 OA
ENDBRANCH   6  13
ENDBRANCH   2   9
ENDBRANCH   1   3
BRANCH   1  14
ATOM     14  O   UNL     1       3.937   3.281  19.016  0.00  0.00    +0.000 OA
BRANCH  14  15
ATOM     15  C   UNL     1       4.963   3.978  18.445  0.00  0.00    +0.000 A 
ATOM     16  C   UNL     1       5.715   4.723  19.356  0.00  0.00    +0.000 A 
ATOM     17  C   UNL     1       6.826   5.452  18.938  0.00  0.00    +0.000 A 
ATOM     18  C   UNL     1       7.193   5.455  17.594  0.00  0.00    +0.000 A 
ATOM     19  C   UNL     1       6.427   4.740  16.662  0.00  0.00    +0.000 A 
ATOM     20  C   UNL     1       5.310   3.997  17.092  0.00  0.00    +0.000 A 
BRANCH  19  21
ATOM     21  N   UNL     1       6.764   4.771  15.286  0.00  0.00    +0.000 N 
ATOM     22  C   UNL     1       6.240   4.051  14.241  0.00  0.00    +0.000 A 
ATOM     23  N   UNL     1       6.865   4.373  13.131  0.00  0.00    +0.000 NA
ATOM     24  N   UNL     1       7.791   5.316  13.488  0.00  0.00    +0.000 NA
ATOM     25  N   UNL     1       7.733   5.573  14.788  0.00  0.00    +0.000 NA
ENDBRANCH  19  21
ENDBRANCH  14  15
ENDBRANCH   1  14
TORSDOF 6
ENDMDL
MODEL 2
REMARK VINA RESULT:      -7.5      1.559      2.589
REMARK  Name = 
REMARK  7 active torsions:
REMARK  status: ('A' for Active; 'I' for Inactive)
REMARK    1  A    between atoms: C_1  and  O_2
REMARK    2  A    between atoms: O_2  and  C_3
REMARK    3  A    between atoms: C_6  and  N_7
REMARK    4  A    between atoms: C_8  and  C_10
REMARK    5  A    between atoms: C_10  and  O_11
REMARK    6  A    between atoms: O_11  and  C_12
REMARK    7  A    between atoms: C_16  and  N_17
REMARK                            x       y       z     vdW  Elec       q    Type
REMARK                         _______ _______ _______ _____ _____    ______ ____
ROOT
ATOM      1  C   UNL     1       2.156   3.171  21.587  0.00  0.00    +0.000 C 
ENDROOT
BRANCH   1   3
ATOM      2  N   UNL     1       2.275   5.544  20.992  0.00  0.00    +0.000 N 
ATOM      3  C   UNL     1       1.580   4.353  20.810  0.00  0.00    +0.000 C 
ATOM      4  O   UNL     1       0.587   4.194  20.104  0.00  0.00    +0.000 OA
ATOM      5  H   UNL     1       3.082   5.518  21.605  0.00  0.00    +0.000 HD
BRANCH   2   9
ATOM      6  C   UNL     1       1.473   9.227  19.048  0.00  0.00    +0.000 A 
ATOM      7  C   UNL     1       1.019   9.013  20.347  0.00  0.00    +0.000 A 
ATOM      8  C   UNL     1       1.285   7.812  21.010  0.00  0.00    +0.000 A 
ATOM      9  C   UNL     1       1.993   6.788  20.379  0.00  0.00    +0.000 A 
ATOM     10  C   UNL     1       2.435   6.999  19.064  0.00  0.00    +0.000 A 
ATOM     11  C   UNL     1       2.180   8.213  18.403  0.00  0.00    +0.000 A 
BRANCH   6  13
ATOM     12  C   UNL     1      -0.230  10.817  18.637  0.00  0.00    +0.000 C 
ATOM     13  O   UNL     1       1.132  10.437  18.512  0.00  0.00    +0.000 OA
ENDBRANCH   6  13
ENDBRANCH   2   9
ENDBRANCH   1   3
BRANCH   1  14
ATOM     14  O   UNL     1       3.504   3.014  21.165  0.00  0.00    +0.000 OA
BRANCH  14  15
ATOM     15  C   UNL     1       3.769   3.072  19.826  0.00  0.00    +0.000 A 
ATOM     16  C   UNL     1       3.091   2.110  19.074  0.00  0.00    +0.000 A 
ATOM     17  C   UNL     1       3.218   2.067  17.687  0.00  0.00    +0.000 A 
ATOM     18  C   UNL     1       4.039   2.984  17.034  0.00  0.00    +0.000 A 
ATOM     19  C   UNL     1       4.754   3.933  17.779  0.00  0.00    +0.000 A 
ATOM     20  C   UNL     1       4.614   3.978  19.180  0.00  0.00    +0.000 A 
BRANCH  19  21
ATOM     21  N   UNL     1       5.625   4.842  17.130  0.00  0.00    +0.000 N 
ATOM     22  C   UNL     1       6.848   4.616  16.547  0.00  0.00    +0.000 A 
ATOM     23  N   UNL     1       7.327   5.748  16.083  0.00  0.00    +0.000 NA
ATOM     24  N   UNL     1       6.382   6.696  16.373  0.00  0.00    +0.000 NA
ATOM     25  N   UNL     1       5.342   6.158  16.997  0.00  0.00    +0.000 NA
ENDBRANCH  19  21
ENDBRANCH  14  15
ENDBRANCH   1  14
TORSDOF 6
ENDMDL
MODEL 3
REMARK VINA RESULT:      -7.4      0.872      1.295
REMARK  Name = 
REMARK  7 active torsions:
REMARK  status: ('A' for Active; 'I' for Inactive)
REMARK    1  A    between atoms: C_1  and  O_2
REMARK    2  A    between atoms: O_2  and  C_3
REMARK    3  A    between atoms: C_6  and  N_7
REMARK    4  A    between atoms: C_8  and  C_10
REMARK    5  A    between atoms: C_10  and  O_11
REMARK    6  A    between atoms: O_11  and  C_12
REMARK    7  A    between atoms: C_16  and  N_17
REMARK                            x       y       z     vdW  Elec       q    Type
REMARK                         _______ _______ _______ _____ _____    ______ ____
ROOT
ATOM      1  C   UNL     1       3.322   3.638  19.143  0.00  0.00    +0.000 C 
ENDROOT
BRANCH   1   3
ATOM      2  N   UNL     1       2.694   5.983  18.822  0.00  0.00    +0.000 N 
ATOM      3  C   UNL     1       2.733   4.923  19.721  0.00  0.00    +0.000 C 
ATOM      4  O   UNL     1       2.345   4.946  20.887  0.00  0.00    +0.000 OA
ATOM      5  H   UNL     1       3.048   5.809  17.888  0.00  0.00    +0.000 HD
BRANCH   2   9
ATOM      6  C   UNL     1       1.148   9.886  19.427  0.00  0.00    +0.000 A 
ATOM      7  C   UNL     1       1.154   8.971  20.476  0.00  0.00    +0.000 A 
ATOM      8  C   UNL     1       1.672   7.684  20.301  0.00  0.00    +0.000 A 
ATOM      9  C   UNL     1       2.176   7.278  19.065  0.00  0.00    +0.000 A 
ATOM     10  C   UNL     1       2.154   8.196  18.004  0.00  0.00    +0.000 A 
ATOM     11  C   UNL     1       1.646   9.494  18.184  0.00  0.00    +0.000 A 
BRANCH   6  13
ATOM     12  C   UNL     1      -0.591  11.079  20.498  0.00  0.00    +0.000 C 
ATOM     13  O   UNL     1       0.601  11.101  19.728  0.00  0.00    +0.000 OA
ENDBRANCH   6  13
ENDBRANCH   2   9
ENDBRANCH   1   3
BRANCH   1  14
ATOM     14  O   UNL     1       4.708   3.638  19.458  0.00  0.00    +0.000 OA
BRANCH  14  15
ATOM     15  C   UNL     1       5.554   4.332  18.640  0.00  0.00    +0.000 A 
ATOM     16  C   UNL     1       6.325   5.287  19.306  0.00  0.00    +0.000 A 
ATOM     17  C   UNL     1       7.271   6.046  18.621  0.00  0.00    +0.000 A 
ATOM     18  C   UNL     1       7.448   5.866  17.251  0.00  0.00    +0.000 A 
ATOM     19  C   UNL     1       6.656   4.936  16.562  0.00  0.00    +0.000 A 
ATOM     20  C   UNL     1       5.708   4.165  17.263  0.00  0.00    +0.000 A 
BRANCH  19  21
ATOM     21  N   UNL     1       6.798   4.776  15.161  0.00  0.00    +0.000 N 
ATOM     22  C   UNL     1       6.155   3.909  14.311  0.00  0.00    +0.000 A 
ATOM     23  N   UNL     1       6.609   4.079  13.090  0.00  0.00    +0.000 NA
ATOM     24  N   UNL     1       7.545   5.074  13.178  0.00  0.00    +0.000 NA
ATOM     25  N   UNL     1       7.661   5.512  14.424  0.00  0.00    +0.000 NA
ENDBRANCH  19  21
ENDBRANCH  14  15
ENDBRANCH   1  14
TORSDOF 6
ENDMDL
MODEL 4
REMARK VINA RESULT:      -7.4      1.700      2.589
REMARK  Name = 
REMARK  7 active torsions:
REMARK  status: ('A' for Active; 'I' for Inactive)
REMARK    1  A    between atoms: C_1  and  O_2
REMARK    2  A    between atoms: O_2  and  C_3
REMARK    3  A    between atoms: C_6  and  N_7
REMARK    4  A    between atoms: C_8  and  C_10
REMARK    5  A    between atoms: C_10  and  O_11
REMARK    6  A    between atoms: O_11  and  C_12
REMARK    7  A    between atoms: C_16  and  N_17
REMARK                            x       y       z     vdW  Elec       q    Type
REMARK                         _______ _______ _______ _____ _____    ______ ____
ROOT
ATOM      1  C   UNL     1       2.580   3.329  21.497  0.00  0.00    +0.000 C 
ENDROOT
BRANCH   1   3
ATOM      2  N   UNL     1       2.579   5.651  20.719  0.00  0.00    +0.000 N 
ATOM      3  C   UNL     1       1.829   4.486  20.842  0.00  0.00    +0.000 C 
ATOM      4  O   UNL     1       0.666   4.331  20.477  0.00  0.00    +0.000 OA
ATOM      5  H   UNL     1       3.531   5.625  21.064  0.00  0.00    +0.000 HD
BRANCH   2   9
ATOM      6  C   UNL     1       1.285   9.333  19.058  0.00  0.00    +0.000 A 
ATOM      7  C   UNL     1       2.033   8.447  18.287  0.00  0.00    +0.000 A 
ATOM      8  C   UNL     1       2.457   7.223  18.812  0.00  0.00    +0.000 A 
ATOM      9  C   UNL     1       2.160   6.867  20.128  0.00  0.00    +0.000 A 
ATOM     10  C   UNL     1       1.421   7.768  20.909  0.00  0.00    +0.000 A 
ATOM     11  C   UNL     1       0.982   8.993  20.376  0.00  0.00    +0.000 A 
BRANCH   6  13
ATOM     12  C   UNL     1       0.999  11.675  19.223  0.00  0.00    +0.000 C 
ATOM     13  O   UNL     1       0.948  10.499  18.430  0.00  0.00    +0.000 OA
ENDBRANCH   6  13
ENDBRANCH   2   9
ENDBRANCH   1   3
BRANCH   1  14
ATOM     14  O   UNL     1       2.966   2.442  20.456  0.00  0.00    +0.000 OA
BRANCH  14  15
ATOM     15  C   UNL     1       3.415   2.981  19.285  0.00  0.00    +0.000 A 
ATOM     16  C   UNL     1       2.632   2.654  18.176  0.00  0.00    +0.000 A 
ATOM     17  C   UNL     1       2.929   3.164  16.914  0.00  0.00    +0.000 A 
ATOM     18  C   UNL     1       4.028   4.004  16.744  0.00  0.00    +0.000 A 
ATOM     19  C   UNL     1       4.844   4.314  17.841  0.00  0.00    +0.000 A 
ATOM     20  C   UNL     1       4.532   3.802  19.117  0.00  0.00    +0.000 A 
BRANCH  19  21
ATOM     21  N   UNL     1       5.989   5.132  17.672  0.00  0.00    +0.000 N 
ATOM     22  C   UNL     1       6.745   5.783  18.615  0.00  0.00    +0.000 A 
ATOM     23  N   UNL     1       7.705   6.454  18.019  0.00  0.00    +0.000 NA
ATOM     24  N   UNL     1       7.549   6.211  16.680  0.00  0.00    +0.000 NA
ATOM     25  N   UNL     1       6.521   5.403  16.458  0.00  0.00    +0.000 NA
ENDBRANCH  19  21
ENDBRANCH  14  15
ENDBRANCH   1  14
TORSDOF 6
ENDMDL
MODEL 5
REMARK VINA RESULT:      -7.4      1.845      2.548
REMARK  Name = 
REMARK  7 active torsions:
REMARK  status: ('A' for Active; 'I' for Inactive)
REMARK    1  A    between atoms: C_1  and  O_2
REMARK    2  A    between atoms: O_2  and  C_3
REMARK    3  A    between atoms: C_6  and  N_7
REMARK    4  A    between atoms: C_8  and  C_10
REMARK    5  A    between atoms: C_10  and  O_11
REMARK    6  A    between atoms: O_11  and  C_12
REMARK    7  A    between atoms: C_16  and  N_17
REMARK                            x       y       z     vdW  Elec       q    Type
REMARK                         _______ _______ _______ _____ _____    ______ ____
ROOT
ATOM      1  C   UNL     1       2.904   4.047  21.068  0.00  0.00    +0.000 C 
ENDROOT
BRANCH   1   3
ATOM      2  N   UNL     1       2.456   6.407  20.588  0.00  0.00    +0.000 N 
ATOM      3  C   UNL     1       1.927   5.121  20.592  0.00  0.00    +0.000 C 
ATOM      4  O   UNL     1       0.788   4.804  20.255  0.00  0.00    +0.000 OA
ATOM      5  H   UNL     1       3.418   6.511  20.891  0.00  0.00    +0.000 HD
BRANCH   2   9
ATOM      6  C   UNL     1       0.452   9.968  19.453  0.00  0.00    +0.000 A 
ATOM      7  C   UNL     1       1.287   9.321  18.546  0.00  0.00    +0.000 A 
ATOM      8  C   UNL     1       1.946   8.139  18.896  0.00  0.00    +0.000 A 
ATOM      9  C   UNL     1       1.800   7.589  20.170  0.00  0.00    +0.000 A 
ATOM     10  C   UNL     1       0.972   8.252  21.089  0.00  0.00    +0.000 A 
ATOM     11  C   UNL     1       0.298   9.433  20.732  0.00  0.00    +0.000 A 
BRANCH   6  13
ATOM     12  C   UNL     1      -1.276  10.967  18.183  0.00  0.00    +0.000 C 
ATOM     13  O   UNL     1      -0.117  11.120  18.989  0.00  0.00    +0.000 OA
ENDBRANCH   6  13
ENDBRANCH   2   9
ENDBRANCH   1   3
BRANCH   1  14
ATOM     14  O   UNL     1       3.159   3.196  19.959  0.00  0.00    +0.000 OA
BRANCH  14  15
ATOM     15  C   UNL     1       3.861   3.706  18.904  0.00  0.00    +0.000 A 
ATOM     16  C   UNL     1       3.487   3.176  17.668  0.00  0.00    +0.000 A 
ATOM     17  C   UNL     1       4.076   3.627  16.489  0.00  0.00    +0.000 A 
ATOM     18  C   UNL     1       5.061   4.611  16.535  0.00  0.00    +0.000 A 
ATOM     19  C   UNL     1       5.472   5.128  17.772  0.00  0.00    +0.000 A 
ATOM     20  C   UNL     1       4.865   4.675  18.960  0.00  0.00    +0.000 A 
BRANCH  19  21
ATOM     21  N   UNL     1       6.503   6.098  17.833  0.00  0.00    +0.000 N 
ATOM     22  C   UNL     1       7.545   6.212  18.721  0.00  0.00    +0.000 A 
ATOM     23  N   UNL     1       8.254   7.278  18.429  0.00  0.00    +0.000 NA
ATOM     24  N   UNL     1       7.648   7.837  17.335  0.00  0.00    +0.000 NA
ATOM     25  N   UNL     1       6.593   7.126  16.958  0.00  0.00    +0.000 NA
ENDBRANCH  19  21
ENDBRANCH  14  15
ENDBRANCH   1  14
TORSDOF 6
ENDMDL
MODEL 6
REMARK VINA RESULT:      -7.3      2.590      4.061
REMARK  Name = 
REMARK  7 active torsions:
REMARK  status: ('A' for Active; 'I' for Inactive)
REMARK    1  A    between atoms: C_1  and  O_2
REMARK    2  A    between atoms: O_2  and  C_3
REMARK    3  A    between atoms: C_6  and  N_7
REMARK    4  A    between atoms: C_8  and  C_10
REMARK    5  A    between atoms: C_10  and  O_11
REMARK    6  A    between atoms: O_11  and  C_12
REMARK    7  A    between atoms: C_16  and  N_17
REMARK                            x       y       z     vdW  Elec       q    Type
REMARK                         _______ _______ _______ _____ _____    ______ ____
ROOT
ATOM      1  C   UNL     1       2.529   8.436  18.004  0.00  0.00    +0.000 C 
ENDROOT
BRANCH   1   3
ATOM      2  N   UNL     1       1.120   9.016  19.921  0.00  0.00    +0.000 N 
ATOM      3  C   UNL     1       1.676   9.473  18.731  0.00  0.00    +0.000 C 
ATOM      4  O   UNL     1       1.536  10.596  18.250  0.00  0.00    +0.000 OA
ATOM      5  H   UNL     1       1.329   8.062  20.191  0.00  0.00    +0.000 HD
BRANCH   2   9
ATOM      6  C   UNL     1      -1.241  11.178  22.703  0.00  0.00    +0.000 A 
ATOM      7  C   UNL     1      -1.199  11.576  21.370  0.00  0.00    +0.000 A 
ATOM      8  C   UNL     1      -0.438  10.869  20.435  0.00  0.00    +0.000 A 
ATOM      9  C   UNL     1       0.315   9.759  20.818  0.00  0.00    +0.000 A 
ATOM     10  C   UNL     1       0.285   9.369  22.165  0.00  0.00    +0.000 A 
ATOM     11  C   UNL     1      -0.492  10.072  23.103  0.00  0.00    +0.000 A 
BRANCH   6  13
ATOM     12  C   UNL     1      -3.233  12.428  22.962  0.00  0.00    +0.000 C 
ATOM     13  O   UNL     1      -2.010  11.964  23.514  0.00  0.00    +0.000 OA
ENDBRANCH   6  13
ENDBRANCH   2   9
ENDBRANCH   1   3
BRANCH   1  14
ATOM     14  O   UNL     1       1.838   7.197  18.087  0.00  0.00    +0.000 OA
BRANCH  14  15
ATOM     15  C   UNL     1       2.558   6.047  17.929  0.00  0.00    +0.000 A 
ATOM     16  C   UNL     1       1.776   4.890  17.919  0.00  0.00    +0.000 A 
ATOM     17  C   UNL     1       2.355   3.638  17.718  0.00  0.00    +0.000 A 
ATOM     18  C   UNL     1       3.732   3.529  17.536  0.00  0.00    +0.000 A 
ATOM     19  C   UNL     1       4.534   4.679  17.578  0.00  0.00    +0.000 A 
ATOM     20  C   UNL     1       3.941   5.942  17.772  0.00  0.00    +0.000 A 
BRANCH  19  21
ATOM     21  N   UNL     1       5.940   4.575  17.438  0.00  0.00    +0.000 N 
ATOM     22  C   UNL     1       6.701   4.491  16.298  0.00  0.00    +0.000 A 
ATOM     23  N   UNL     1       7.968   4.382  16.625  0.00  0.00    +0.000 NA
ATOM     24  N   UNL     1       8.000   4.405  17.994  0.00  0.00    +0.000 NA
ATOM     25  N   UNL     1       6.780   4.532  18.498  0.00  0.00    +0.000 NA
ENDBRANCH  19  21
ENDBRANCH  14  15
ENDBRANCH   1  14
TORSDOF 6
ENDMDL
MODEL 7
REMARK VINA RESULT:      -7.3      2.581      4.160
REMARK  Name = 
REMARK  7 active torsions:
REMARK  status: ('A' for Active; 'I' for Inactive)
REMARK    1  A    between atoms: C_1  and  O_2
REMARK    2  A    between atoms: O_2  and  C_3
REMARK    3  A    between atoms: C_6  and  N_7
REMARK    4  A    between atoms: C_8  and  C_10
REMARK    5  A    between atoms: C_10  and  O_11
REMARK    6  A    between atoms: O_11  and  C_12
REMARK    7  A    between atoms: C_16  and  N_17
REMARK                            x       y       z     vdW  Elec       q    Type
REMARK                         _______ _______ _______ _____ _____    ______ ____
ROOT
ATOM      1  C   UNL     1       1.825   8.777  17.886  0.00  0.00    +0.000 C 
ENDROOT
BRANCH   1   3
ATOM      2  N   UNL     1       0.354   9.499  19.707  0.00  0.00    +0.000 N 
ATOM      3  C   UNL     1       1.268   9.912  18.743  0.00  0.00    +0.000 C 
ATOM      4  O   UNL     1       1.639  11.066  18.544  0.00  0.00    +0.000 OA
ATOM      5  H   UNL     1       0.150   8.507  19.754  0.00  0.00    +0.000 HD
BRANCH   2   9
ATOM      6  C   UNL     1      -1.549  11.886  22.651  0.00  0.00    +0.000 A 
ATOM      7  C   UNL     1      -1.575  12.278  21.315  0.00  0.00    +0.000 A 
ATOM      8  C   UNL     1      -0.965  11.498  20.328  0.00  0.00    +0.000 A 
ATOM      9  C   UNL     1      -0.298  10.318  20.659  0.00  0.00    +0.000 A 
ATOM     10  C   UNL     1      -0.258   9.934  22.008  0.00  0.00    +0.000 A 
ATOM     11  C   UNL     1      -0.884  10.711  22.998  0.00  0.00    +0.000 A 
BRANCH   6  13
ATOM     12  C   UNL     1      -1.660  14.070  23.554  0.00  0.00    +0.000 C 
ATOM     13  O   UNL     1      -2.169  12.745  23.514  0.00  0.00    +0.000 OA
ENDBRANCH   6  13
ENDBRANCH   2   9
ENDBRANCH   1   3
BRANCH   1  14
ATOM     14  O   UNL     1       2.207   7.736  18.775  0.00  0.00    +0.000 OA
BRANCH  14  15
ATOM     15  C   UNL     1       2.760   6.606  18.242  0.00  0.00    +0.000 A 
ATOM     16  C   UNL     1       1.972   5.464  18.398  0.00  0.00    +0.000 A 
ATOM     17  C   UNL     1       2.374   4.240  17.869  0.00  0.00    +0.000 A 
ATOM     18  C   UNL     1       3.583   4.141  17.183  0.00  0.00    +0.000 A 
ATOM     19  C   UNL     1       4.402   5.271  17.048  0.00  0.00    +0.000 A 
ATOM     20  C   UNL     1       3.985   6.509  17.578  0.00  0.00    +0.000 A 
BRANCH  19  21
ATOM     21  N   UNL     1       5.653   5.173  16.390  0.00  0.00    +0.000 N 
ATOM     22  C   UNL     1       6.760   4.432  16.724  0.00  0.00    +0.000 A 
ATOM     23  N   UNL     1       7.715   4.657  15.850  0.00  0.00    +0.000 NA
ATOM     24  N   UNL     1       7.193   5.549  14.952  0.00  0.00    +0.000 NA
ATOM     25  N   UNL     1       5.941   5.860  15.261  0.00  0.00    +0.000 NA
ENDBRANCH  19  21
ENDBRANCH  14  15
ENDBRANCH   1  14
TORSDOF 6
ENDMDL
MODEL 8
REMARK VINA RESULT:      -7.3      1.007      1.101
REMARK  Name = 
REMARK  7 active torsions:
REMARK  status: ('A' for Active; 'I' for Inactive)
REMARK    1  A    between atoms: C_1  and  O_2
REMARK    2  A    between atoms: O_2  and  C_3
REMARK    3  A    between atoms: C_6  and  N_7
REMARK    4  A    between atoms: C_8  and  C_10
REMARK    5  A    between atoms: C_10  and  O_11
REMARK    6  A    between atoms: O_11  and  C_12
REMARK    7  A    between atoms: C_16  and  N_17
REMARK                            x       y       z     vdW  Elec       q    Type
REMARK                         _______ _______ _______ _____ _____    ______ ____
ROOT
ATOM      1  C   UNL     1       3.871   3.458  19.202  0.00  0.00    +0.000 C 
ENDROOT
BRANCH   1   3
ATOM      2  N   UNL     1       3.141   5.774  18.887  0.00  0.00    +0.000 N 
ATOM      3  C   UNL     1       3.011   4.631  19.668  0.00  0.00    +0.000 C 
ATOM      4  O   UNL     1       2.289   4.506  20.655  0.00  0.00    +0.000 OA
ATOM      5  H   UNL     1       3.775   5.724  18.098  0.00  0.00    +0.000 HD
BRANCH   2   9
ATOM      6  C   UNL     1       1.073   9.422  19.522  0.00  0.00    +0.000 A 
ATOM      7  C   UNL     1       1.532   9.096  18.249  0.00  0.00    +0.000 A 
ATOM      8  C   UNL     1       2.204   7.892  18.016  0.00  0.00    +0.000 A 
ATOM      9  C   UNL     1       2.449   6.997  19.058  0.00  0.00    +0.000 A 
ATOM     10  C   UNL     1       2.001   7.336  20.343  0.00  0.00    +0.000 A 
ATOM     11  C   UNL     1       1.313   8.540  20.574  0.00  0.00    +0.000 A 
BRANCH   6  13
ATOM     12  C   UNL     1       0.535  11.291  20.869  0.00  0.00    +0.000 C 
ATOM     13  O   UNL     1       0.447  10.633  19.614  0.00  0.00    +0.000 OA
ENDBRANCH   6  13
ENDBRANCH   2   9
ENDBRANCH   1   3
BRANCH   1  14
ATOM     14  O   UNL     1       5.213   3.762  19.553  0.00  0.00    +0.000 OA
BRANCH  14  15
ATOM     15  C   UNL     1       5.959   4.494  18.673  0.00  0.00    +0.000 A 
ATOM     16  C   UNL     1       6.698   5.516  19.273  0.00  0.00    +0.000 A 
ATOM     17  C   UNL     1       7.546   6.323  18.518  0.00  0.00    +0.000 A 
ATOM     18  C   UNL     1       7.656   6.123  17.143  0.00  0.00    +0.000 A 
ATOM     19  C   UNL     1       6.893   5.124  16.522  0.00  0.00    +0.000 A 
ATOM     20  C   UNL     1       6.045   4.304  17.293  0.00  0.00    +0.000 A 
BRANCH  19  21
ATOM     21  N   UNL     1       6.964   4.940  15.119  0.00  0.00    +0.000 N 
ATOM     22  C   UNL     1       6.182   4.166  14.297  0.00  0.00    +0.000 A 
ATOM     23  N   UNL     1       6.613   4.267  13.060  0.00  0.00    +0.000 NA
ATOM     24  N   UNL     1       7.678   5.126  13.109  0.00  0.00    +0.000 NA
ATOM     25  N   UNL     1       7.895   5.549  14.347  0.00  0.00    +0.000 NA
ENDBRANCH  19  21
ENDBRANCH  14  15
ENDBRANCH   1  14
TORSDOF 6
ENDMDL
MODEL 9
REMARK VINA RESULT:      -7.2      2.821      4.637
REMARK  Name = 
REMARK  7 active torsions:
REMARK  status: ('A' for Active; 'I' for Inactive)
REMARK    1  A    between atoms: C_1  and  O_2
REMARK    2  A    between atoms: O_2  and  C_3
REMARK    3  A    between atoms: C_6  and  N_7
REMARK    4  A    between atoms: C_8  and  C_10
REMARK    5  A    between atoms: C_10  and  O_11
REMARK    6  A    between atoms: O_11  and  C_12
REMARK    7  A    between atoms: C_16  and  N_17
REMARK                            x       y       z     vdW  Elec       q    Type
REMARK                         _______ _______ _______ _____ _____    ______ ____
ROOT
ATOM      1  C   UNL     1       2.040   9.595  18.411  0.00  0.00    +0.000 C 
ENDROOT
BRANCH   1   3
ATOM      2  N   UNL     1      -0.175  10.277  17.620  0.00  0.00    +0.000 N 
ATOM      3  C   UNL     1       0.553   9.790  18.700  0.00  0.00    +0.000 C 
ATOM      4  O   UNL     1       0.106   9.518  19.812  0.00  0.00    +0.000 OA
ATOM      5  H   UNL     1       0.334  10.451  16.761  0.00  0.00    +0.000 HD
BRANCH   2   9
ATOM      6  C   UNL     1      -4.335  11.105  17.598  0.00  0.00    +0.000 A 
ATOM      7  C   UNL     1      -3.783  10.291  16.613  0.00  0.00    +0.000 A 
ATOM      8  C   UNL     1      -2.417   9.995  16.610  0.00  0.00    +0.000 A 
ATOM      9  C   UNL     1      -1.568  10.525  17.583  0.00  0.00    +0.000 A 
ATOM     10  C   UNL     1      -2.123  11.359  18.565  0.00  0.00    +0.000 A 
ATOM     11  C   UNL     1      -3.500  11.645  18.576  0.00  0.00    +0.000 A 
BRANCH   6  13
ATOM     12  C   UNL     1      -6.490  10.863  18.544  0.00  0.00    +0.000 C 
ATOM     13  O   UNL     1      -5.678  11.326  17.476  0.00  0.00    +0.000 OA
ENDBRANCH   6  13
ENDBRANCH   2   9
ENDBRANCH   1   3
BRANCH   1  14
ATOM     14  O   UNL     1       2.157   8.428  17.608  0.00  0.00    +0.000 OA
BRANCH  14  15
ATOM     15  C   UNL     1       2.938   7.407  18.069  0.00  0.00    +0.000 A 
ATOM     16  C   UNL     1       2.482   6.841  19.261  0.00  0.00    +0.000 A 
ATOM     17  C   UNL     1       3.142   5.757  19.836  0.00  0.00    +0.000 A 
ATOM     18  C   UNL     1       4.280   5.232  19.228  0.00  0.00    +0.000 A 
ATOM     19  C   UNL     1       4.770   5.812  18.049  0.00  0.00    +0.000 A 
ATOM     20  C   UNL     1       4.093   6.901  17.467  0.00  0.00    +0.000 A 
BRANCH  19  21
ATOM     21  N   UNL     1       5.951   5.313  17.445  0.00  0.00    +0.000 N 
ATOM     22  C   UNL     1       7.185   5.078  18.000  0.00  0.00    +0.000 A 
ATOM     23  N   UNL     1       8.005   4.638  17.072  0.00  0.00    +0.000 NA
ATOM     24  N   UNL     1       7.268   4.591  15.919  0.00  0.00    +0.000 NA
ATOM     25  N   UNL     1       6.020   4.987  16.134  0.00  0.00    +0.000 NA
ENDBRANCH  19  21
ENDBRANCH  14  15
ENDBRANCH   1  14
TORSDOF 6
ENDMDL
