MODEL 1
REMARK VINA RESULT:      -8.5      0.000      0.000
REMARK  Name = 
REMARK  6 active torsions:
REMARK  status: ('A' for Active; 'I' for Inactive)
REMARK    1  A    between atoms: C_1  and  C_2
REMARK    2  A    between atoms: C_2  and  C_3
REMARK    3  A    between atoms: C_3  and  C_4
REMARK    4  A    between atoms: C_4  and  S_5
REMARK    5  A    between atoms: S_5  and  N_8
REMARK    6  A    between atoms: C_10  and  C_11
REMARK                            x       y       z     vdW  Elec       q    Type
REMARK                         _______ _______ _______ _____ _____    ______ ____
ROOT
ATOM      1  N   UNL     1       4.874   5.312  17.372  0.00  0.00    +0.000 N 
ATOM      2  C   UNL     1       4.511   6.581  17.750  0.00  0.00    +0.000 A 
ATOM      3  C   UNL     1       3.218   6.512  18.213  0.00  0.00    +0.000 A 
ATOM      4  C   UNL     1       2.794   5.152  18.137  0.00  0.00    +0.000 A 
ATOM      5  C   UNL     1       1.593   4.491  18.474  0.00  0.00    +0.000 A 
ATOM      6  C   UNL     1       1.479   3.114  18.274  0.00  0.00    +0.000 A 
ATOM      7  C   UNL     1       2.541   2.392  17.739  0.00  0.00    +0.000 A 
ATOM      8  C   UNL     1       3.744   3.021  17.392  0.00  0.00    +0.000 A 
ATOM      9  C   UNL     1       3.857   4.406  17.604  0.00  0.00    +0.000 A 
ENDROOT
BRANCH   3  10
ATOM     10  C   UNL     1       2.461   7.615  18.702  0.00  0.00    +0.000 C 
ATOM     11  C   UNL     1       1.971   7.681  19.951  0.00  0.00    +0.000 C 
ATOM     12  C   UNL     1       1.098   8.799  20.435  0.00  0.00    +0.000 C 
ATOM     13  N   UNL     1       1.033   9.949  19.530  0.00  0.00    +0.000 NA
ATOM     14  C   UNL     1       0.912   9.509  18.135  0.00  0.00    +0.000 C 
ATOM     15  C   UNL     1       2.128   8.680  17.687  0.00  0.00    +0.000 C 
ATOM     16  H   UNL     1       1.896  10.482  19.631  0.00  0.00    +0.000 HD
ENDBRANCH   3  10
BRANCH   1  17
ATOM     17  S   UNL     1       6.413   4.925  16.738  0.00  0.00    +0.000 S 
ATOM     18  O   UNL     1       7.131   4.312  17.843  0.00  0.00    +0.000 OA
ATOM     19  O   UNL     1       6.882   6.155  16.129  0.00  0.00    +0.000 OA
BRANCH  17  20
ATOM     20  C   UNL     1       6.217   3.695  15.458  0.00  0.00    +0.000 C 
BRANCH  20  21
ATOM     21  C   UNL     1       5.640   4.320  14.184  0.00  0.00    +0.000 C 
BRANCH  21  23
ATOM     22  C   UNL     1       5.062   3.253  11.969  0.00  0.00    +0.000 C 
ATOM     23  C   UNL     1       6.181   3.652  12.920  0.00  0.00    +0.000 C 
ENDBRANCH  21  23
ENDBRANCH  20  21
ENDBRANCH  17  20
ENDBRANCH   1  17
TORSDOF 5
ENDMDL
MODEL 2
REMARK VINA RESULT:      -8.4      0.253      1.072
REMARK  Name = 
REMARK  6 active torsions:
REMARK  status: ('A' for Active; 'I' for Inactive)
REMARK    1  A    between atoms: C_1  and  C_2
REMARK    2  A    between atoms: C_2  and  C_3
REMARK    3  A    between atoms: C_3  and  C_4
REMARK    4  A    between atoms: C_4  and  S_5
REMARK    5  A    between atoms: S_5  and  N_8
REMARK    6  A    between atoms: C_10  and  C_11
REMARK                            x       y       z     vdW  Elec       q    Type
REMARK                         _______ _______ _______ _____ _____    ______ ____
ROOT
ATOM      1  N   UNL     1       4.959   5.261  17.343  0.00  0.00    +0.000 N 
ATOM      2  C   UNL     1       4.535   6.524  17.675  0.00  0.00    +0.000 A 
ATOM      3  C   UNL     1       3.230   6.415  18.095  0.00  0.00    +0.000 A 
ATOM      4  C   UNL     1       2.862   5.038  18.040  0.00  0.00    +0.000 A 
ATOM      5  C   UNL     1       1.675   4.339  18.352  0.00  0.00    +0.000 A 
ATOM      6  C   UNL     1       1.621   2.954  18.184  0.00  0.00    +0.000 A 
ATOM      7  C   UNL     1       2.729   2.262  17.705  0.00  0.00    +0.000 A 
ATOM      8  C   UNL     1       3.918   2.928  17.383  0.00  0.00    +0.000 A 
ATOM      9  C   UNL     1       3.970   4.322  17.563  0.00  0.00    +0.000 A 
ENDROOT
BRANCH   3  10
ATOM     10  C   UNL     1       2.415   7.499  18.529  0.00  0.00    +0.000 C 
ATOM     11  C   UNL     1       2.152   8.578  17.773  0.00  0.00    +0.000 C 
ATOM     12  C   UNL     1       1.369   9.757  18.265  0.00  0.00    +0.000 C 
ATOM     13  N   UNL     1       0.685   9.538  19.542  0.00  0.00    +0.000 NA
ATOM     14  C   UNL     1       1.554   8.822  20.483  0.00  0.00    +0.000 C 
ATOM     15  C   UNL     1       1.943   7.428  19.960  0.00  0.00    +0.000 C 
ATOM     16  H   UNL     1      -0.142   8.971  19.365  0.00  0.00    +0.000 HD
ENDBRANCH   3  10
BRANCH   1  17
ATOM     17  S   UNL     1       6.534   4.919  16.773  0.00  0.00    +0.000 S 
ATOM     18  O   UNL     1       7.201   4.260  17.883  0.00  0.00    +0.000 OA
ATOM     19  O   UNL     1       7.020   6.181  16.248  0.00  0.00    +0.000 OA
BRANCH  17  20
ATOM     20  C   UNL     1       6.419   3.750  15.427  0.00  0.00    +0.000 C 
BRANCH  20  21
ATOM     21  C   UNL     1       5.854   4.419  14.170  0.00  0.00    +0.000 C 
BRANCH  21  23
ATOM     22  C   UNL     1       5.127   3.184  12.090  0.00  0.00    +0.000 C 
ATOM     23  C   UNL     1       6.308   3.715  12.891  0.00  0.00    +0.000 C 
ENDBRANCH  21  23
ENDBRANCH  20  21
ENDBRANCH  17  20
ENDBRANCH   1  17
TORSDOF 5
ENDMDL
MODEL 3
REMARK VINA RESULT:      -8.2      2.010      3.186
REMARK  Name = 
REMARK  6 active torsions:
REMARK  status: ('A' for Active; 'I' for Inactive)
REMARK    1  A    between atoms: C_1  and  C_2
REMARK    2  A    between atoms: C_2  and  C_3
REMARK    3  A    between atoms: C_3  and  C_4
REMARK    4  A    between atoms: C_4  and  S_5
REMARK    5  A    between atoms: S_5  and  N_8
REMARK    6  A    between atoms: C_10  and  C_11
REMARK                            x       y       z     vdW  Elec       q    Type
REMARK                         _______ _______ _______ _____ _____    ______ ____
ROOT
ATOM      1  N   UNL     1       4.863   5.238  17.712  0.00  0.00    +0.000 N 
ATOM      2  C   UNL     1       4.422   6.509  17.984  0.00  0.00    +0.000 A 
ATOM      3  C   UNL     1       3.087   6.415  18.299  0.00  0.00    +0.000 A 
ATOM      4  C   UNL     1       2.715   5.039  18.241  0.00  0.00    +0.000 A 
ATOM      5  C   UNL     1       1.502   4.353  18.471  0.00  0.00    +0.000 A 
ATOM      6  C   UNL     1       1.453   2.964  18.325  0.00  0.00    +0.000 A 
ATOM      7  C   UNL     1       2.591   2.258  17.950  0.00  0.00    +0.000 A 
ATOM      8  C   UNL     1       3.806   2.911  17.712  0.00  0.00    +0.000 A 
ATOM      9  C   UNL     1       3.853   4.308  17.869  0.00  0.00    +0.000 A 
ENDROOT
BRANCH   3  10
ATOM     10  C   UNL     1       2.246   7.511  18.646  0.00  0.00    +0.000 C 
ATOM     11  C   UNL     1       1.938   8.506  17.797  0.00  0.00    +0.000 C 
ATOM     12  C   UNL     1       1.128   9.704  18.192  0.00  0.00    +0.000 C 
ATOM     13  N   UNL     1       0.473   9.587  19.496  0.00  0.00    +0.000 NA
ATOM     14  C   UNL     1       1.379   8.988  20.483  0.00  0.00    +0.000 C 
ATOM     15  C   UNL     1       1.801   7.563  20.086  0.00  0.00    +0.000 C 
ATOM     16  H   UNL     1      -0.340   8.981  19.390  0.00  0.00    +0.000 HD
ENDBRANCH   3  10
BRANCH   1  17
ATOM     17  S   UNL     1       6.475   4.876  17.276  0.00  0.00    +0.000 S 
ATOM     18  O   UNL     1       6.365   4.012  16.112  0.00  0.00    +0.000 OA
ATOM     19  O   UNL     1       7.094   4.408  18.502  0.00  0.00    +0.000 OA
BRANCH  17  20
ATOM     20  C   UNL     1       7.288   6.383  16.768  0.00  0.00    +0.000 C 
BRANCH  20  21
ATOM     21  C   UNL     1       7.813   7.156  17.982  0.00  0.00    +0.000 C 
BRANCH  21  23
ATOM     22  C   UNL     1       8.800   9.352  18.747  0.00  0.00    +0.000 C 
ATOM     23  C   UNL     1       7.949   8.652  17.697  0.00  0.00    +0.000 C 
ENDBRANCH  21  23
ENDBRANCH  20  21
ENDBRANCH  17  20
ENDBRANCH   1  17
TORSDOF 5
ENDMDL
MODEL 4
REMARK VINA RESULT:      -8.1      1.964      2.958
REMARK  Name = 
REMARK  6 active torsions:
REMARK  status: ('A' for Active; 'I' for Inactive)
REMARK    1  A    between atoms: C_1  and  C_2
REMARK    2  A    between atoms: C_2  and  C_3
REMARK    3  A    between atoms: C_3  and  C_4
REMARK    4  A    between atoms: C_4  and  S_5
REMARK    5  A    between atoms: S_5  and  N_8
REMARK    6  A    between atoms: C_10  and  C_11
REMARK                            x       y       z     vdW  Elec       q    Type
REMARK                         _______ _______ _______ _____ _____    ______ ____
ROOT
ATOM      1  N   UNL     1       4.878   5.228  17.694  0.00  0.00    +0.000 N 
ATOM      2  C   UNL     1       4.520   6.508  18.040  0.00  0.00    +0.000 A 
ATOM      3  C   UNL     1       3.188   6.477  18.378  0.00  0.00    +0.000 A 
ATOM      4  C   UNL     1       2.732   5.130  18.259  0.00  0.00    +0.000 A 
ATOM      5  C   UNL     1       1.485   4.506  18.479  0.00  0.00    +0.000 A 
ATOM      6  C   UNL     1       1.350   3.132  18.266  0.00  0.00    +0.000 A 
ATOM      7  C   UNL     1       2.436   2.379  17.831  0.00  0.00    +0.000 A 
ATOM      8  C   UNL     1       3.684   2.971  17.600  0.00  0.00    +0.000 A 
ATOM      9  C   UNL     1       3.818   4.353  17.826  0.00  0.00    +0.000 A 
ENDROOT
BRANCH   3  10
ATOM     10  C   UNL     1       2.421   7.601  18.797  0.00  0.00    +0.000 C 
ATOM     11  C   UNL     1       1.888   7.719  20.025  0.00  0.00    +0.000 C 
ATOM     12  C   UNL     1       1.006   8.859  20.434  0.00  0.00    +0.000 C 
ATOM     13  N   UNL     1       0.980   9.974  19.484  0.00  0.00    +0.000 NA
ATOM     14  C   UNL     1       0.906   9.480  18.103  0.00  0.00    +0.000 C 
ATOM     15  C   UNL     1       2.130   8.628  17.731  0.00  0.00    +0.000 C 
ATOM     16  H   UNL     1       1.842  10.506  19.594  0.00  0.00    +0.000 HD
ENDBRANCH   3  10
BRANCH   1  17
ATOM     17  S   UNL     1       6.458   4.795  17.206  0.00  0.00    +0.000 S 
ATOM     18  O   UNL     1       6.273   3.965  16.028  0.00  0.00    +0.000 OA
ATOM     19  O   UNL     1       7.084   4.268  18.404  0.00  0.00    +0.000 OA
BRANCH  17  20
ATOM     20  C   UNL     1       7.334   6.270  16.708  0.00  0.00    +0.000 C 
BRANCH  20  21
ATOM     21  C   UNL     1       7.770   7.084  17.930  0.00  0.00    +0.000 C 
BRANCH  21  23
ATOM     22  C   UNL     1       8.712   9.336  18.580  0.00  0.00    +0.000 C 
ATOM     23  C   UNL     1       7.767   8.587  17.650  0.00  0.00    +0.000 C 
ENDBRANCH  21  23
ENDBRANCH  20  21
ENDBRANCH  17  20
ENDBRANCH   1  17
TORSDOF 5
ENDMDL
MODEL 5
REMARK VINA RESULT:      -8.1      1.911      2.664
REMARK  Name = 
REMARK  6 active torsions:
REMARK  status: ('A' for Active; 'I' for Inactive)
REMARK    1  A    between atoms: C_1  and  C_2
REMARK    2  A    between atoms: C_2  and  C_3
REMARK    3  A    between atoms: C_3  and  C_4
REMARK    4  A    between atoms: C_4  and  S_5
REMARK    5  A    between atoms: S_5  and  N_8
REMARK    6  A    between atoms: C_10  and  C_11
REMARK                            x       y       z     vdW  Elec       q    Type
REMARK                         _______ _______ _______ _____ _____    ______ ____
ROOT
ATOM      1  N   UNL     1       4.552   5.326  17.000  0.00  0.00    +0.000 N 
ATOM      2  C   UNL     1       4.227   6.599  17.398  0.00  0.00    +0.000 A 
ATOM      3  C   UNL     1       3.045   6.515  18.095  0.00  0.00    +0.000 A 
ATOM      4  C   UNL     1       2.656   5.143  18.142  0.00  0.00    +0.000 A 
ATOM      5  C   UNL     1       1.558   4.465  18.717  0.00  0.00    +0.000 A 
ATOM      6  C   UNL     1       1.452   3.079  18.584  0.00  0.00    +0.000 A 
ATOM      7  C   UNL     1       2.419   2.365  17.884  0.00  0.00    +0.000 A 
ATOM      8  C   UNL     1       3.517   3.009  17.300  0.00  0.00    +0.000 A 
ATOM      9  C   UNL     1       3.624   4.404  17.444  0.00  0.00    +0.000 A 
ENDROOT
BRANCH   3  10
ATOM     10  C   UNL     1       2.358   7.615  18.682  0.00  0.00    +0.000 C 
ATOM     11  C   UNL     1       1.958   7.640  19.964  0.00  0.00    +0.000 C 
ATOM     12  C   UNL     1       1.155   8.760  20.554  0.00  0.00    +0.000 C 
ATOM     13  N   UNL     1       1.062   9.950  19.705  0.00  0.00    +0.000 NA
ATOM     14  C   UNL     1       0.832   9.574  18.305  0.00  0.00    +0.000 C 
ATOM     15  C   UNL     1       1.987   8.733  17.738  0.00  0.00    +0.000 C 
ATOM     16  H   UNL     1       1.946  10.454  19.767  0.00  0.00    +0.000 HD
ENDBRANCH   3  10
BRANCH   1  17
ATOM     17  S   UNL     1       5.959   4.954  16.102  0.00  0.00    +0.000 S 
ATOM     18  O   UNL     1       6.244   6.154  15.335  0.00  0.00    +0.000 OA
ATOM     19  O   UNL     1       5.655   3.697  15.444  0.00  0.00    +0.000 OA
BRANCH  17  20
ATOM     20  C   UNL     1       7.313   4.690  17.236  0.00  0.00    +0.000 C 
BRANCH  20  21
ATOM     21  C   UNL     1       7.096   5.469  18.536  0.00  0.00    +0.000 C 
BRANCH  21  23
ATOM     22  C   UNL     1       7.778   7.799  17.835  0.00  0.00    +0.000 C 
ATOM     23  C   UNL     1       8.114   6.597  18.708  0.00  0.00    +0.000 C 
ENDBRANCH  21  23
ENDBRANCH  20  21
ENDBRANCH  17  20
ENDBRANCH   1  17
TORSDOF 5
ENDMDL
MODEL 6
REMARK VINA RESULT:      -7.9      2.295      3.130
REMARK  Name = 
REMARK  6 active torsions:
REMARK  status: ('A' for Active; 'I' for Inactive)
REMARK    1  A    between atoms: C_1  and  C_2
REMARK    2  A    between atoms: C_2  and  C_3
REMARK    3  A    between atoms: C_3  and  C_4
REMARK    4  A    between atoms: C_4  and  S_5
REMARK    5  A    between atoms: S_5  and  N_8
REMARK    6  A    between atoms: C_10  and  C_11
REMARK                            x       y       z     vdW  Elec       q    Type
REMARK                         _______ _______ _______ _____ _____    ______ ____
ROOT
ATOM      1  N   UNL     1       4.266   5.256  18.546  0.00  0.00    +0.000 N 
ATOM      2  C   UNL     1       3.902   6.580  18.525  0.00  0.00    +0.000 A 
ATOM      3  C   UNL     1       2.729   6.687  19.235  0.00  0.00    +0.000 A 
ATOM      4  C   UNL     1       2.387   5.391  19.723  0.00  0.00    +0.000 A 
ATOM      5  C   UNL     1       1.318   4.900  20.504  0.00  0.00    +0.000 A 
ATOM      6  C   UNL     1       1.257   3.541  20.821  0.00  0.00    +0.000 A 
ATOM      7  C   UNL     1       2.242   2.670  20.366  0.00  0.00    +0.000 A 
ATOM      8  C   UNL     1       3.312   3.127  19.586  0.00  0.00    +0.000 A 
ATOM      9  C   UNL     1       3.374   4.497  19.278  0.00  0.00    +0.000 A 
ENDROOT
BRANCH   3  10
ATOM     10  C   UNL     1       2.010   7.897  19.455  0.00  0.00    +0.000 C 
ATOM     11  C   UNL     1       1.430   8.212  20.624  0.00  0.00    +0.000 C 
ATOM     12  C   UNL     1       0.598   9.442  20.826  0.00  0.00    +0.000 C 
ATOM     13  N   UNL     1       0.679  10.412  19.731  0.00  0.00    +0.000 NA
ATOM     14  C   UNL     1       0.639   9.734  18.430  0.00  0.00    +0.000 C 
ATOM     15  C   UNL     1       1.828   8.777  18.243  0.00  0.00    +0.000 C 
ATOM     16  H   UNL     1       1.564  10.909  19.813  0.00  0.00    +0.000 HD
ENDBRANCH   3  10
BRANCH   1  17
ATOM     17  S   UNL     1       5.677   4.659  17.787  0.00  0.00    +0.000 S 
ATOM     18  O   UNL     1       5.196   3.722  16.785  0.00  0.00    +0.000 OA
ATOM     19  O   UNL     1       6.526   4.219  18.878  0.00  0.00    +0.000 OA
BRANCH  17  20
ATOM     20  C   UNL     1       6.490   6.004  16.939  0.00  0.00    +0.000 C 
BRANCH  20  21
ATOM     21  C   UNL     1       7.497   6.700  17.860  0.00  0.00    +0.000 C 
BRANCH  21  23
ATOM     22  C   UNL     1       8.528   8.911  18.517  0.00  0.00    +0.000 C 
ATOM     23  C   UNL     1       7.723   8.159  17.465  0.00  0.00    +0.000 C 
ENDBRANCH  21  23
ENDBRANCH  20  21
ENDBRANCH  17  20
ENDBRANCH   1  17
TORSDOF 5
ENDMDL
MODEL 7
REMARK VINA RESULT:      -7.8      2.285      3.308
REMARK  Name = 
REMARK  6 active torsions:
REMARK  status: ('A' for Active; 'I' for Inactive)
REMARK    1  A    between atoms: C_1  and  C_2
REMARK    2  A    between atoms: C_2  and  C_3
REMARK    3  A    between atoms: C_3  and  C_4
REMARK    4  A    between atoms: C_4  and  S_5
REMARK    5  A    between atoms: S_5  and  N_8
REMARK    6  A    between atoms: C_10  and  C_11
REMARK                            x       y       z     vdW  Elec       q    Type
REMARK                         _______ _______ _______ _____ _____    ______ ____
ROOT
ATOM      1  N   UNL     1       4.638   5.292  18.298  0.00  0.00    +0.000 N 
ATOM      2  C   UNL     1       4.135   6.562  18.170  0.00  0.00    +0.000 A 
ATOM      3  C   UNL     1       2.937   6.592  18.845  0.00  0.00    +0.000 A 
ATOM      4  C   UNL     1       2.722   5.305  19.421  0.00  0.00    +0.000 A 
ATOM      5  C   UNL     1       1.689   4.758  20.213  0.00  0.00    +0.000 A 
ATOM      6  C   UNL     1       1.765   3.428  20.630  0.00  0.00    +0.000 A 
ATOM      7  C   UNL     1       2.849   2.638  20.263  0.00  0.00    +0.000 A 
ATOM      8  C   UNL     1       3.887   3.151  19.474  0.00  0.00    +0.000 A 
ATOM      9  C   UNL     1       3.811   4.494  19.065  0.00  0.00    +0.000 A 
ENDROOT
BRANCH   3  10
ATOM     10  C   UNL     1       2.087   7.729  18.958  0.00  0.00    +0.000 C 
ATOM     11  C   UNL     1       1.801   8.545  17.930  0.00  0.00    +0.000 C 
ATOM     12  C   UNL     1       0.980   9.792  18.072  0.00  0.00    +0.000 C 
ATOM     13  N   UNL     1       0.291   9.918  19.358  0.00  0.00    +0.000 NA
ATOM     14  C   UNL     1       1.171   9.519  20.463  0.00  0.00    +0.000 C 
ATOM     15  C   UNL     1       1.604   8.048  20.351  0.00  0.00    +0.000 C 
ATOM     16  H   UNL     1      -0.519   9.299  19.346  0.00  0.00    +0.000 HD
ENDBRANCH   3  10
BRANCH   1  17
ATOM     17  S   UNL     1       6.126   4.798  17.616  0.00  0.00    +0.000 S 
ATOM     18  O   UNL     1       5.764   3.885  16.545  0.00  0.00    +0.000 OA
ATOM     19  O   UNL     1       6.920   4.352  18.745  0.00  0.00    +0.000 OA
BRANCH  17  20
ATOM     20  C   UNL     1       6.925   6.217  16.884  0.00  0.00    +0.000 C 
BRANCH  20  21
ATOM     21  C   UNL     1       7.709   7.006  17.937  0.00  0.00    +0.000 C 
BRANCH  21  23
ATOM     22  C   UNL     1       8.673   9.254  18.568  0.00  0.00    +0.000 C 
ATOM     23  C   UNL     1       7.736   8.504  17.632  0.00  0.00    +0.000 C 
ENDBRANCH  21  23
ENDBRANCH  20  21
ENDBRANCH  17  20
ENDBRANCH   1  17
TORSDOF 5
ENDMDL
MODEL 8
REMARK VINA RESULT:      -7.8      1.498      1.757
REMARK  Name = 
REMARK  6 active torsions:
REMARK  status: ('A' for Active; 'I' for Inactive)
REMARK    1  A    between atoms: C_1  and  C_2
REMARK    2  A    between atoms: C_2  and  C_3
REMARK    3  A    between atoms: C_3  and  C_4
REMARK    4  A    between atoms: C_4  and  S_5
REMARK    5  A    between atoms: S_5  and  N_8
REMARK    6  A    between atoms: C_10  and  C_11
REMARK                            x       y       z     vdW  Elec       q    Type
REMARK                         _______ _______ _______ _____ _____    ______ ____
ROOT
ATOM      1  N   UNL     1       4.186   5.131  18.384  0.00  0.00    +0.000 N 
ATOM      2  C   UNL     1       3.845   6.458  18.302  0.00  0.00    +0.000 A 
ATOM      3  C   UNL     1       2.727   6.636  19.082  0.00  0.00    +0.000 A 
ATOM      4  C   UNL     1       2.396   5.382  19.675  0.00  0.00    +0.000 A 
ATOM      5  C   UNL     1       1.375   4.966  20.557  0.00  0.00    +0.000 A 
ATOM      6  C   UNL     1       1.312   3.631  20.965  0.00  0.00    +0.000 A 
ATOM      7  C   UNL     1       2.246   2.711  20.502  0.00  0.00    +0.000 A 
ATOM      8  C   UNL     1       3.268   3.093  19.623  0.00  0.00    +0.000 A 
ATOM      9  C   UNL     1       3.333   4.439  19.223  0.00  0.00    +0.000 A 
ENDROOT
BRANCH   3  10
ATOM     10  C   UNL     1       2.047   7.873  19.271  0.00  0.00    +0.000 C 
ATOM     11  C   UNL     1       1.517   8.256  20.444  0.00  0.00    +0.000 C 
ATOM     12  C   UNL     1       0.724   9.516  20.618  0.00  0.00    +0.000 C 
ATOM     13  N   UNL     1       0.789  10.433  19.478  0.00  0.00    +0.000 NA
ATOM     14  C   UNL     1       0.685   9.699  18.211  0.00  0.00    +0.000 C 
ATOM     15  C   UNL     1       1.843   8.703  18.027  0.00  0.00    +0.000 C 
ATOM     16  H   UNL     1       1.689  10.910  19.506  0.00  0.00    +0.000 HD
ENDBRANCH   3  10
BRANCH   1  17
ATOM     17  S   UNL     1       5.530   4.454  17.571  0.00  0.00    +0.000 S 
ATOM     18  O   UNL     1       4.981   3.368  16.777  0.00  0.00    +0.000 OA
ATOM     19  O   UNL     1       6.504   4.202  18.616  0.00  0.00    +0.000 OA
BRANCH  17  20
ATOM     20  C   UNL     1       6.199   5.673  16.451  0.00  0.00    +0.000 C 
BRANCH  20  21
ATOM     21  C   UNL     1       5.707   5.427  15.021  0.00  0.00    +0.000 C 
BRANCH  21  23
ATOM     22  C   UNL     1       6.149   3.710  13.221  0.00  0.00    +0.000 C 
ATOM     23  C   UNL     1       6.766   4.738  14.159  0.00  0.00    +0.000 C 
ENDBRANCH  21  23
ENDBRANCH  20  21
ENDBRANCH  17  20
ENDBRANCH   1  17
TORSDOF 5
ENDMDL
MODEL 9
REMARK VINA RESULT:      -7.6      1.565      2.078
REMARK  Name = 
REMARK  6 active torsions:
REMARK  status: ('A' for Active; 'I' for Inactive)
REMARK    1  A    between atoms: C_1  and  C_2
REMARK    2  A    between atoms: C_2  and  C_3
REMARK    3  A    between atoms: C_3  and  C_4
REMARK    4  A    between atoms: C_4  and  S_5
REMARK    5  A    between atoms: S_5  and  N_8
REMARK    6  A    between atoms: C_10  and  C_11
REMARK                            x       y       z     vdW  Elec       q    Type
REMARK                         _______ _______ _______ _____ _____    ______ ____
ROOT
ATOM      1  N   UNL     1       4.229   5.140  18.403  0.00  0.00    +0.000 N 
ATOM      2  C   UNL     1       3.809   6.439  18.261  0.00  0.00    +0.000 A 
ATOM      3  C   UNL     1       2.705   6.597  19.065  0.00  0.00    +0.000 A 
ATOM      4  C   UNL     1       2.466   5.360  19.735  0.00  0.00    +0.000 A 
ATOM      5  C   UNL     1       1.497   4.936  20.671  0.00  0.00    +0.000 A 
ATOM      6  C   UNL     1       1.524   3.625  21.152  0.00  0.00    +0.000 A 
ATOM      7  C   UNL     1       2.497   2.736  20.709  0.00  0.00    +0.000 A 
ATOM      8  C   UNL     1       3.469   3.126  19.779  0.00  0.00    +0.000 A 
ATOM      9  C   UNL     1       3.443   4.449  19.305  0.00  0.00    +0.000 A 
ENDROOT
BRANCH   3  10
ATOM     10  C   UNL     1       1.959   7.802  19.209  0.00  0.00    +0.000 C 
ATOM     11  C   UNL     1       1.798   8.695  18.220  0.00  0.00    +0.000 C 
ATOM     12  C   UNL     1       1.090  10.005  18.400  0.00  0.00    +0.000 C 
ATOM     13  N   UNL     1       0.357  10.126  19.662  0.00  0.00    +0.000 NA
ATOM     14  C   UNL     1       1.145   9.587  20.777  0.00  0.00    +0.000 C 
ATOM     15  C   UNL     1       1.444   8.089  20.597  0.00  0.00    +0.000 C 
ATOM     16  H   UNL     1      -0.505   9.588  19.581  0.00  0.00    +0.000 HD
ENDBRANCH   3  10
BRANCH   1  17
ATOM     17  S   UNL     1       5.586   4.498  17.585  0.00  0.00    +0.000 S 
ATOM     18  O   UNL     1       5.066   3.379  16.816  0.00  0.00    +0.000 OA
ATOM     19  O   UNL     1       6.582   4.298  18.621  0.00  0.00    +0.000 OA
BRANCH  17  20
ATOM     20  C   UNL     1       6.199   5.719  16.435  0.00  0.00    +0.000 C 
BRANCH  20  21
ATOM     21  C   UNL     1       5.711   5.422  15.014  0.00  0.00    +0.000 C 
BRANCH  21  23
ATOM     22  C   UNL     1       6.184   3.719  13.208  0.00  0.00    +0.000 C 
ATOM     23  C   UNL     1       6.785   4.737  14.169  0.00  0.00    +0.000 C 
ENDBRANCH  21  23
ENDBRANCH  20  21
ENDBRANCH  17  20
ENDBRANCH   1  17
TORSDOF 5
ENDMDL
