MODEL 1
REMARK VINA RESULT:      -9.0      0.000      0.000
REMARK  Name = 
REMARK  6 active torsions:
REMARK  status: ('A' for Active; 'I' for Inactive)
REMARK    1  A    between atoms: C_1  and  C_2
REMARK    2  A    between atoms: C_4  and  C_5
REMARK    3  A    between atoms: C_6  and  C_7
REMARK    4  A    between atoms: C_10  and  C_11
REMARK    5  A    between atoms: C_19  and  N_20
REMARK    6  A    between atoms: C_21  and  C_23
REMARK                            x       y       z     vdW  Elec       q    Type
REMARK                         _______ _______ _______ _____ _____    ______ ____
ROOT
ATOM      1  C   UNL     1       1.033   3.773  21.094  0.00  0.00    +0.000 C 
ATOM      2  C   UNL     1       2.142   3.960  20.092  0.00  0.00    +0.000 A 
ATOM      3  C   UNL     1       2.609   2.800  19.431  0.00  0.00    +0.000 A 
ATOM      4  C   UNL     1       3.633   2.843  18.469  0.00  0.00    +0.000 A 
ATOM      5  C   UNL     1       4.091   1.559  17.830  0.00  0.00    +0.000 C 
ATOM      6  C   UNL     1       4.190   4.087  18.146  0.00  0.00    +0.000 A 
ATOM      7  C   UNL     1       3.721   5.239  18.808  0.00  0.00    +0.000 A 
ATOM      8  C   UNL     1       2.713   5.211  19.783  0.00  0.00    +0.000 A 
ENDROOT
BRANCH   6   9
ATOM      9  C   UNL     1       5.219   4.259  17.123  0.00  0.00    +0.000 A 
ATOM     10  N   UNL     1       6.526   4.406  17.401  0.00  0.00    +0.000 NA
ATOM     11  O   UNL     1       7.108   4.640  16.164  0.00  0.00    +0.000 OA
ATOM     12  C   UNL     1       6.103   4.602  15.244  0.00  0.00    +0.000 A 
ATOM     13  N   UNL     1       4.929   4.358  15.780  0.00  0.00    +0.000 NA
BRANCH  12  14
ATOM     14  C   UNL     1       6.336   4.822  13.767  0.00  0.00    +0.000 C 
ATOM     15  C   UNL     1       7.762   4.411  13.303  0.00  0.00    +0.000 C 
ATOM     16  C   UNL     1       7.106   3.907  12.002  0.00  0.00    +0.000 C 
ATOM     17  F   UNL     1       7.664   2.812  11.444  0.00  0.00    +0.000 F 
ATOM     18  F   UNL     1       6.984   4.832  11.023  0.00  0.00    +0.000 F 
ATOM     19  C   UNL     1       5.839   3.672  12.847  0.00  0.00    +0.000 C 
ENDBRANCH  12  14
ENDBRANCH   6   9
BRANCH   8  20
ATOM     20  N   UNL     1       2.258   6.406  20.423  0.00  0.00    +0.000 N 
ATOM     21  C   UNL     1       1.980   7.627  19.801  0.00  0.00    +0.000 C 
ATOM     22  O   UNL     1       2.203   7.850  18.617  0.00  0.00    +0.000 OA
ATOM     23  H   UNL     1       2.162   6.365  21.427  0.00  0.00    +0.000 HD
BRANCH  21  24
ATOM     24  C   UNL     1       1.396   8.662  20.633  0.00  0.00    +0.000 A 
ATOM     25  C   UNL     1       1.448   8.866  22.000  0.00  0.00    +0.000 A 
ATOM     26  N   UNL     1       0.669   9.920  22.397  0.00  0.00    +0.000 NA
ATOM     27  C   UNL     1       0.115  10.376  21.295  0.00  0.00    +0.000 A 
ATOM     28  C   UNL     1      -0.824  11.430  21.094  0.00  0.00    +0.000 A 
ATOM     29  C   UNL     1      -1.241  11.735  19.849  0.00  0.00    +0.000 A 
ATOM     30  C   UNL     1      -0.742  11.017  18.693  0.00  0.00    +0.000 A 
ATOM     31  C   UNL     1       0.131  10.011  18.876  0.00  0.00    +0.000 A 
ATOM     32  N   UNL     1       0.549   9.671  20.171  0.00  0.00    +0.000 N 
ENDBRANCH  21  24
ENDBRANCH   8  20
TORSDOF 4
ENDMDL
MODEL 2
REMARK VINA RESULT:      -8.7      1.628      2.141
REMARK  Name = 
REMARK  6 active torsions:
REMARK  status: ('A' for Active; 'I' for Inactive)
REMARK    1  A    between atoms: C_1  and  C_2
REMARK    2  A    between atoms: C_4  and  C_5
REMARK    3  A    between atoms: C_6  and  C_7
REMARK    4  A    between atoms: C_10  and  C_11
REMARK    5  A    between atoms: C_19  and  N_20
REMARK    6  A    between atoms: C_21  and  C_23
REMARK                            x       y       z     vdW  Elec       q    Type
REMARK                         _______ _______ _______ _____ _____    ______ ____
ROOT
ATOM      1  C   UNL     1       1.081   5.953  20.891  0.00  0.00    +0.000 C 
ATOM      2  C   UNL     1       2.191   5.917  19.874  0.00  0.00    +0.000 A 
ATOM      3  C   UNL     1       2.840   4.677  19.677  0.00  0.00    +0.000 A 
ATOM      4  C   UNL     1       3.885   4.513  18.751  0.00  0.00    +0.000 A 
ATOM      5  C   UNL     1       4.541   3.164  18.620  0.00  0.00    +0.000 C 
ATOM      6  C   UNL     1       4.276   5.619  17.987  0.00  0.00    +0.000 A 
ATOM      7  C   UNL     1       3.626   6.854  18.188  0.00  0.00    +0.000 A 
ATOM      8  C   UNL     1       2.595   7.039  19.121  0.00  0.00    +0.000 A 
ENDROOT
BRANCH   6   9
ATOM      9  C   UNL     1       5.311   5.552  16.957  0.00  0.00    +0.000 A 
ATOM     10  N   UNL     1       6.203   6.532  16.736  0.00  0.00    +0.000 NA
ATOM     11  O   UNL     1       6.909   6.099  15.623  0.00  0.00    +0.000 OA
ATOM     12  C   UNL     1       6.387   4.889  15.274  0.00  0.00    +0.000 A 
ATOM     13  N   UNL     1       5.415   4.504  16.070  0.00  0.00    +0.000 NA
BRANCH  12  14
ATOM     14  C   UNL     1       6.888   4.090  14.093  0.00  0.00    +0.000 C 
ATOM     15  C   UNL     1       5.753   3.640  13.131  0.00  0.00    +0.000 C 
ATOM     16  C   UNL     1       6.741   3.894  11.975  0.00  0.00    +0.000 C 
ATOM     17  F   UNL     1       6.204   4.359  10.828  0.00  0.00    +0.000 F 
ATOM     18  F   UNL     1       7.526   2.842  11.647  0.00  0.00    +0.000 F 
ATOM     19  C   UNL     1       7.398   4.941  12.896  0.00  0.00    +0.000 C 
ENDBRANCH  12  14
ENDBRANCH   6   9
BRANCH   8  20
ATOM     20  N   UNL     1       1.954   8.306  19.285  0.00  0.00    +0.000 N 
ATOM     21  C   UNL     1       1.634   9.213  18.270  0.00  0.00    +0.000 C 
ATOM     22  O   UNL     1       1.972   9.068  17.101  0.00  0.00    +0.000 OA
ATOM     23  H   UNL     1       1.745   8.580  20.234  0.00  0.00    +0.000 HD
BRANCH  21  24
ATOM     24  C   UNL     1       0.859  10.376  18.658  0.00  0.00    +0.000 A 
ATOM     25  C   UNL     1       1.180  11.456  19.461  0.00  0.00    +0.000 A 
ATOM     26  N   UNL     1       0.115  12.296  19.651  0.00  0.00    +0.000 NA
ATOM     27  C   UNL     1      -0.881  11.749  18.989  0.00  0.00    +0.000 A 
ATOM     28  C   UNL     1      -2.243  12.148  18.862  0.00  0.00    +0.000 A 
ATOM     29  C   UNL     1      -3.090  11.429  18.099  0.00  0.00    +0.000 A 
ATOM     30  C   UNL     1      -2.640  10.250  17.384  0.00  0.00    +0.000 A 
ATOM     31  C   UNL     1      -1.361   9.858  17.512  0.00  0.00    +0.000 A 
ATOM     32  N   UNL     1      -0.480  10.588  18.325  0.00  0.00    +0.000 N 
ENDBRANCH  21  24
ENDBRANCH   8  20
TORSDOF 4
ENDMDL
MODEL 3
REMARK VINA RESULT:      -8.7      1.233      1.943
REMARK  Name = 
REMARK  6 active torsions:
REMARK  status: ('A' for Active; 'I' for Inactive)
REMARK    1  A    between atoms: C_1  and  C_2
REMARK    2  A    between atoms: C_4  and  C_5
REMARK    3  A    between atoms: C_6  and  C_7
REMARK    4  A    between atoms: C_10  and  C_11
REMARK    5  A    between atoms: C_19  and  N_20
REMARK    6  A    between atoms: C_21  and  C_23
REMARK                            x       y       z     vdW  Elec       q    Type
REMARK                         _______ _______ _______ _____ _____    ______ ____
ROOT
ATOM      1  C   UNL     1       0.958   5.331  20.648  0.00  0.00    +0.000 C 
ATOM      2  C   UNL     1       2.124   5.353  19.695  0.00  0.00    +0.000 A 
ATOM      3  C   UNL     1       2.637   4.101  19.281  0.00  0.00    +0.000 A 
ATOM      4  C   UNL     1       3.716   3.988  18.389  0.00  0.00    +0.000 A 
ATOM      5  C   UNL     1       4.219   2.619  18.018  0.00  0.00    +0.000 C 
ATOM      6  C   UNL     1       4.285   5.163  17.880  0.00  0.00    +0.000 A 
ATOM      7  C   UNL     1       3.771   6.408  18.297  0.00  0.00    +0.000 A 
ATOM      8  C   UNL     1       2.706   6.538  19.201  0.00  0.00    +0.000 A 
ENDROOT
BRANCH   6   9
ATOM      9  C   UNL     1       5.373   5.166  16.905  0.00  0.00    +0.000 A 
ATOM     10  N   UNL     1       6.334   6.105  16.867  0.00  0.00    +0.000 NA
ATOM     11  O   UNL     1       7.078   5.779  15.742  0.00  0.00    +0.000 OA
ATOM     12  C   UNL     1       6.506   4.664  15.204  0.00  0.00    +0.000 A 
ATOM     13  N   UNL     1       5.468   4.241  15.889  0.00  0.00    +0.000 NA
BRANCH  12  14
ATOM     14  C   UNL     1       7.029   3.999  13.951  0.00  0.00    +0.000 C 
ATOM     15  C   UNL     1       5.953   3.855  12.839  0.00  0.00    +0.000 C 
ATOM     16  C   UNL     1       7.075   4.153  11.825  0.00  0.00    +0.000 C 
ATOM     17  F   UNL     1       6.714   4.857  10.732  0.00  0.00    +0.000 F 
ATOM     18  F   UNL     1       7.762   3.072  11.392  0.00  0.00    +0.000 F 
ATOM     19  C   UNL     1       7.752   4.951  12.957  0.00  0.00    +0.000 C 
ENDBRANCH  12  14
ENDBRANCH   6   9
BRANCH   8  20
ATOM     20  N   UNL     1       2.207   7.820  19.588  0.00  0.00    +0.000 N 
ATOM     21  C   UNL     1       1.671   8.795  18.740  0.00  0.00    +0.000 C 
ATOM     22  O   UNL     1       1.666   8.699  17.518  0.00  0.00    +0.000 OA
ATOM     23  H   UNL     1       2.283   8.051  20.568  0.00  0.00    +0.000 HD
BRANCH  21  24
ATOM     24  C   UNL     1       1.099   9.966  19.375  0.00  0.00    +0.000 A 
ATOM     25  C   UNL     1       1.129  11.301  19.014  0.00  0.00    +0.000 A 
ATOM     26  N   UNL     1       0.538  12.105  19.952  0.00  0.00    +0.000 NA
ATOM     27  C   UNL     1       0.147  11.293  20.909  0.00  0.00    +0.000 A 
ATOM     28  C   UNL     1      -0.484  11.563  22.158  0.00  0.00    +0.000 A 
ATOM     29  C   UNL     1      -0.816  10.549  22.981  0.00  0.00    +0.000 A 
ATOM     30  C   UNL     1      -0.554   9.170  22.618  0.00  0.00    +0.000 A 
ATOM     31  C   UNL     1       0.057   8.908  21.449  0.00  0.00    +0.000 A 
ATOM     32  N   UNL     1       0.427   9.961  20.599  0.00  0.00    +0.000 N 
ENDBRANCH  21  24
ENDBRANCH   8  20
TORSDOF 4
ENDMDL
MODEL 4
REMARK VINA RESULT:      -8.5      2.916      4.324
REMARK  Name = 
REMARK  6 active torsions:
REMARK  status: ('A' for Active; 'I' for Inactive)
REMARK    1  A    between atoms: C_1  and  C_2
REMARK    2  A    between atoms: C_4  and  C_5
REMARK    3  A    between atoms: C_6  and  C_7
REMARK    4  A    between atoms: C_10  and  C_11
REMARK    5  A    between atoms: C_19  and  N_20
REMARK    6  A    between atoms: C_21  and  C_23
REMARK                            x       y       z     vdW  Elec       q    Type
REMARK                         _______ _______ _______ _____ _____    ______ ____
ROOT
ATOM      1  C   UNL     1      -0.056   9.305  22.295  0.00  0.00    +0.000 C 
ATOM      2  C   UNL     1       0.736   8.563  21.251  0.00  0.00    +0.000 A 
ATOM      3  C   UNL     1       0.893   7.169  21.437  0.00  0.00    +0.000 A 
ATOM      4  C   UNL     1       1.603   6.365  20.530  0.00  0.00    +0.000 A 
ATOM      5  C   UNL     1       1.747   4.894  20.814  0.00  0.00    +0.000 C 
ATOM      6  C   UNL     1       2.154   6.970  19.393  0.00  0.00    +0.000 A 
ATOM      7  C   UNL     1       1.995   8.359  19.213  0.00  0.00    +0.000 A 
ATOM      8  C   UNL     1       1.305   9.180  20.118  0.00  0.00    +0.000 A 
ENDROOT
BRANCH   6   9
ATOM      9  C   UNL     1       2.863   6.224  18.355  0.00  0.00    +0.000 A 
ATOM     10  N   UNL     1       2.465   5.023  17.902  0.00  0.00    +0.000 NA
ATOM     11  O   UNL     1       3.469   4.649  17.020  0.00  0.00    +0.000 OA
ATOM     12  C   UNL     1       4.381   5.662  17.011  0.00  0.00    +0.000 A 
ATOM     13  N   UNL     1       4.047   6.657  17.802  0.00  0.00    +0.000 NA
BRANCH  12  14
ATOM     14  C   UNL     1       5.638   5.625  16.172  0.00  0.00    +0.000 C 
ATOM     15  C   UNL     1       6.292   4.217  16.108  0.00  0.00    +0.000 C 
ATOM     16  C   UNL     1       6.640   4.533  14.640  0.00  0.00    +0.000 C 
ATOM     17  F   UNL     1       6.607   3.490  13.785  0.00  0.00    +0.000 F 
ATOM     18  F   UNL     1       7.823   5.162  14.451  0.00  0.00    +0.000 F 
ATOM     19  C   UNL     1       5.401   5.451  14.645  0.00  0.00    +0.000 C 
ENDBRANCH  12  14
ENDBRANCH   6   9
BRANCH   8  20
ATOM     20  N   UNL     1       1.157  10.583  19.892  0.00  0.00    +0.000 N 
ATOM     21  C   UNL     1       0.225  11.195  19.047  0.00  0.00    +0.000 C 
ATOM     22  O   UNL     1      -0.523  10.573  18.302  0.00  0.00    +0.000 OA
ATOM     23  H   UNL     1       1.815  11.184  20.367  0.00  0.00    +0.000 HD
BRANCH  21  24
ATOM     24  C   UNL     1       0.168  12.643  19.083  0.00  0.00    +0.000 A 
ATOM     25  C   UNL     1      -0.888  13.506  19.318  0.00  0.00    +0.000 A 
ATOM     26  N   UNL     1      -0.530  14.819  19.163  0.00  0.00    +0.000 NA
ATOM     27  C   UNL     1       0.738  14.794  18.819  0.00  0.00    +0.000 A 
ATOM     28  C   UNL     1       1.631  15.853  18.483  0.00  0.00    +0.000 A 
ATOM     29  C   UNL     1       2.916  15.584  18.179  0.00  0.00    +0.000 A 
ATOM     30  C   UNL     1       3.423  14.225  18.196  0.00  0.00    +0.000 A 
ATOM     31  C   UNL     1       2.583  13.220  18.496  0.00  0.00    +0.000 A 
ATOM     32  N   UNL     1       1.238  13.491  18.789  0.00  0.00    +0.000 N 
ENDBRANCH  21  24
ENDBRANCH   8  20
TORSDOF 4
ENDMDL
MODEL 5
REMARK VINA RESULT:      -8.4      1.968      3.221
REMARK  Name = 
REMARK  6 active torsions:
REMARK  status: ('A' for Active; 'I' for Inactive)
REMARK    1  A    between atoms: C_1  and  C_2
REMARK    2  A    between atoms: C_4  and  C_5
REMARK    3  A    between atoms: C_6  and  C_7
REMARK    4  A    between atoms: C_10  and  C_11
REMARK    5  A    between atoms: C_19  and  N_20
REMARK    6  A    between atoms: C_21  and  C_23
REMARK                            x       y       z     vdW  Elec       q    Type
REMARK                         _______ _______ _______ _____ _____    ______ ____
ROOT
ATOM      1  C   UNL     1      -0.193   8.151  21.568  0.00  0.00    +0.000 C 
ATOM      2  C   UNL     1       0.929   7.454  20.844  0.00  0.00    +0.000 A 
ATOM      3  C   UNL     1       1.043   6.057  21.033  0.00  0.00    +0.000 A 
ATOM      4  C   UNL     1       2.041   5.292  20.407  0.00  0.00    +0.000 A 
ATOM      5  C   UNL     1       2.109   3.813  20.681  0.00  0.00    +0.000 C 
ATOM      6  C   UNL     1       2.939   5.942  19.551  0.00  0.00    +0.000 A 
ATOM      7  C   UNL     1       2.822   7.335  19.367  0.00  0.00    +0.000 A 
ATOM      8  C   UNL     1       1.843   8.116  19.999  0.00  0.00    +0.000 A 
ENDROOT
BRANCH   6   9
ATOM      9  C   UNL     1       3.981   5.240  18.805  0.00  0.00    +0.000 A 
ATOM     10  N   UNL     1       5.154   4.865  19.342  0.00  0.00    +0.000 NA
ATOM     11  O   UNL     1       5.861   4.339  18.270  0.00  0.00    +0.000 OA
ATOM     12  C   UNL     1       5.048   4.433  17.180  0.00  0.00    +0.000 A 
ATOM     13  N   UNL     1       3.880   4.965  17.459  0.00  0.00    +0.000 NA
BRANCH  12  14
ATOM     14  C   UNL     1       5.466   3.968  15.804  0.00  0.00    +0.000 C 
ATOM     15  C   UNL     1       5.368   5.082  14.724  0.00  0.00    +0.000 C 
ATOM     16  C   UNL     1       6.651   4.487  14.110  0.00  0.00    +0.000 C 
ATOM     17  F   UNL     1       7.504   5.371  13.552  0.00  0.00    +0.000 F 
ATOM     18  F   UNL     1       6.453   3.502  13.204  0.00  0.00    +0.000 F 
ATOM     19  C   UNL     1       6.996   4.011  15.535  0.00  0.00    +0.000 C 
ENDBRANCH  12  14
ENDBRANCH   6   9
BRANCH   8  20
ATOM     20  N   UNL     1       1.752   9.525  19.775  0.00  0.00    +0.000 N 
ATOM     21  C   UNL     1       1.511  10.158  18.552  0.00  0.00    +0.000 C 
ATOM     22  O   UNL     1       1.455   9.564  17.482  0.00  0.00    +0.000 OA
ATOM     23  H   UNL     1       1.911  10.115  20.579  0.00  0.00    +0.000 HD
BRANCH  21  24
ATOM     24  C   UNL     1       1.322  11.595  18.591  0.00  0.00    +0.000 A 
ATOM     25  C   UNL     1       2.151  12.632  18.202  0.00  0.00    +0.000 A 
ATOM     26  N   UNL     1       1.622  13.860  18.501  0.00  0.00    +0.000 NA
ATOM     27  C   UNL     1       0.474  13.609  19.088  0.00  0.00    +0.000 A 
ATOM     28  C   UNL     1      -0.492  14.490  19.657  0.00  0.00    +0.000 A 
ATOM     29  C   UNL     1      -1.625  13.995  20.193  0.00  0.00    +0.000 A 
ATOM     30  C   UNL     1      -1.895  12.570  20.197  0.00  0.00    +0.000 A 
ATOM     31  C   UNL     1      -0.981  11.732  19.678  0.00  0.00    +0.000 A 
ATOM     32  N   UNL     1       0.211  12.238  19.140  0.00  0.00    +0.000 N 
ENDBRANCH  21  24
ENDBRANCH   8  20
TORSDOF 4
ENDMDL
MODEL 6
REMARK VINA RESULT:      -8.4      2.064      2.900
REMARK  Name = 
REMARK  6 active torsions:
REMARK  status: ('A' for Active; 'I' for Inactive)
REMARK    1  A    between atoms: C_1  and  C_2
REMARK    2  A    between atoms: C_4  and  C_5
REMARK    3  A    between atoms: C_6  and  C_7
REMARK    4  A    between atoms: C_10  and  C_11
REMARK    5  A    between atoms: C_19  and  N_20
REMARK    6  A    between atoms: C_21  and  C_23
REMARK                            x       y       z     vdW  Elec       q    Type
REMARK                         _______ _______ _______ _____ _____    ______ ____
ROOT
ATOM      1  C   UNL     1       0.933   7.033  21.204  0.00  0.00    +0.000 C 
ATOM      2  C   UNL     1       1.906   6.823  20.073  0.00  0.00    +0.000 A 
ATOM      3  C   UNL     1       2.468   5.531  19.943  0.00  0.00    +0.000 A 
ATOM      4  C   UNL     1       3.380   5.206  18.926  0.00  0.00    +0.000 A 
ATOM      5  C   UNL     1       3.952   3.815  18.873  0.00  0.00    +0.000 C 
ATOM      6  C   UNL     1       3.724   6.199  17.999  0.00  0.00    +0.000 A 
ATOM      7  C   UNL     1       3.163   7.485  18.134  0.00  0.00    +0.000 A 
ATOM      8  C   UNL     1       2.264   7.830  19.154  0.00  0.00    +0.000 A 
ENDROOT
BRANCH   6   9
ATOM      9  C   UNL     1       4.619   5.960  16.869  0.00  0.00    +0.000 A 
ATOM     10  N   UNL     1       5.336   6.927  16.271  0.00  0.00    +0.000 NA
ATOM     11  O   UNL     1       5.946   6.282  15.205  0.00  0.00    +0.000 OA
ATOM     12  C   UNL     1       5.552   4.979  15.258  0.00  0.00    +0.000 A 
ATOM     13  N   UNL     1       4.750   4.728  16.268  0.00  0.00    +0.000 NA
BRANCH  12  14
ATOM     14  C   UNL     1       6.003   3.946  14.250  0.00  0.00    +0.000 C 
ATOM     15  C   UNL     1       5.230   4.025  12.903  0.00  0.00    +0.000 C 
ATOM     16  C   UNL     1       6.563   3.677  12.211  0.00  0.00    +0.000 C 
ATOM     17  F   UNL     1       6.773   4.251  11.008  0.00  0.00    +0.000 F 
ATOM     18  F   UNL     1       6.808   2.354  12.067  0.00  0.00    +0.000 F 
ATOM     19  C   UNL     1       7.252   4.345  13.416  0.00  0.00    +0.000 C 
ENDBRANCH  12  14
ENDBRANCH   6   9
BRANCH   8  20
ATOM     20  N   UNL     1       1.708   9.144  19.248  0.00  0.00    +0.000 N 
ATOM     21  C   UNL     1       0.761   9.708  18.388  0.00  0.00    +0.000 C 
ATOM     22  O   UNL     1       0.366   9.162  17.364  0.00  0.00    +0.000 OA
ATOM     23  H   UNL     1       2.064   9.727  19.991  0.00  0.00    +0.000 HD
BRANCH  21  24
ATOM     24  C   UNL     1       0.238  11.008  18.760  0.00  0.00    +0.000 A 
ATOM     25  C   UNL     1      -1.024  11.396  19.174  0.00  0.00    +0.000 A 
ATOM     26  N   UNL     1      -1.123  12.752  19.335  0.00  0.00    +0.000 NA
ATOM     27  C   UNL     1       0.059  13.227  19.014  0.00  0.00    +0.000 A 
ATOM     28  C   UNL     1       0.535  14.569  18.947  0.00  0.00    +0.000 A 
ATOM     29  C   UNL     1       1.815  14.816  18.607  0.00  0.00    +0.000 A 
ATOM     30  C   UNL     1       2.737  13.736  18.315  0.00  0.00    +0.000 A 
ATOM     31  C   UNL     1       2.291  12.468  18.359  0.00  0.00    +0.000 A 
ATOM     32  N   UNL     1       0.953  12.205  18.688  0.00  0.00    +0.000 N 
ENDBRANCH  21  24
ENDBRANCH   8  20
TORSDOF 4
ENDMDL
MODEL 7
REMARK VINA RESULT:      -8.3      6.125     10.946
REMARK  Name = 
REMARK  6 active torsions:
REMARK  status: ('A' for Active; 'I' for Inactive)
REMARK    1  A    between atoms: C_1  and  C_2
REMARK    2  A    between atoms: C_4  and  C_5
REMARK    3  A    between atoms: C_6  and  C_7
REMARK    4  A    between atoms: C_10  and  C_11
REMARK    5  A    between atoms: C_19  and  N_20
REMARK    6  A    between atoms: C_21  and  C_23
REMARK                            x       y       z     vdW  Elec       q    Type
REMARK                         _______ _______ _______ _____ _____    ______ ____
ROOT
ATOM      1  C   UNL     1       2.875   7.970  17.502  0.00  0.00    +0.000 C 
ATOM      2  C   UNL     1       2.099   8.666  18.590  0.00  0.00    +0.000 A 
ATOM      3  C   UNL     1       1.643   9.976  18.314  0.00  0.00    +0.000 A 
ATOM      4  C   UNL     1       0.903  10.725  19.244  0.00  0.00    +0.000 A 
ATOM      5  C   UNL     1       0.476  12.123  18.883  0.00  0.00    +0.000 C 
ATOM      6  C   UNL     1       0.593  10.138  20.477  0.00  0.00    +0.000 A 
ATOM      7  C   UNL     1       1.051   8.832  20.747  0.00  0.00    +0.000 A 
ATOM      8  C   UNL     1       1.807   8.077  19.838  0.00  0.00    +0.000 A 
ENDROOT
BRANCH   6   9
ATOM      9  C   UNL     1      -0.217  10.801  21.497  0.00  0.00    +0.000 A 
ATOM     10  N   UNL     1       0.032  10.716  22.815  0.00  0.00    +0.000 NA
ATOM     11  O   UNL     1      -1.025  11.397  23.401  0.00  0.00    +0.000 OA
ATOM     12  C   UNL     1      -1.815  11.843  22.384  0.00  0.00    +0.000 A 
ATOM     13  N   UNL     1      -1.355  11.516  21.198  0.00  0.00    +0.000 NA
BRANCH  12  14
ATOM     14  C   UNL     1      -3.085  12.630  22.619  0.00  0.00    +0.000 C 
ATOM     15  C   UNL     1      -3.568  12.588  24.095  0.00  0.00    +0.000 C 
ATOM     16  C   UNL     1      -3.998  14.058  23.912  0.00  0.00    +0.000 C 
ATOM     17  F   UNL     1      -3.868  14.852  24.994  0.00  0.00    +0.000 F 
ATOM     18  F   UNL     1      -5.252  14.236  23.438  0.00  0.00    +0.000 F 
ATOM     19  C   UNL     1      -2.877  14.152  22.857  0.00  0.00    +0.000 C 
ENDBRANCH  12  14
ENDBRANCH   6   9
BRANCH   8  20
ATOM     20  N   UNL     1       2.242   6.751  20.146  0.00  0.00    +0.000 N 
ATOM     21  C   UNL     1       1.426   5.665  20.477  0.00  0.00    +0.000 C 
ATOM     22  O   UNL     1       0.215   5.755  20.647  0.00  0.00    +0.000 OA
ATOM     23  H   UNL     1       3.240   6.601  20.158  0.00  0.00    +0.000 HD
BRANCH  21  24
ATOM     24  C   UNL     1       2.081   4.378  20.615  0.00  0.00    +0.000 A 
ATOM     25  C   UNL     1       2.491   3.683  21.739  0.00  0.00    +0.000 A 
ATOM     26  N   UNL     1       3.164   2.533  21.420  0.00  0.00    +0.000 NA
ATOM     27  C   UNL     1       3.196   2.503  20.107  0.00  0.00    +0.000 A 
ATOM     28  C   UNL     1       3.801   1.571  19.213  0.00  0.00    +0.000 A 
ATOM     29  C   UNL     1       3.681   1.736  17.881  0.00  0.00    +0.000 A 
ATOM     30  C   UNL     1       2.932   2.848  17.326  0.00  0.00    +0.000 A 
ATOM     31  C   UNL     1       2.373   3.740  18.163  0.00  0.00    +0.000 A 
ATOM     32  N   UNL     1       2.515   3.587  19.550  0.00  0.00    +0.000 N 
ENDBRANCH  21  24
ENDBRANCH   8  20
TORSDOF 4
ENDMDL
MODEL 8
REMARK VINA RESULT:      -8.2      1.173      1.175
REMARK  Name = 
REMARK  6 active torsions:
REMARK  status: ('A' for Active; 'I' for Inactive)
REMARK    1  A    between atoms: C_1  and  C_2
REMARK    2  A    between atoms: C_4  and  C_5
REMARK    3  A    between atoms: C_6  and  C_7
REMARK    4  A    between atoms: C_10  and  C_11
REMARK    5  A    between atoms: C_19  and  N_20
REMARK    6  A    between atoms: C_21  and  C_23
REMARK                            x       y       z     vdW  Elec       q    Type
REMARK                         _______ _______ _______ _____ _____    ______ ____
ROOT
ATOM      1  C   UNL     1       0.939   4.772  20.849  0.00  0.00    +0.000 C 
ATOM      2  C   UNL     1       2.076   4.796  19.861  0.00  0.00    +0.000 A 
ATOM      3  C   UNL     1       2.454   3.559  19.289  0.00  0.00    +0.000 A 
ATOM      4  C   UNL     1       3.494   3.451  18.350  0.00  0.00    +0.000 A 
ATOM      5  C   UNL     1       3.852   2.093  17.808  0.00  0.00    +0.000 C 
ATOM      6  C   UNL     1       4.159   4.620  17.957  0.00  0.00    +0.000 A 
ATOM      7  C   UNL     1       3.779   5.850  18.530  0.00  0.00    +0.000 A 
ATOM      8  C   UNL     1       2.756   5.972  19.483  0.00  0.00    +0.000 A 
ENDROOT
BRANCH   6   9
ATOM      9  C   UNL     1       5.216   4.635  16.948  0.00  0.00    +0.000 A 
ATOM     10  N   UNL     1       6.526   4.651  17.245  0.00  0.00    +0.000 NA
ATOM     11  O   UNL     1       7.149   4.767  16.011  0.00  0.00    +0.000 OA
ATOM     12  C   UNL     1       6.160   4.801  15.074  0.00  0.00    +0.000 A 
ATOM     13  N   UNL     1       4.958   4.708  15.597  0.00  0.00    +0.000 NA
BRANCH  12  14
ATOM     14  C   UNL     1       6.438   4.931  13.594  0.00  0.00    +0.000 C 
ATOM     15  C   UNL     1       7.853   4.433  13.189  0.00  0.00    +0.000 C 
ATOM     16  C   UNL     1       7.206   3.890  11.900  0.00  0.00    +0.000 C 
ATOM     17  F   UNL     1       7.726   2.744  11.414  0.00  0.00    +0.000 F 
ATOM     18  F   UNL     1       7.149   4.767  10.871  0.00  0.00    +0.000 F 
ATOM     19  C   UNL     1       5.909   3.757  12.722  0.00  0.00    +0.000 C 
ENDBRANCH  12  14
ENDBRANCH   6   9
BRANCH   8  20
ATOM     20  N   UNL     1       2.393   7.241  20.031  0.00  0.00    +0.000 N 
ATOM     21  C   UNL     1       1.738   8.279  19.362  0.00  0.00    +0.000 C 
ATOM     22  O   UNL     1       1.487   8.258  18.162  0.00  0.00    +0.000 OA
ATOM     23  H   UNL     1       2.670   7.409  20.987  0.00  0.00    +0.000 HD
BRANCH  21  24
ATOM     24  C   UNL     1       1.348   9.425  20.161  0.00  0.00    +0.000 A 
ATOM     25  C   UNL     1       0.796   9.504  21.427  0.00  0.00    +0.000 A 
ATOM     26  N   UNL     1       0.486  10.790  21.778  0.00  0.00    +0.000 NA
ATOM     27  C   UNL     1       0.823  11.524  20.741  0.00  0.00    +0.000 A 
ATOM     28  C   UNL     1       0.691  12.925  20.511  0.00  0.00    +0.000 A 
ATOM     29  C   UNL     1       1.135  13.465  19.359  0.00  0.00    +0.000 A 
ATOM     30  C   UNL     1       1.764  12.648  18.339  0.00  0.00    +0.000 A 
ATOM     31  C   UNL     1       1.877  11.324  18.543  0.00  0.00    +0.000 A 
ATOM     32  N   UNL     1       1.394  10.751  19.729  0.00  0.00    +0.000 N 
ENDBRANCH  21  24
ENDBRANCH   8  20
TORSDOF 4
ENDMDL
MODEL 9
REMARK VINA RESULT:      -8.1      2.820      4.014
REMARK  Name = 
REMARK  6 active torsions:
REMARK  status: ('A' for Active; 'I' for Inactive)
REMARK    1  A    between atoms: C_1  and  C_2
REMARK    2  A    between atoms: C_4  and  C_5
REMARK    3  A    between atoms: C_6  and  C_7
REMARK    4  A    between atoms: C_10  and  C_11
REMARK    5  A    between atoms: C_19  and  N_20
REMARK    6  A    between atoms: C_21  and  C_23
REMARK                            x       y       z     vdW  Elec       q    Type
REMARK                         _______ _______ _______ _____ _____    ______ ____
ROOT
ATOM      1  C   UNL     1      -0.588   8.502  21.669  0.00  0.00    +0.000 C 
ATOM      2  C   UNL     1       0.561   7.888  20.913  0.00  0.00    +0.000 A 
ATOM      3  C   UNL     1       0.913   6.560  21.251  0.00  0.00    +0.000 A 
ATOM      4  C   UNL     1       1.960   5.875  20.613  0.00  0.00    +0.000 A 
ATOM      5  C   UNL     1       2.289   4.472  21.049  0.00  0.00    +0.000 C 
ATOM      6  C   UNL     1       2.661   6.531  19.592  0.00  0.00    +0.000 A 
ATOM      7  C   UNL     1       2.306   7.854  19.260  0.00  0.00    +0.000 A 
ATOM      8  C   UNL     1       1.276   8.559  19.900  0.00  0.00    +0.000 A 
ENDROOT
BRANCH   6   9
ATOM      9  C   UNL     1       3.730   5.897  18.823  0.00  0.00    +0.000 A 
ATOM     10  N   UNL     1       4.991   5.772  19.268  0.00  0.00    +0.000 NA
ATOM     11  O   UNL     1       5.673   5.218  18.194  0.00  0.00    +0.000 OA
ATOM     12  C   UNL     1       4.760   5.048  17.196  0.00  0.00    +0.000 A 
ATOM     13  N   UNL     1       3.552   5.435  17.538  0.00  0.00    +0.000 NA
BRANCH  12  14
ATOM     14  C   UNL     1       5.121   4.473  15.846  0.00  0.00    +0.000 C 
ATOM     15  C   UNL     1       5.485   5.558  14.794  0.00  0.00    +0.000 C 
ATOM     16  C   UNL     1       6.552   4.577  14.269  0.00  0.00    +0.000 C 
ATOM     17  F   UNL     1       7.692   5.132  13.808  0.00  0.00    +0.000 F 
ATOM     18  F   UNL     1       6.123   3.711  13.323  0.00  0.00    +0.000 F 
ATOM     19  C   UNL     1       6.599   4.013  15.703  0.00  0.00    +0.000 C 
ENDBRANCH  12  14
ENDBRANCH   6   9
BRANCH   8  20
ATOM     20  N   UNL     1       0.940   9.896  19.524  0.00  0.00    +0.000 N 
ATOM     21  C   UNL     1       1.069  11.040  20.318  0.00  0.00    +0.000 C 
ATOM     22  O   UNL     1       1.397  11.010  21.499  0.00  0.00    +0.000 OA
ATOM     23  H   UNL     1       0.539  10.014  18.605  0.00  0.00    +0.000 HD
BRANCH  21  24
ATOM     24  C   UNL     1       0.796  12.311  19.676  0.00  0.00    +0.000 A 
ATOM     25  C   UNL     1      -0.249  12.713  18.864  0.00  0.00    +0.000 A 
ATOM     26  N   UNL     1      -0.074  13.984  18.384  0.00  0.00    +0.000 NA
ATOM     27  C   UNL     1       1.079  14.384  18.873  0.00  0.00    +0.000 A 
ATOM     28  C   UNL     1       1.799  15.599  18.681  0.00  0.00    +0.000 A 
ATOM     29  C   UNL     1       2.971  15.797  19.315  0.00  0.00    +0.000 A 
ATOM     30  C   UNL     1       3.520  14.797  20.210  0.00  0.00    +0.000 A 
ATOM     31  C   UNL     1       2.855  13.641  20.383  0.00  0.00    +0.000 A 
ATOM     32  N   UNL     1       1.646  13.418  19.707  0.00  0.00    +0.000 N 
ENDBRANCH  21  24
ENDBRANCH   8  20
TORSDOF 4
ENDMDL
