MODEL 1
REMARK VINA RESULT:      -8.0      0.000      0.000
REMARK  Name = 
REMARK  5 active torsions:
REMARK  status: ('A' for Active; 'I' for Inactive)
REMARK    1  A    between atoms: C_1  and  C_2
REMARK    2  A    between atoms: C_5  and  C_6
REMARK    3  A    between atoms: C_7  and  C_8
REMARK    4  A    between atoms: C_8  and  C_9
REMARK    5  A    between atoms: C_14  and  C_15
REMARK                            x       y       z     vdW  Elec       q    Type
REMARK                         _______ _______ _______ _____ _____    ______ ____
ROOT
ATOM      1  C   UNL     1      -0.504  10.473  18.411  0.00  0.00    +0.000 C 
ATOM      2  O   UNL     1      -0.694   9.414  17.790  0.00  0.00    +0.000 OA
ATOM      3  N   UNL     1       0.338  10.592  19.501  0.00  0.00    +0.000 N 
ATOM      4  C   UNL     1       0.999   9.448  19.929  0.00  0.00    +0.000 A 
ATOM      5  C   UNL     1       1.787   8.608  19.115  0.00  0.00    +0.000 A 
ATOM      6  C   UNL     1       2.073   7.494  19.878  0.00  0.00    +0.000 A 
ATOM      7  N   UNL     1       1.493   7.758  21.093  0.00  0.00    +0.000 N 
ATOM      8  N   UNL     1       0.949   8.997  21.180  0.00  0.00    +0.000 NA
ATOM      9  H   UNL     1       0.083  11.227  20.241  0.00  0.00    +0.000 HD
ATOM     10  H   UNL     1       1.426   7.145  21.900  0.00  0.00    +0.000 HD
ENDROOT
BRANCH   6  11
ATOM     11  C   UNL     1       2.814   6.225  19.519  0.00  0.00    +0.000 C 
ATOM     12  C   UNL     1       2.560   5.099  20.545  0.00  0.00    +0.000 C 
ATOM     13  C   UNL     1       1.189   4.424  20.471  0.00  0.00    +0.000 C 
ATOM     14  C   UNL     1       1.120   3.256  19.490  0.00  0.00    +0.000 C 
ATOM     15  C   UNL     1       1.303   3.616  18.020  0.00  0.00    +0.000 C 
ATOM     16  C   UNL     1       2.592   4.366  17.684  0.00  0.00    +0.000 C 
ATOM     17  C   UNL     1       2.528   5.847  18.047  0.00  0.00    +0.000 C 
ENDBRANCH   6  11
BRANCH   1  18
ATOM     18  C   UNL     1      -1.215  11.734  17.955  0.00  0.00    +0.000 C 
BRANCH  18  25
ATOM     19  C   UNL     1      -2.972  10.714  15.338  0.00  0.00    +0.000 C 
ATOM     20  C   UNL     1      -3.439  11.188  16.654  0.00  0.00    +0.000 A 
ATOM     21  N   UNL     1      -4.757  11.281  16.864  0.00  0.00    +0.000 NA
ATOM     22  O   UNL     1      -4.915  11.756  18.138  0.00  0.00    +0.000 OA
ATOM     23  C   UNL     1      -3.702  11.958  18.712  0.00  0.00    +0.000 A 
ATOM     24  C   UNL     1      -3.790  12.494  20.085  0.00  0.00    +0.000 C 
ATOM     25  C   UNL     1      -2.700  11.613  17.815  0.00  0.00    +0.000 A 
ENDBRANCH  18  25
ENDBRANCH   1  18
TORSDOF 3
ENDMDL
MODEL 2
REMARK VINA RESULT:      -8.0      0.420      1.701
REMARK  Name = 
REMARK  5 active torsions:
REMARK  status: ('A' for Active; 'I' for Inactive)
REMARK    1  A    between atoms: C_1  and  C_2
REMARK    2  A    between atoms: C_5  and  C_6
REMARK    3  A    between atoms: C_7  and  C_8
REMARK    4  A    between atoms: C_8  and  C_9
REMARK    5  A    between atoms: C_14  and  C_15
REMARK                            x       y       z     vdW  Elec       q    Type
REMARK                         _______ _______ _______ _____ _____    ______ ____
ROOT
ATOM      1  C   UNL     1      -0.415  10.474  18.461  0.00  0.00    +0.000 C 
ATOM      2  O   UNL     1      -0.606   9.431  17.815  0.00  0.00    +0.000 OA
ATOM      3  N   UNL     1       0.401  10.558  19.574  0.00  0.00    +0.000 N 
ATOM      4  C   UNL     1       1.031   9.396  19.997  0.00  0.00    +0.000 A 
ATOM      5  C   UNL     1       1.827   8.559  19.187  0.00  0.00    +0.000 A 
ATOM      6  C   UNL     1       2.075   7.425  19.936  0.00  0.00    +0.000 A 
ATOM      7  N   UNL     1       1.467   7.676  21.140  0.00  0.00    +0.000 N 
ATOM      8  N   UNL     1       0.941   8.922  21.237  0.00  0.00    +0.000 NA
ATOM      9  H   UNL     1       0.136  11.184  20.320  0.00  0.00    +0.000 HD
ATOM     10  H   UNL     1       1.370   7.049  21.933  0.00  0.00    +0.000 HD
ENDROOT
BRANCH   6  11
ATOM     11  C   UNL     1       2.804   6.152  19.571  0.00  0.00    +0.000 C 
ATOM     12  C   UNL     1       2.520   5.016  20.579  0.00  0.00    +0.000 C 
ATOM     13  C   UNL     1       1.141   4.360  20.476  0.00  0.00    +0.000 C 
ATOM     14  C   UNL     1       1.072   3.206  19.480  0.00  0.00    +0.000 C 
ATOM     15  C   UNL     1       1.280   3.582  18.017  0.00  0.00    +0.000 C 
ATOM     16  C   UNL     1       2.585   4.319  17.710  0.00  0.00    +0.000 C 
ATOM     17  C   UNL     1       2.535   5.795  18.091  0.00  0.00    +0.000 C 
ENDBRANCH   6  11
BRANCH   1  18
ATOM     18  C   UNL     1      -1.094  11.756  18.011  0.00  0.00    +0.000 C 
BRANCH  18  25
ATOM     19  C   UNL     1      -3.550  12.482  20.112  0.00  0.00    +0.000 C 
ATOM     20  C   UNL     1      -3.617  11.954  18.737  0.00  0.00    +0.000 A 
ATOM     21  N   UNL     1      -4.820  11.666  18.226  0.00  0.00    +0.000 NA
ATOM     22  O   UNL     1      -4.601  11.182  16.965  0.00  0.00    +0.000 OA
ATOM     23  C   UNL     1      -3.270  11.168  16.697  0.00  0.00    +0.000 A 
ATOM     24  C   UNL     1      -2.950  10.635  15.358  0.00  0.00    +0.000 C 
ATOM     25  C   UNL     1      -2.571  11.653  17.795  0.00  0.00    +0.000 A 
ENDBRANCH  18  25
ENDBRANCH   1  18
TORSDOF 3
ENDMDL
MODEL 3
REMARK VINA RESULT:      -7.7      3.752      8.563
REMARK  Name = 
REMARK  5 active torsions:
REMARK  status: ('A' for Active; 'I' for Inactive)
REMARK    1  A    between atoms: C_1  and  C_2
REMARK    2  A    between atoms: C_5  and  C_6
REMARK    3  A    between atoms: C_7  and  C_8
REMARK    4  A    between atoms: C_8  and  C_9
REMARK    5  A    between atoms: C_14  and  C_15
REMARK                            x       y       z     vdW  Elec       q    Type
REMARK                         _______ _______ _______ _____ _____    ______ ____
ROOT
ATOM      1  C   UNL     1       3.155   5.577  17.839  0.00  0.00    +0.000 C 
ATOM      2  O   UNL     1       1.978   5.339  18.157  0.00  0.00    +0.000 OA
ATOM      3  N   UNL     1       3.692   6.848  17.749  0.00  0.00    +0.000 N 
ATOM      4  C   UNL     1       2.851   7.920  18.018  0.00  0.00    +0.000 A 
ATOM      5  C   UNL     1       2.077   8.076  19.187  0.00  0.00    +0.000 A 
ATOM      6  C   UNL     1       1.243   9.151  18.953  0.00  0.00    +0.000 A 
ATOM      7  N   UNL     1       1.602   9.592  17.705  0.00  0.00    +0.000 N 
ATOM      8  N   UNL     1       2.666   8.935  17.179  0.00  0.00    +0.000 NA
ATOM      9  H   UNL     1       4.385   7.029  17.039  0.00  0.00    +0.000 HD
ATOM     10  H   UNL     1       1.169  10.326  17.153  0.00  0.00    +0.000 HD
ENDROOT
BRANCH   6  11
ATOM     11  C   UNL     1       0.143   9.741  19.807  0.00  0.00    +0.000 C 
ATOM     12  C   UNL     1       0.704  10.652  20.920  0.00  0.00    +0.000 C 
ATOM     13  C   UNL     1       1.211  12.024  20.470  0.00  0.00    +0.000 C 
ATOM     14  C   UNL     1       0.132  13.104  20.422  0.00  0.00    +0.000 C 
ATOM     15  C   UNL     1      -0.970  12.892  19.390  0.00  0.00    +0.000 C 
ATOM     16  C   UNL     1      -1.717  11.562  19.493  0.00  0.00    +0.000 C 
ATOM     17  C   UNL     1      -0.930  10.394  18.905  0.00  0.00    +0.000 C 
ENDBRANCH   6  11
BRANCH   1  18
ATOM     18  C   UNL     1       4.090   4.417  17.545  0.00  0.00    +0.000 C 
BRANCH  18  25
ATOM     19  C   UNL     1       5.466   4.385  14.532  0.00  0.00    +0.000 C 
ATOM     20  C   UNL     1       6.059   4.758  15.830  0.00  0.00    +0.000 A 
ATOM     21  N   UNL     1       7.352   5.101  15.863  0.00  0.00    +0.000 NA
ATOM     22  O   UNL     1       7.648   5.377  17.170  0.00  0.00    +0.000 OA
ATOM     23  C   UNL     1       6.545   5.204  17.942  0.00  0.00    +0.000 A 
ATOM     24  C   UNL     1       6.792   5.463  19.375  0.00  0.00    +0.000 C 
ATOM     25  C   UNL     1       5.480   4.804  17.147  0.00  0.00    +0.000 A 
ENDBRANCH  18  25
ENDBRANCH   1  18
TORSDOF 3
ENDMDL
MODEL 4
REMARK VINA RESULT:      -7.7      3.405      4.306
REMARK  Name = 
REMARK  5 active torsions:
REMARK  status: ('A' for Active; 'I' for Inactive)
REMARK    1  A    between atoms: C_1  and  C_2
REMARK    2  A    between atoms: C_5  and  C_6
REMARK    3  A    between atoms: C_7  and  C_8
REMARK    4  A    between atoms: C_8  and  C_9
REMARK    5  A    between atoms: C_14  and  C_15
REMARK                            x       y       z     vdW  Elec       q    Type
REMARK                         _______ _______ _______ _____ _____    ______ ____
ROOT
ATOM      1  C   UNL     1       1.394   9.348  18.782  0.00  0.00    +0.000 C 
ATOM      2  O   UNL     1       1.353   8.661  19.816  0.00  0.00    +0.000 OA
ATOM      3  N   UNL     1       2.107   8.999  17.649  0.00  0.00    +0.000 N 
ATOM      4  C   UNL     1       2.830   7.814  17.685  0.00  0.00    +0.000 A 
ATOM      5  C   UNL     1       2.307   6.550  18.030  0.00  0.00    +0.000 A 
ATOM      6  C   UNL     1       3.393   5.705  18.143  0.00  0.00    +0.000 A 
ATOM      7  N   UNL     1       4.469   6.491  17.814  0.00  0.00    +0.000 N 
ATOM      8  N   UNL     1       4.128   7.739  17.407  0.00  0.00    +0.000 NA
ATOM      9  H   UNL     1       2.534   9.732  17.104  0.00  0.00    +0.000 HD
ATOM     10  H   UNL     1       5.454   6.247  17.846  0.00  0.00    +0.000 HD
ENDROOT
BRANCH   6  11
ATOM     11  C   UNL     1       3.465   4.254  18.562  0.00  0.00    +0.000 C 
ATOM     12  C   UNL     1       3.313   4.086  20.089  0.00  0.00    +0.000 C 
ATOM     13  C   UNL     1       1.898   4.268  20.644  0.00  0.00    +0.000 C 
ATOM     14  C   UNL     1       1.055   2.995  20.633  0.00  0.00    +0.000 C 
ATOM     15  C   UNL     1       0.715   2.439  19.255  0.00  0.00    +0.000 C 
ATOM     16  C   UNL     1       1.914   2.151  18.351  0.00  0.00    +0.000 C 
ATOM     17  C   UNL     1       2.487   3.411  17.710  0.00  0.00    +0.000 C 
ENDBRANCH   6  11
BRANCH   1  18
ATOM     18  C   UNL     1       0.606  10.644  18.723  0.00  0.00    +0.000 C 
BRANCH  18  25
ATOM     19  C   UNL     1      -0.275  11.244  21.859  0.00  0.00    +0.000 C 
ATOM     20  C   UNL     1       0.669  11.975  20.994  0.00  0.00    +0.000 A 
ATOM     21  N   UNL     1       1.253  13.077  21.480  0.00  0.00    +0.000 NA
ATOM     22  O   UNL     1       2.054  13.565  20.484  0.00  0.00    +0.000 OA
ATOM     23  C   UNL     1       1.964  12.771  19.386  0.00  0.00    +0.000 A 
ATOM     24  C   UNL     1       2.785  13.247  18.255  0.00  0.00    +0.000 C 
ATOM     25  C   UNL     1       1.088  11.724  19.640  0.00  0.00    +0.000 A 
ENDBRANCH  18  25
ENDBRANCH   1  18
TORSDOF 3
ENDMDL
MODEL 5
REMARK VINA RESULT:      -7.7      3.396      4.119
REMARK  Name = 
REMARK  5 active torsions:
REMARK  status: ('A' for Active; 'I' for Inactive)
REMARK    1  A    between atoms: C_1  and  C_2
REMARK    2  A    between atoms: C_5  and  C_6
REMARK    3  A    between atoms: C_7  and  C_8
REMARK    4  A    between atoms: C_8  and  C_9
REMARK    5  A    between atoms: C_14  and  C_15
REMARK                            x       y       z     vdW  Elec       q    Type
REMARK                         _______ _______ _______ _____ _____    ______ ____
ROOT
ATOM      1  C   UNL     1       1.382   9.361  18.762  0.00  0.00    +0.000 C 
ATOM      2  O   UNL     1       1.322   8.670  19.793  0.00  0.00    +0.000 OA
ATOM      3  N   UNL     1       2.113   9.016  17.640  0.00  0.00    +0.000 N 
ATOM      4  C   UNL     1       2.833   7.830  17.682  0.00  0.00    +0.000 A 
ATOM      5  C   UNL     1       2.303   6.566  18.013  0.00  0.00    +0.000 A 
ATOM      6  C   UNL     1       3.385   5.718  18.140  0.00  0.00    +0.000 A 
ATOM      7  N   UNL     1       4.467   6.504  17.832  0.00  0.00    +0.000 N 
ATOM      8  N   UNL     1       4.136   7.754  17.426  0.00  0.00    +0.000 NA
ATOM      9  H   UNL     1       2.550   9.751  17.106  0.00  0.00    +0.000 HD
ATOM     10  H   UNL     1       5.452   6.258  17.880  0.00  0.00    +0.000 HD
ENDROOT
BRANCH   6  11
ATOM     11  C   UNL     1       3.448   4.265  18.553  0.00  0.00    +0.000 C 
ATOM     12  C   UNL     1       3.427   4.100  20.088  0.00  0.00    +0.000 C 
ATOM     13  C   UNL     1       2.074   4.326  20.767  0.00  0.00    +0.000 C 
ATOM     14  C   UNL     1       1.193   3.081  20.834  0.00  0.00    +0.000 C 
ATOM     15  C   UNL     1       0.714   2.538  19.493  0.00  0.00    +0.000 C 
ATOM     16  C   UNL     1       1.817   2.213  18.485  0.00  0.00    +0.000 C 
ATOM     17  C   UNL     1       2.371   3.455  17.793  0.00  0.00    +0.000 C 
ENDBRANCH   6  11
BRANCH   1  18
ATOM     18  C   UNL     1       0.597  10.659  18.696  0.00  0.00    +0.000 C 
BRANCH  18  25
ATOM     19  C   UNL     1       2.823  13.078  18.286  0.00  0.00    +0.000 C 
ATOM     20  C   UNL     1       2.015  12.739  19.471  0.00  0.00    +0.000 A 
ATOM     21  N   UNL     1       2.197  13.452  20.589  0.00  0.00    +0.000 NA
ATOM     22  O   UNL     1       1.351  12.927  21.527  0.00  0.00    +0.000 OA
ATOM     23  C   UNL     1       0.651  11.893  20.995  0.00  0.00    +0.000 A 
ATOM     24  C   UNL     1      -0.271  11.257  21.957  0.00  0.00    +0.000 C 
ATOM     25  C   UNL     1       1.026  11.712  19.670  0.00  0.00    +0.000 A 
ENDBRANCH  18  25
ENDBRANCH   1  18
TORSDOF 3
ENDMDL
MODEL 6
REMARK VINA RESULT:      -7.6      1.011      1.889
REMARK  Name = 
REMARK  5 active torsions:
REMARK  status: ('A' for Active; 'I' for Inactive)
REMARK    1  A    between atoms: C_1  and  C_2
REMARK    2  A    between atoms: C_5  and  C_6
REMARK    3  A    between atoms: C_7  and  C_8
REMARK    4  A    between atoms: C_8  and  C_9
REMARK    5  A    between atoms: C_14  and  C_15
REMARK                            x       y       z     vdW  Elec       q    Type
REMARK                         _______ _______ _______ _____ _____    ______ ____
ROOT
ATOM      1  C   UNL     1      -0.531  10.547  18.601  0.00  0.00    +0.000 C 
ATOM      2  O   UNL     1      -0.724   9.505  17.952  0.00  0.00    +0.000 OA
ATOM      3  N   UNL     1       0.316  10.635  19.690  0.00  0.00    +0.000 N 
ATOM      4  C   UNL     1       0.977   9.480  20.085  0.00  0.00    +0.000 A 
ATOM      5  C   UNL     1       1.761   8.661  19.245  0.00  0.00    +0.000 A 
ATOM      6  C   UNL     1       2.048   7.527  19.976  0.00  0.00    +0.000 A 
ATOM      7  N   UNL     1       1.473   7.758  21.200  0.00  0.00    +0.000 N 
ATOM      8  N   UNL     1       0.931   8.995  21.323  0.00  0.00    +0.000 NA
ATOM      9  H   UNL     1       0.064  11.251  20.448  0.00  0.00    +0.000 HD
ATOM     10  H   UNL     1       1.409   7.124  21.991  0.00  0.00    +0.000 HD
ENDROOT
BRANCH   6  11
ATOM     11  C   UNL     1       2.786   6.267  19.581  0.00  0.00    +0.000 C 
ATOM     12  C   UNL     1       2.520   5.109  20.566  0.00  0.00    +0.000 C 
ATOM     13  C   UNL     1       1.146   4.443  20.460  0.00  0.00    +0.000 C 
ATOM     14  C   UNL     1       1.079   3.309  19.440  0.00  0.00    +0.000 C 
ATOM     15  C   UNL     1       1.274   3.717  17.984  0.00  0.00    +0.000 C 
ATOM     16  C   UNL     1       2.569   4.471  17.683  0.00  0.00    +0.000 C 
ATOM     17  C   UNL     1       2.509   5.939  18.095  0.00  0.00    +0.000 C 
ENDBRANCH   6  11
BRANCH   1  18
ATOM     18  C   UNL     1      -1.242  11.821  18.181  0.00  0.00    +0.000 C 
BRANCH  18  25
ATOM     19  C   UNL     1      -2.050  13.191  21.087  0.00  0.00    +0.000 C 
ATOM     20  C   UNL     1      -2.921  12.597  20.056  0.00  0.00    +0.000 A 
ATOM     21  N   UNL     1      -4.236  12.535  20.295  0.00  0.00    +0.000 NA
ATOM     22  O   UNL     1      -4.801  11.932  19.204  0.00  0.00    +0.000 OA
ATOM     23  C   UNL     1      -3.841  11.619  18.297  0.00  0.00    +0.000 A 
ATOM     24  C   UNL     1      -4.372  10.942  17.098  0.00  0.00    +0.000 C 
ATOM     25  C   UNL     1      -2.601  12.018  18.778  0.00  0.00    +0.000 A 
ENDBRANCH  18  25
ENDBRANCH   1  18
TORSDOF 3
ENDMDL
MODEL 7
REMARK VINA RESULT:      -7.6      3.659      8.688
REMARK  Name = 
REMARK  5 active torsions:
REMARK  status: ('A' for Active; 'I' for Inactive)
REMARK    1  A    between atoms: C_1  and  C_2
REMARK    2  A    between atoms: C_5  and  C_6
REMARK    3  A    between atoms: C_7  and  C_8
REMARK    4  A    between atoms: C_8  and  C_9
REMARK    5  A    between atoms: C_14  and  C_15
REMARK                            x       y       z     vdW  Elec       q    Type
REMARK                         _______ _______ _______ _____ _____    ______ ____
ROOT
ATOM      1  C   UNL     1       3.120   5.513  17.822  0.00  0.00    +0.000 C 
ATOM      2  O   UNL     1       1.939   5.301  18.139  0.00  0.00    +0.000 OA
ATOM      3  N   UNL     1       3.684   6.772  17.733  0.00  0.00    +0.000 N 
ATOM      4  C   UNL     1       2.867   7.862  18.002  0.00  0.00    +0.000 A 
ATOM      5  C   UNL     1       2.096   8.034  19.170  0.00  0.00    +0.000 A 
ATOM      6  C   UNL     1       1.285   9.127  18.936  0.00  0.00    +0.000 A 
ATOM      7  N   UNL     1       1.654   9.561  17.688  0.00  0.00    +0.000 N 
ATOM      8  N   UNL     1       2.704   8.881  17.163  0.00  0.00    +0.000 NA
ATOM      9  H   UNL     1       4.382   6.939  17.023  0.00  0.00    +0.000 HD
ATOM     10  H   UNL     1       1.237  10.304  17.136  0.00  0.00    +0.000 HD
ENDROOT
BRANCH   6  11
ATOM     11  C   UNL     1       0.198   9.740  19.789  0.00  0.00    +0.000 C 
ATOM     12  C   UNL     1       0.772  10.703  20.851  0.00  0.00    +0.000 C 
ATOM     13  C   UNL     1       1.253  12.061  20.333  0.00  0.00    +0.000 C 
ATOM     14  C   UNL     1       0.161  13.125  20.265  0.00  0.00    +0.000 C 
ATOM     15  C   UNL     1      -0.961  12.859  19.268  0.00  0.00    +0.000 C 
ATOM     16  C   UNL     1      -1.690  11.526  19.443  0.00  0.00    +0.000 C 
ATOM     17  C   UNL     1      -0.903  10.343  18.886  0.00  0.00    +0.000 C 
ENDBRANCH   6  11
BRANCH   1  18
ATOM     18  C   UNL     1       4.030   4.333  17.528  0.00  0.00    +0.000 C 
BRANCH  18  25
ATOM     19  C   UNL     1       6.560   5.412  19.374  0.00  0.00    +0.000 C 
ATOM     20  C   UNL     1       6.493   5.181  17.920  0.00  0.00    +0.000 A 
ATOM     21  N   UNL     1       7.568   5.475  17.180  0.00  0.00    +0.000 NA
ATOM     22  O   UNL     1       7.237   5.190  15.883  0.00  0.00    +0.000 OA
ATOM     23  C   UNL     1       5.963   4.726  15.820  0.00  0.00    +0.000 A 
ATOM     24  C   UNL     1       5.523   4.417  14.445  0.00  0.00    +0.000 C 
ATOM     25  C   UNL     1       5.418   4.692  17.096  0.00  0.00    +0.000 A 
ENDBRANCH  18  25
ENDBRANCH   1  18
TORSDOF 3
ENDMDL
MODEL 8
REMARK VINA RESULT:      -7.5      3.045      4.070
REMARK  Name = 
REMARK  5 active torsions:
REMARK  status: ('A' for Active; 'I' for Inactive)
REMARK    1  A    between atoms: C_1  and  C_2
REMARK    2  A    between atoms: C_5  and  C_6
REMARK    3  A    between atoms: C_7  and  C_8
REMARK    4  A    between atoms: C_8  and  C_9
REMARK    5  A    between atoms: C_14  and  C_15
REMARK                            x       y       z     vdW  Elec       q    Type
REMARK                         _______ _______ _______ _____ _____    ______ ____
ROOT
ATOM      1  C   UNL     1       0.669  10.007  19.358  0.00  0.00    +0.000 C 
ATOM      2  O   UNL     1       0.949   9.296  20.337  0.00  0.00    +0.000 OA
ATOM      3  N   UNL     1       1.108   9.760  18.070  0.00  0.00    +0.000 N 
ATOM      4  C   UNL     1       1.923   8.653  17.872  0.00  0.00    +0.000 A 
ATOM      5  C   UNL     1       1.621   7.335  18.273  0.00  0.00    +0.000 A 
ATOM      6  C   UNL     1       2.774   6.602  18.077  0.00  0.00    +0.000 A 
ATOM      7  N   UNL     1       3.657   7.500  17.532  0.00  0.00    +0.000 N 
ATOM      8  N   UNL     1       3.113   8.716  17.281  0.00  0.00    +0.000 NA
ATOM      9  H   UNL     1       1.317  10.545  17.473  0.00  0.00    +0.000 HD
ATOM     10  H   UNL     1       4.638   7.355  17.311  0.00  0.00    +0.000 HD
ENDROOT
BRANCH   6  11
ATOM     11  C   UNL     1       3.080   5.156  18.395  0.00  0.00    +0.000 C 
ATOM     12  C   UNL     1       3.302   4.932  19.907  0.00  0.00    +0.000 C 
ATOM     13  C   UNL     1       2.044   4.949  20.777  0.00  0.00    +0.000 C 
ATOM     14  C   UNL     1       1.348   3.595  20.895  0.00  0.00    +0.000 C 
ATOM     15  C   UNL     1       0.753   3.043  19.605  0.00  0.00    +0.000 C 
ATOM     16  C   UNL     1       1.732   2.907  18.438  0.00  0.00    +0.000 C 
ATOM     17  C   UNL     1       2.018   4.237  17.747  0.00  0.00    +0.000 C 
ENDBRANCH   6  11
BRANCH   1  18
ATOM     18  C   UNL     1      -0.224  11.219  19.556  0.00  0.00    +0.000 C 
BRANCH  18  25
ATOM     19  C   UNL     1      -1.633  12.002  22.450  0.00  0.00    +0.000 C 
ATOM     20  C   UNL     1      -0.403  12.531  21.832  0.00  0.00    +0.000 A 
ATOM     21  N   UNL     1       0.260  13.503  22.469  0.00  0.00    +0.000 NA
ATOM     22  O   UNL     1       1.335  13.820  21.684  0.00  0.00    +0.000 OA
ATOM     23  C   UNL     1       1.336  13.050  20.566  0.00  0.00    +0.000 A 
ATOM     24  C   UNL     1       2.457  13.350  19.654  0.00  0.00    +0.000 C 
ATOM     25  C   UNL     1       0.244  12.193  20.591  0.00  0.00    +0.000 A 
ENDBRANCH  18  25
ENDBRANCH   1  18
TORSDOF 3
ENDMDL
MODEL 9
REMARK VINA RESULT:      -7.4      2.207      3.296
REMARK  Name = 
REMARK  5 active torsions:
REMARK  status: ('A' for Active; 'I' for Inactive)
REMARK    1  A    between atoms: C_1  and  C_2
REMARK    2  A    between atoms: C_5  and  C_6
REMARK    3  A    between atoms: C_7  and  C_8
REMARK    4  A    between atoms: C_8  and  C_9
REMARK    5  A    between atoms: C_14  and  C_15
REMARK                            x       y       z     vdW  Elec       q    Type
REMARK                         _______ _______ _______ _____ _____    ______ ____
ROOT
ATOM      1  C   UNL     1       1.070   9.148  20.038  0.00  0.00    +0.000 C 
ATOM      2  O   UNL     1       1.454   8.310  20.870  0.00  0.00    +0.000 OA
ATOM      3  N   UNL     1       1.403   9.117  18.697  0.00  0.00    +0.000 N 
ATOM      4  C   UNL     1       2.230   8.089  18.264  0.00  0.00    +0.000 A 
ATOM      5  C   UNL     1       2.002   6.714  18.480  0.00  0.00    +0.000 A 
ATOM      6  C   UNL     1       3.155   6.068  18.081  0.00  0.00    +0.000 A 
ATOM      7  N   UNL     1       3.962   7.074  17.612  0.00  0.00    +0.000 N 
ATOM      8  N   UNL     1       3.363   8.290  17.596  0.00  0.00    +0.000 NA
ATOM      9  H   UNL     1       1.537   9.992  18.213  0.00  0.00    +0.000 HD
ATOM     10  H   UNL     1       4.923   7.007  17.292  0.00  0.00    +0.000 HD
ENDROOT
BRANCH   6  11
ATOM     11  C   UNL     1       3.530   4.604  18.146  0.00  0.00    +0.000 C 
ATOM     12  C   UNL     1       3.756   4.131  19.598  0.00  0.00    +0.000 C 
ATOM     13  C   UNL     1       2.494   3.936  20.442  0.00  0.00    +0.000 C 
ATOM     14  C   UNL     1       1.865   2.552  20.314  0.00  0.00    +0.000 C 
ATOM     15  C   UNL     1       1.304   2.205  18.939  0.00  0.00    +0.000 C 
ATOM     16  C   UNL     1       2.293   2.322  17.779  0.00  0.00    +0.000 C 
ATOM     17  C   UNL     1       2.517   3.764  17.334  0.00  0.00    +0.000 C 
ENDBRANCH   6  11
BRANCH   1  18
ATOM     18  C   UNL     1       0.162  10.278  20.492  0.00  0.00    +0.000 C 
BRANCH  18  25
ATOM     19  C   UNL     1       1.360  13.309  19.903  0.00  0.00    +0.000 C 
ATOM     20  C   UNL     1       0.292  12.571  19.204  0.00  0.00    +0.000 A 
ATOM     21  N   UNL     1      -0.353  13.183  18.204  0.00  0.00    +0.000 NA
ATOM     22  O   UNL     1      -1.292  12.298  17.749  0.00  0.00    +0.000 OA
ATOM     23  C   UNL     1      -1.230  11.146  18.464  0.00  0.00    +0.000 A 
ATOM     24  C   UNL     1      -2.233  10.146  18.045  0.00  0.00    +0.000 C 
ATOM     25  C   UNL     1      -0.231  11.248  19.422  0.00  0.00    +0.000 A 
ENDBRANCH  18  25
ENDBRANCH   1  18
TORSDOF 3
ENDMDL
