MODEL 1
REMARK VINA RESULT:      -7.4      0.000      0.000
REMARK  Name = 
REMARK  6 active torsions:
REMARK  status: ('A' for Active; 'I' for Inactive)
REMARK    1  A    between atoms: C_1  and  C_2
REMARK    2  A    between atoms: C_5  and  C_6
REMARK    3  A    between atoms: C_7  and  N_8
REMARK    4  A    between atoms: C_11  and  C_12
REMARK    5  A    between atoms: N_14  and  C_15
REMARK    6  A    between atoms: C_15  and  C_16
REMARK                            x       y       z     vdW  Elec       q    Type
REMARK                         _______ _______ _______ _____ _____    ______ ____
ROOT
ATOM      1  N   UNL     1       4.639   5.668  18.528  0.00  0.00    +0.000 N 
ATOM      2  C   UNL     1       6.036   5.363  18.823  0.00  0.00    +0.000 C 
ATOM      3  C   UNL     1       6.873   6.407  18.058  0.00  0.00    +0.000 C 
ATOM      4  C   UNL     1       6.533   6.453  16.554  0.00  0.00    +0.000 C 
ATOM      5  C   UNL     1       5.009   6.506  16.321  0.00  0.00    +0.000 C 
ATOM      6  C   UNL     1       4.296   5.419  17.126  0.00  0.00    +0.000 C 
ENDROOT
BRANCH   1  13
ATOM      7  C   UNL     1       2.791   2.248  21.406  0.00  0.00    +0.000 C 
ATOM      8  C   UNL     1       2.730   3.615  20.795  0.00  0.00    +0.000 A 
ATOM      9  C   UNL     1       1.628   4.431  21.013  0.00  0.00    +0.000 A 
ATOM     10  N   UNL     1       1.505   5.658  20.474  0.00  0.00    +0.000 NA
ATOM     11  C   UNL     1       2.531   6.044  19.671  0.00  0.00    +0.000 A 
ATOM     12  C   UNL     1       2.417   7.421  19.078  0.00  0.00    +0.000 C 
ATOM     13  C   UNL     1       3.657   5.223  19.416  0.00  0.00    +0.000 A 
ATOM     14  N   UNL     1       3.769   4.009  20.008  0.00  0.00    +0.000 NA
ENDBRANCH   1  13
BRANCH   4  15
ATOM     15  C   UNL     1       7.129   5.274  15.798  0.00  0.00    +0.000 C 
ATOM     16  O   UNL     1       7.749   4.366  16.356  0.00  0.00    +0.000 OA
ATOM     17  N   UNL     1       6.915   5.279  14.442  0.00  0.00    +0.000 N 
ATOM     18  H   UNL     1       6.170   5.846  14.057  0.00  0.00    +0.000 HD
BRANCH  17  19
ATOM     19  C   UNL     1       7.378   4.166  13.641  0.00  0.00    +0.000 C 
BRANCH  19  20
ATOM     20  C   UNL     1       6.262   3.646  12.825  0.00  0.00    +0.000 A 
ATOM     21  C   UNL     1       4.937   4.015  12.702  0.00  0.00    +0.000 A 
ATOM     22  C   UNL     1       4.377   3.165  11.722  0.00  0.00    +0.000 A 
ATOM     23  C   UNL     1       5.387   2.330  11.313  0.00  0.00    +0.000 A 
ATOM     24  O   UNL     1       6.541   2.611  11.979  0.00  0.00    +0.000 OA
ENDBRANCH  19  20
ENDBRANCH  17  19
ENDBRANCH   4  15
TORSDOF 4
ENDMDL
MODEL 2
REMARK VINA RESULT:      -7.1      3.563      6.301
REMARK  Name = 
REMARK  6 active torsions:
REMARK  status: ('A' for Active; 'I' for Inactive)
REMARK    1  A    between atoms: C_1  and  C_2
REMARK    2  A    between atoms: C_5  and  C_6
REMARK    3  A    between atoms: C_7  and  N_8
REMARK    4  A    between atoms: C_11  and  C_12
REMARK    5  A    between atoms: N_14  and  C_15
REMARK    6  A    between atoms: C_15  and  C_16
REMARK                            x       y       z     vdW  Elec       q    Type
REMARK                         _______ _______ _______ _____ _____    ______ ____
ROOT
ATOM      1  N   UNL     1       5.337   4.311  18.430  0.00  0.00    +0.000 N 
ATOM      2  C   UNL     1       5.963   4.443  17.118  0.00  0.00    +0.000 C 
ATOM      3  C   UNL     1       7.477   4.564  17.376  0.00  0.00    +0.000 C 
ATOM      4  C   UNL     1       7.822   5.698  18.364  0.00  0.00    +0.000 C 
ATOM      5  C   UNL     1       6.924   5.646  19.617  0.00  0.00    +0.000 C 
ATOM      6  C   UNL     1       5.450   5.535  19.229  0.00  0.00    +0.000 C 
ENDROOT
BRANCH   1  13
ATOM      7  C   UNL     1       0.663   4.172  17.194  0.00  0.00    +0.000 C 
ATOM      8  C   UNL     1       1.829   3.624  17.957  0.00  0.00    +0.000 A 
ATOM      9  C   UNL     1       1.650   2.580  18.855  0.00  0.00    +0.000 A 
ATOM     10  N   UNL     1       2.654   2.058  19.585  0.00  0.00    +0.000 NA
ATOM     11  C   UNL     1       3.867   2.645  19.405  0.00  0.00    +0.000 A 
ATOM     12  C   UNL     1       5.002   2.059  20.199  0.00  0.00    +0.000 C 
ATOM     13  C   UNL     1       4.073   3.724  18.510  0.00  0.00    +0.000 A 
ATOM     14  N   UNL     1       3.048   4.197  17.760  0.00  0.00    +0.000 NA
ENDBRANCH   1  13
BRANCH   4  15
ATOM     15  C   UNL     1       7.721   7.070  17.715  0.00  0.00    +0.000 C 
ATOM     16  O   UNL     1       7.128   7.267  16.651  0.00  0.00    +0.000 OA
ATOM     17  N   UNL     1       8.326   8.092  18.406  0.00  0.00    +0.000 N 
ATOM     18  H   UNL     1       8.533   7.973  19.390  0.00  0.00    +0.000 HD
BRANCH  17  19
ATOM     19  C   UNL     1       8.226   9.448  17.911  0.00  0.00    +0.000 C 
BRANCH  19  20
ATOM     20  C   UNL     1       9.158  10.316  18.658  0.00  0.00    +0.000 A 
ATOM     21  C   UNL     1       9.350  10.548  20.006  0.00  0.00    +0.000 A 
ATOM     22  C   UNL     1      10.430  11.454  20.104  0.00  0.00    +0.000 A 
ATOM     23  C   UNL     1      10.825  11.723  18.817  0.00  0.00    +0.000 A 
ATOM     24  O   UNL     1      10.057  11.037  17.926  0.00  0.00    +0.000 OA
ENDBRANCH  19  20
ENDBRANCH  17  19
ENDBRANCH   4  15
TORSDOF 4
ENDMDL
MODEL 3
REMARK VINA RESULT:      -6.9      2.793      7.198
REMARK  Name = 
REMARK  6 active torsions:
REMARK  status: ('A' for Active; 'I' for Inactive)
REMARK    1  A    between atoms: C_1  and  C_2
REMARK    2  A    between atoms: C_5  and  C_6
REMARK    3  A    between atoms: C_7  and  N_8
REMARK    4  A    between atoms: C_11  and  C_12
REMARK    5  A    between atoms: N_14  and  C_15
REMARK    6  A    between atoms: C_15  and  C_16
REMARK                            x       y       z     vdW  Elec       q    Type
REMARK                         _______ _______ _______ _____ _____    ______ ____
ROOT
ATOM      1  N   UNL     1       5.234   4.331  17.206  0.00  0.00    +0.000 N 
ATOM      2  C   UNL     1       5.319   5.389  18.209  0.00  0.00    +0.000 C 
ATOM      3  C   UNL     1       5.071   4.710  19.570  0.00  0.00    +0.000 C 
ATOM      4  C   UNL     1       3.754   3.905  19.600  0.00  0.00    +0.000 C 
ATOM      5  C   UNL     1       3.617   3.001  18.358  0.00  0.00    +0.000 C 
ATOM      6  C   UNL     1       3.878   3.792  17.075  0.00  0.00    +0.000 C 
ENDROOT
BRANCH   1  13
ATOM      7  C   UNL     1       5.690   3.333  12.496  0.00  0.00    +0.000 C 
ATOM      8  C   UNL     1       6.126   4.074  13.722  0.00  0.00    +0.000 A 
ATOM      9  C   UNL     1       7.247   4.893  13.684  0.00  0.00    +0.000 A 
ATOM     10  N   UNL     1       7.701   5.567  14.758  0.00  0.00    +0.000 NA
ATOM     11  C   UNL     1       6.998   5.372  15.904  0.00  0.00    +0.000 A 
ATOM     12  C   UNL     1       7.481   6.134  17.107  0.00  0.00    +0.000 C 
ATOM     13  C   UNL     1       5.863   4.527  15.975  0.00  0.00    +0.000 A 
ATOM     14  N   UNL     1       5.408   3.895  14.865  0.00  0.00    +0.000 NA
ENDBRANCH   1  13
BRANCH   4  15
ATOM     15  C   UNL     1       2.536   4.810  19.716  0.00  0.00    +0.000 C 
ATOM     16  O   UNL     1       1.407   4.463  19.362  0.00  0.00    +0.000 OA
ATOM     17  N   UNL     1       2.775   6.047  20.264  0.00  0.00    +0.000 N 
ATOM     18  H   UNL     1       3.613   6.196  20.811  0.00  0.00    +0.000 HD
BRANCH  17  19
ATOM     19  C   UNL     1       1.671   6.956  20.485  0.00  0.00    +0.000 C 
BRANCH  19  20
ATOM     20  C   UNL     1       1.736   8.059  19.504  0.00  0.00    +0.000 A 
ATOM     21  C   UNL     1       2.263   8.155  18.231  0.00  0.00    +0.000 A 
ATOM     22  C   UNL     1       1.974   9.462  17.778  0.00  0.00    +0.000 A 
ATOM     23  C   UNL     1       1.297  10.082  18.799  0.00  0.00    +0.000 A 
ATOM     24  O   UNL     1       1.148   9.240  19.857  0.00  0.00    +0.000 OA
ENDBRANCH  19  20
ENDBRANCH  17  19
ENDBRANCH   4  15
TORSDOF 4
ENDMDL
MODEL 4
REMARK VINA RESULT:      -6.9      1.443      3.022
REMARK  Name = 
REMARK  6 active torsions:
REMARK  status: ('A' for Active; 'I' for Inactive)
REMARK    1  A    between atoms: C_1  and  C_2
REMARK    2  A    between atoms: C_5  and  C_6
REMARK    3  A    between atoms: C_7  and  N_8
REMARK    4  A    between atoms: C_11  and  C_12
REMARK    5  A    between atoms: N_14  and  C_15
REMARK    6  A    between atoms: C_15  and  C_16
REMARK                            x       y       z     vdW  Elec       q    Type
REMARK                         _______ _______ _______ _____ _____    ______ ____
ROOT
ATOM      1  N   UNL     1       4.006   5.790  18.378  0.00  0.00    +0.000 N 
ATOM      2  C   UNL     1       3.679   4.960  17.222  0.00  0.00    +0.000 C 
ATOM      3  C   UNL     1       4.639   3.756  17.275  0.00  0.00    +0.000 C 
ATOM      4  C   UNL     1       6.120   4.180  17.358  0.00  0.00    +0.000 C 
ATOM      5  C   UNL     1       6.336   5.265  18.433  0.00  0.00    +0.000 C 
ATOM      6  C   UNL     1       5.331   6.405  18.268  0.00  0.00    +0.000 C 
ENDROOT
BRANCH   1  13
ATOM      7  C   UNL     1       1.646  10.006  18.159  0.00  0.00    +0.000 C 
ATOM      8  C   UNL     1       1.888   8.677  18.805  0.00  0.00    +0.000 A 
ATOM      9  C   UNL     1       1.226   8.337  19.977  0.00  0.00    +0.000 A 
ATOM     10  N   UNL     1       1.418   7.168  20.617  0.00  0.00    +0.000 NA
ATOM     11  C   UNL     1       2.332   6.339  20.048  0.00  0.00    +0.000 A 
ATOM     12  C   UNL     1       2.541   5.021  20.739  0.00  0.00    +0.000 C 
ATOM     13  C   UNL     1       3.036   6.670  18.863  0.00  0.00    +0.000 A 
ATOM     14  N   UNL     1       2.789   7.838  18.222  0.00  0.00    +0.000 NA
ENDBRANCH   1  13
BRANCH   4  15
ATOM     15  C   UNL     1       6.648   4.670  16.017  0.00  0.00    +0.000 C 
ATOM     16  O   UNL     1       7.403   5.640  15.908  0.00  0.00    +0.000 OA
ATOM     17  N   UNL     1       6.239   3.944  14.925  0.00  0.00    +0.000 N 
ATOM     18  H   UNL     1       5.885   3.005  15.056  0.00  0.00    +0.000 HD
BRANCH  17  19
ATOM     19  C   UNL     1       6.743   4.284  13.612  0.00  0.00    +0.000 C 
BRANCH  19  20
ATOM     20  C   UNL     1       6.041   3.479  12.591  0.00  0.00    +0.000 A 
ATOM     21  C   UNL     1       6.412   2.378  11.844  0.00  0.00    +0.000 A 
ATOM     22  C   UNL     1       5.285   2.027  11.067  0.00  0.00    +0.000 A 
ATOM     23  C   UNL     1       4.303   2.934  11.380  0.00  0.00    +0.000 A 
ATOM     24  O   UNL     1       4.751   3.825  12.306  0.00  0.00    +0.000 OA
ENDBRANCH  19  20
ENDBRANCH  17  19
ENDBRANCH   4  15
TORSDOF 4
ENDMDL
MODEL 5
REMARK VINA RESULT:      -6.8      3.386      5.801
REMARK  Name = 
REMARK  6 active torsions:
REMARK  status: ('A' for Active; 'I' for Inactive)
REMARK    1  A    between atoms: C_1  and  C_2
REMARK    2  A    between atoms: C_5  and  C_6
REMARK    3  A    between atoms: C_7  and  N_8
REMARK    4  A    between atoms: C_11  and  C_12
REMARK    5  A    between atoms: N_14  and  C_15
REMARK    6  A    between atoms: C_15  and  C_16
REMARK                            x       y       z     vdW  Elec       q    Type
REMARK                         _______ _______ _______ _____ _____    ______ ____
ROOT
ATOM      1  N   UNL     1       4.650   4.913  17.999  0.00  0.00    +0.000 N 
ATOM      2  C   UNL     1       4.560   6.370  18.055  0.00  0.00    +0.000 C 
ATOM      3  C   UNL     1       5.437   6.897  16.902  0.00  0.00    +0.000 C 
ATOM      4  C   UNL     1       6.877   6.344  16.952  0.00  0.00    +0.000 C 
ATOM      5  C   UNL     1       6.887   4.817  17.165  0.00  0.00    +0.000 C 
ATOM      6  C   UNL     1       5.989   4.423  18.338  0.00  0.00    +0.000 C 
ENDROOT
BRANCH   1  13
ATOM      7  C   UNL     1       2.171   3.469  21.893  0.00  0.00    +0.000 C 
ATOM      8  C   UNL     1       2.423   3.432  20.417  0.00  0.00    +0.000 A 
ATOM      9  C   UNL     1       1.716   2.553  19.608  0.00  0.00    +0.000 A 
ATOM     10  N   UNL     1       1.912   2.457  18.279  0.00  0.00    +0.000 NA
ATOM     11  C   UNL     1       2.880   3.269  17.777  0.00  0.00    +0.000 A 
ATOM     12  C   UNL     1       3.096   3.188  16.291  0.00  0.00    +0.000 C 
ATOM     13  C   UNL     1       3.630   4.160  18.583  0.00  0.00    +0.000 A 
ATOM     14  N   UNL     1       3.378   4.261  19.911  0.00  0.00    +0.000 NA
ENDBRANCH   1  13
BRANCH   4  15
ATOM     15  C   UNL     1       7.711   7.021  18.030  0.00  0.00    +0.000 C 
ATOM     16  O   UNL     1       8.138   6.424  19.020  0.00  0.00    +0.000 OA
ATOM     17  N   UNL     1       7.975   8.352  17.817  0.00  0.00    +0.000 N 
ATOM     18  H   UNL     1       7.883   8.735  16.884  0.00  0.00    +0.000 HD
BRANCH  17  19
ATOM     19  C   UNL     1       8.820   9.071  18.746  0.00  0.00    +0.000 C 
BRANCH  19  20
ATOM     20  C   UNL     1       8.935  10.480  18.319  0.00  0.00    +0.000 A 
ATOM     21  C   UNL     1       9.950  11.411  18.416  0.00  0.00    +0.000 A 
ATOM     22  C   UNL     1       9.480  12.581  17.778  0.00  0.00    +0.000 A 
ATOM     23  C   UNL     1       8.210  12.296  17.339  0.00  0.00    +0.000 A 
ATOM     24  O   UNL     1       7.865  11.020  17.664  0.00  0.00    +0.000 OA
ENDBRANCH  19  20
ENDBRANCH  17  19
ENDBRANCH   4  15
TORSDOF 4
ENDMDL
MODEL 6
REMARK VINA RESULT:      -6.8      3.082      7.167
REMARK  Name = 
REMARK  6 active torsions:
REMARK  status: ('A' for Active; 'I' for Inactive)
REMARK    1  A    between atoms: C_1  and  C_2
REMARK    2  A    between atoms: C_5  and  C_6
REMARK    3  A    between atoms: C_7  and  N_8
REMARK    4  A    between atoms: C_11  and  C_12
REMARK    5  A    between atoms: N_14  and  C_15
REMARK    6  A    between atoms: C_15  and  C_16
REMARK                            x       y       z     vdW  Elec       q    Type
REMARK                         _______ _______ _______ _____ _____    ______ ____
ROOT
ATOM      1  N   UNL     1       4.534   3.949  17.407  0.00  0.00    +0.000 N 
ATOM      2  C   UNL     1       5.056   3.845  18.766  0.00  0.00    +0.000 C 
ATOM      3  C   UNL     1       4.102   2.897  19.520  0.00  0.00    +0.000 C 
ATOM      4  C   UNL     1       2.629   3.347  19.434  0.00  0.00    +0.000 C 
ATOM      5  C   UNL     1       2.229   3.697  17.987  0.00  0.00    +0.000 C 
ATOM      6  C   UNL     1       3.246   4.648  17.354  0.00  0.00    +0.000 C 
ENDROOT
BRANCH   1  13
ATOM      7  C   UNL     1       6.186   3.511  12.883  0.00  0.00    +0.000 C 
ATOM      8  C   UNL     1       6.236   4.154  14.235  0.00  0.00    +0.000 A 
ATOM      9  C   UNL     1       7.231   5.073  14.538  0.00  0.00    +0.000 A 
ATOM     10  N   UNL     1       7.341   5.667  15.741  0.00  0.00    +0.000 NA
ATOM     11  C   UNL     1       6.418   5.285  16.663  0.00  0.00    +0.000 A 
ATOM     12  C   UNL     1       6.516   5.955  18.005  0.00  0.00    +0.000 C 
ATOM     13  C   UNL     1       5.404   4.335  16.386  0.00  0.00    +0.000 A 
ATOM     14  N   UNL     1       5.297   3.786  15.151  0.00  0.00    +0.000 NA
ENDBRANCH   1  13
BRANCH   4  15
ATOM     15  C   UNL     1       2.339   4.527  20.350  0.00  0.00    +0.000 C 
ATOM     16  O   UNL     1       2.329   4.435  21.580  0.00  0.00    +0.000 OA
ATOM     17  N   UNL     1       2.105   5.721  19.711  0.00  0.00    +0.000 N 
ATOM     18  H   UNL     1       2.410   5.841  18.753  0.00  0.00    +0.000 HD
BRANCH  17  19
ATOM     19  C   UNL     1       1.891   6.920  20.492  0.00  0.00    +0.000 C 
BRANCH  19  20
ATOM     20  C   UNL     1       1.777   8.083  19.589  0.00  0.00    +0.000 A 
ATOM     21  C   UNL     1       2.215   8.319  18.300  0.00  0.00    +0.000 A 
ATOM     22  C   UNL     1       1.758   9.610  17.955  0.00  0.00    +0.000 A 
ATOM     23  C   UNL     1       1.079  10.084  19.050  0.00  0.00    +0.000 A 
ATOM     24  O   UNL     1       1.084   9.164  20.053  0.00  0.00    +0.000 OA
ENDBRANCH  19  20
ENDBRANCH  17  19
ENDBRANCH   4  15
TORSDOF 4
ENDMDL
MODEL 7
REMARK VINA RESULT:      -6.8      1.537      3.087
REMARK  Name = 
REMARK  6 active torsions:
REMARK  status: ('A' for Active; 'I' for Inactive)
REMARK    1  A    between atoms: C_1  and  C_2
REMARK    2  A    between atoms: C_5  and  C_6
REMARK    3  A    between atoms: C_7  and  N_8
REMARK    4  A    between atoms: C_11  and  C_12
REMARK    5  A    between atoms: N_14  and  C_15
REMARK    6  A    between atoms: C_15  and  C_16
REMARK                            x       y       z     vdW  Elec       q    Type
REMARK                         _______ _______ _______ _____ _____    ______ ____
ROOT
ATOM      1  N   UNL     1       4.475   5.697  17.698  0.00  0.00    +0.000 N 
ATOM      2  C   UNL     1       4.048   4.691  16.730  0.00  0.00    +0.000 C 
ATOM      3  C   UNL     1       5.172   3.638  16.683  0.00  0.00    +0.000 C 
ATOM      4  C   UNL     1       6.555   4.258  16.392  0.00  0.00    +0.000 C 
ATOM      5  C   UNL     1       6.819   5.490  17.282  0.00  0.00    +0.000 C 
ATOM      6  C   UNL     1       5.638   6.460  17.236  0.00  0.00    +0.000 C 
ENDROOT
BRANCH   1  13
ATOM      7  C   UNL     1       1.902   9.788  17.884  0.00  0.00    +0.000 C 
ATOM      8  C   UNL     1       2.257   8.442  18.436  0.00  0.00    +0.000 A 
ATOM      9  C   UNL     1       1.702   8.008  19.633  0.00  0.00    +0.000 A 
ATOM     10  N   UNL     1       1.998   6.819  20.191  0.00  0.00    +0.000 NA
ATOM     11  C   UNL     1       2.906   6.070  19.512  0.00  0.00    +0.000 A 
ATOM     12  C   UNL     1       3.231   4.731  20.113  0.00  0.00    +0.000 C 
ATOM     13  C   UNL     1       3.502   6.498  18.300  0.00  0.00    +0.000 A 
ATOM     14  N   UNL     1       3.151   7.683  17.745  0.00  0.00    +0.000 NA
ENDBRANCH   1  13
BRANCH   4  15
ATOM     15  C   UNL     1       6.712   4.637  14.927  0.00  0.00    +0.000 C 
ATOM     16  O   UNL     1       7.639   5.338  14.512  0.00  0.00    +0.000 OA
ATOM     17  N   UNL     1       5.755   4.129  14.084  0.00  0.00    +0.000 N 
ATOM     18  H   UNL     1       5.201   3.335  14.380  0.00  0.00    +0.000 HD
BRANCH  17  19
ATOM     19  C   UNL     1       5.854   4.371  12.661  0.00  0.00    +0.000 C 
BRANCH  19  20
ATOM     20  C   UNL     1       6.238   3.121  11.973  0.00  0.00    +0.000 A 
ATOM     21  C   UNL     1       7.453   2.609  11.562  0.00  0.00    +0.000 A 
ATOM     22  C   UNL     1       7.181   1.341  11.001  0.00  0.00    +0.000 A 
ATOM     23  C   UNL     1       5.824   1.159  11.098  0.00  0.00    +0.000 A 
ATOM     24  O   UNL     1       5.237   2.237  11.687  0.00  0.00    +0.000 OA
ENDBRANCH  19  20
ENDBRANCH  17  19
ENDBRANCH   4  15
TORSDOF 4
ENDMDL
MODEL 8
REMARK VINA RESULT:      -6.8      3.385      6.042
REMARK  Name = 
REMARK  6 active torsions:
REMARK  status: ('A' for Active; 'I' for Inactive)
REMARK    1  A    between atoms: C_1  and  C_2
REMARK    2  A    between atoms: C_5  and  C_6
REMARK    3  A    between atoms: C_7  and  N_8
REMARK    4  A    between atoms: C_11  and  C_12
REMARK    5  A    between atoms: N_14  and  C_15
REMARK    6  A    between atoms: C_15  and  C_16
REMARK                            x       y       z     vdW  Elec       q    Type
REMARK                         _______ _______ _______ _____ _____    ______ ____
ROOT
ATOM      1  N   UNL     1       5.209   4.303  18.554  0.00  0.00    +0.000 N 
ATOM      2  C   UNL     1       5.669   4.445  17.175  0.00  0.00    +0.000 C 
ATOM      3  C   UNL     1       7.205   4.548  17.246  0.00  0.00    +0.000 C 
ATOM      4  C   UNL     1       7.682   5.667  18.196  0.00  0.00    +0.000 C 
ATOM      5  C   UNL     1       6.945   5.609  19.550  0.00  0.00    +0.000 C 
ATOM      6  C   UNL     1       5.433   5.516  19.345  0.00  0.00    +0.000 C 
ENDROOT
BRANCH   1  13
ATOM      7  C   UNL     1       1.812   2.660  21.579  0.00  0.00    +0.000 C 
ATOM      8  C   UNL     1       2.310   2.918  20.190  0.00  0.00    +0.000 A 
ATOM      9  C   UNL     1       1.581   2.482  19.092  0.00  0.00    +0.000 A 
ATOM     10  N   UNL     1       1.986   2.665  17.821  0.00  0.00    +0.000 NA
ATOM     11  C   UNL     1       3.185   3.290  17.680  0.00  0.00    +0.000 A 
ATOM     12  C   UNL     1       3.641   3.519  16.266  0.00  0.00    +0.000 C 
ATOM     13  C   UNL     1       3.958   3.727  18.783  0.00  0.00    +0.000 A 
ATOM     14  N   UNL     1       3.501   3.563  20.049  0.00  0.00    +0.000 NA
ENDBRANCH   1  13
BRANCH   4  15
ATOM     15  C   UNL     1       7.517   7.048  17.578  0.00  0.00    +0.000 C 
ATOM     16  O   UNL     1       6.808   7.261  16.592  0.00  0.00    +0.000 OA
ATOM     17  N   UNL     1       8.202   8.058  18.209  0.00  0.00    +0.000 N 
ATOM     18  H   UNL     1       8.518   7.926  19.162  0.00  0.00    +0.000 HD
BRANCH  17  19
ATOM     19  C   UNL     1       8.055   9.420  17.745  0.00  0.00    +0.000 C 
BRANCH  19  20
ATOM     20  C   UNL     1       8.982  10.298  18.488  0.00  0.00    +0.000 A 
ATOM     21  C   UNL     1       9.439  10.292  19.791  0.00  0.00    +0.000 A 
ATOM     22  C   UNL     1      10.352  11.366  19.897  0.00  0.00    +0.000 A 
ATOM     23  C   UNL     1      10.391  11.961  18.660  0.00  0.00    +0.000 A 
ATOM     24  O   UNL     1       9.559  11.322  17.793  0.00  0.00    +0.000 OA
ENDBRANCH  19  20
ENDBRANCH  17  19
ENDBRANCH   4  15
TORSDOF 4
ENDMDL
MODEL 9
REMARK VINA RESULT:      -6.6      3.175      7.695
REMARK  Name = 
REMARK  6 active torsions:
REMARK  status: ('A' for Active; 'I' for Inactive)
REMARK    1  A    between atoms: C_1  and  C_2
REMARK    2  A    between atoms: C_5  and  C_6
REMARK    3  A    between atoms: C_7  and  N_8
REMARK    4  A    between atoms: C_11  and  C_12
REMARK    5  A    between atoms: N_14  and  C_15
REMARK    6  A    between atoms: C_15  and  C_16
REMARK                            x       y       z     vdW  Elec       q    Type
REMARK                         _______ _______ _______ _____ _____    ______ ____
ROOT
ATOM      1  N   UNL     1       4.086   4.126  17.492  0.00  0.00    +0.000 N 
ATOM      2  C   UNL     1       4.359   3.474  18.770  0.00  0.00    +0.000 C 
ATOM      3  C   UNL     1       3.032   2.824  19.211  0.00  0.00    +0.000 C 
ATOM      4  C   UNL     1       1.862   3.829  19.244  0.00  0.00    +0.000 C 
ATOM      5  C   UNL     1       1.806   4.673  17.954  0.00  0.00    +0.000 C 
ATOM      6  C   UNL     1       3.177   5.267  17.630  0.00  0.00    +0.000 C 
ENDROOT
BRANCH   1  13
ATOM      7  C   UNL     1       6.192   3.764  13.154  0.00  0.00    +0.000 C 
ATOM      8  C   UNL     1       6.207   4.225  14.579  0.00  0.00    +0.000 A 
ATOM      9  C   UNL     1       7.342   4.822  15.110  0.00  0.00    +0.000 A 
ATOM     10  N   UNL     1       7.425   5.237  16.388  0.00  0.00    +0.000 NA
ATOM     11  C   UNL     1       6.319   5.008  17.144  0.00  0.00    +0.000 A 
ATOM     12  C   UNL     1       6.389   5.485  18.568  0.00  0.00    +0.000 C 
ATOM     13  C   UNL     1       5.156   4.383  16.633  0.00  0.00    +0.000 A 
ATOM     14  N   UNL     1       5.091   4.014  15.330  0.00  0.00    +0.000 NA
ENDBRANCH   1  13
BRANCH   4  15
ATOM     15  C   UNL     1       1.932   4.746  20.457  0.00  0.00    +0.000 C 
ATOM     16  O   UNL     1       2.229   4.345  21.584  0.00  0.00    +0.000 OA
ATOM     17  N   UNL     1       1.657   6.069  20.208  0.00  0.00    +0.000 N 
ATOM     18  H   UNL     1       1.716   6.420  19.261  0.00  0.00    +0.000 HD
BRANCH  17  19
ATOM     19  C   UNL     1       1.767   7.035  21.279  0.00  0.00    +0.000 C 
BRANCH  19  20
ATOM     20  C   UNL     1       0.987   8.242  20.937  0.00  0.00    +0.000 A 
ATOM     21  C   UNL     1      -0.066   8.887  21.556  0.00  0.00    +0.000 A 
ATOM     22  C   UNL     1      -0.356  10.023  20.767  0.00  0.00    +0.000 A 
ATOM     23  C   UNL     1       0.530   9.999  19.718  0.00  0.00    +0.000 A 
ATOM     24  O   UNL     1       1.352   8.918  19.808  0.00  0.00    +0.000 OA
ENDBRANCH  19  20
ENDBRANCH  17  19
ENDBRANCH   4  15
TORSDOF 4
ENDMDL
