MODEL 1
REMARK VINA RESULT:      -8.6      0.000      0.000
REMARK  Name = 
REMARK  8 active torsions:
REMARK  status: ('A' for Active; 'I' for Inactive)
REMARK    1  A    between atoms: C_1  and  N_2
REMARK    2  A    between atoms: N_2  and  C_3
REMARK    3  A    between atoms: C_3  and  C_4
REMARK    4  A    between atoms: C_10  and  C_12
REMARK    5  A    between atoms: C_15  and  C_16
REMARK    6  A    between atoms: C_18  and  C_19
REMARK    7  A    between atoms: C_20  and  N_21
REMARK    8  A    between atoms: C_27  and  N_28
REMARK                            x       y       z     vdW  Elec       q    Type
REMARK                         _______ _______ _______ _____ _____    ______ ____
ROOT
ATOM      1  C   UNL     1       0.723   9.896  19.125  0.00  0.00    +0.000 A 
ATOM      2  C   UNL     1      -0.605   9.979  19.482  0.00  0.00    +0.000 A 
ATOM      3  C   UNL     1      -0.941  11.349  19.360  0.00  0.00    +0.000 A 
ATOM      4  N   UNL     1       0.114  12.065  18.952  0.00  0.00    +0.000 NA
ATOM      5  O   UNL     1       1.143  11.159  18.799  0.00  0.00    +0.000 OA
ENDROOT
BRANCH   3   6
ATOM      6  C   UNL     1      -2.257  11.875  19.604  0.00  0.00    +0.000 C 
ATOM      7  C   UNL     1      -2.555  12.533  20.747  0.00  0.00    +0.000 C 
ATOM      8  C   UNL     1      -3.916  13.159  20.838  0.00  0.00    +0.000 C 
ATOM      9  O   UNL     1      -4.246  13.979  21.688  0.00  0.00    +0.000 OA
ATOM     10  C   UNL     1      -4.927  12.760  19.851  0.00  0.00    +0.000 C 
ATOM     11  C   UNL     1      -4.678  12.041  18.751  0.00  0.00    +0.000 C 
ATOM     12  C   UNL     1      -3.245  11.670  18.494  0.00  0.00    +0.000 C 
ATOM     13  O   UNL     1      -2.871  11.219  17.414  0.00  0.00    +0.000 OA
BRANCH   7  14
ATOM     14  N   UNL     1      -1.664  12.549  21.826  0.00  0.00    +0.000 N 
ATOM     15  C   UNL     1      -2.173  12.775  23.173  0.00  0.00    +0.000 C 
ATOM     16  C   UNL     1      -1.483  11.489  22.801  0.00  0.00    +0.000 C 
ENDBRANCH   7  14
BRANCH  11  17
ATOM     17  N   UNL     1      -5.749  11.597  17.975  0.00  0.00    +0.000 N 
ATOM     18  C   UNL     1      -6.833  10.869  18.623  0.00  0.00    +0.000 C 
ATOM     19  C   UNL     1      -7.070  12.197  17.949  0.00  0.00    +0.000 C 
ENDBRANCH  11  17
ENDBRANCH   3   6
BRANCH   1  23
ATOM     20  C   UNL     1       3.180   6.960  18.362  0.00  0.00    +0.000 A 
ATOM     21  C   UNL     1       2.763   6.855  19.676  0.00  0.00    +0.000 A 
ATOM     22  C   UNL     1       1.802   7.836  20.042  0.00  0.00    +0.000 A 
ATOM     23  C   UNL     1       1.586   8.754  19.038  0.00  0.00    +0.000 A 
ATOM     24  S   UNL     1       2.501   8.372  17.644  0.00  0.00    +0.000 S 
BRANCH  20  27
ATOM     25  C   UNL     1       4.810   4.029  16.583  0.00  0.00    +0.000 C 
ATOM     26  N   UNL     1       3.817   4.794  17.323  0.00  0.00    +0.000 N 
ATOM     27  C   UNL     1       4.109   6.147  17.575  0.00  0.00    +0.000 C 
ATOM     28  O   UNL     1       5.153   6.626  17.121  0.00  0.00    +0.000 OA
BRANCH  26  29
ATOM     29  C   UNL     1       2.530   4.142  17.555  0.00  0.00    +0.000 C 
BRANCH  29  30
ATOM     30  C   UNL     1       2.353   3.561  18.945  0.00  0.00    +0.000 A 
ATOM     31  C   UNL     1       3.419   3.056  19.711  0.00  0.00    +0.000 A 
ATOM     32  C   UNL     1       3.210   2.603  21.016  0.00  0.00    +0.000 A 
ATOM     33  C   UNL     1       1.933   2.633  21.571  0.00  0.00    +0.000 A 
ATOM     34  C   UNL     1       0.864   3.117  20.822  0.00  0.00    +0.000 A 
ATOM     35  C   UNL     1       1.071   3.577  19.519  0.00  0.00    +0.000 A 
ENDBRANCH  29  30
ENDBRANCH  26  29
ENDBRANCH  20  27
ENDBRANCH   1  23
TORSDOF 7
ENDMDL
MODEL 2
REMARK VINA RESULT:      -8.4      1.368      2.865
REMARK  Name = 
REMARK  8 active torsions:
REMARK  status: ('A' for Active; 'I' for Inactive)
REMARK    1  A    between atoms: C_1  and  N_2
REMARK    2  A    between atoms: N_2  and  C_3
REMARK    3  A    between atoms: C_3  and  C_4
REMARK    4  A    between atoms: C_10  and  C_12
REMARK    5  A    between atoms: C_15  and  C_16
REMARK    6  A    between atoms: C_18  and  C_19
REMARK    7  A    between atoms: C_20  and  N_21
REMARK    8  A    between atoms: C_27  and  N_28
REMARK                            x       y       z     vdW  Elec       q    Type
REMARK                         _______ _______ _______ _____ _____    ______ ____
ROOT
ATOM      1  C   UNL     1       0.665  10.001  19.285  0.00  0.00    +0.000 A 
ATOM      2  C   UNL     1      -0.641  10.095  19.714  0.00  0.00    +0.000 A 
ATOM      3  C   UNL     1      -0.971  11.468  19.610  0.00  0.00    +0.000 A 
ATOM      4  N   UNL     1       0.066  12.175  19.146  0.00  0.00    +0.000 NA
ATOM      5  O   UNL     1       1.077  11.261  18.936  0.00  0.00    +0.000 OA
ENDROOT
BRANCH   3   6
ATOM      6  C   UNL     1      -2.267  12.005  19.925  0.00  0.00    +0.000 C 
ATOM      7  C   UNL     1      -3.294  11.939  19.046  0.00  0.00    +0.000 C 
ATOM      8  C   UNL     1      -4.636  12.403  19.529  0.00  0.00    +0.000 C 
ATOM      9  O   UNL     1      -5.694  12.186  18.950  0.00  0.00    +0.000 OA
ATOM     10  C   UNL     1      -4.691  13.180  20.774  0.00  0.00    +0.000 C 
ATOM     11  C   UNL     1      -3.670  13.332  21.625  0.00  0.00    +0.000 C 
ATOM     12  C   UNL     1      -2.398  12.603  21.294  0.00  0.00    +0.000 C 
ATOM     13  O   UNL     1      -1.485  12.481  22.107  0.00  0.00    +0.000 OA
BRANCH   7  14
ATOM     14  N   UNL     1      -3.087  11.537  17.721  0.00  0.00    +0.000 N 
ATOM     15  C   UNL     1      -3.414  10.172  17.328  0.00  0.00    +0.000 C 
ATOM     16  C   UNL     1      -4.115  11.355  16.714  0.00  0.00    +0.000 C 
ENDBRANCH   7  14
BRANCH  11  17
ATOM     17  N   UNL     1      -3.804  14.219  22.693  0.00  0.00    +0.000 N 
ATOM     18  C   UNL     1      -4.649  15.396  22.528  0.00  0.00    +0.000 C 
ATOM     19  C   UNL     1      -4.971  14.333  23.547  0.00  0.00    +0.000 C 
ENDBRANCH  11  17
ENDBRANCH   3   6
BRANCH   1  23
ATOM     20  C   UNL     1       3.070   7.057  18.397  0.00  0.00    +0.000 A 
ATOM     21  C   UNL     1       2.681   6.925  19.717  0.00  0.00    +0.000 A 
ATOM     22  C   UNL     1       1.740   7.908  20.128  0.00  0.00    +0.000 A 
ATOM     23  C   UNL     1       1.512   8.852  19.151  0.00  0.00    +0.000 A 
ATOM     24  S   UNL     1       2.391   8.494  17.728  0.00  0.00    +0.000 S 
BRANCH  20  27
ATOM     25  C   UNL     1       4.645   4.142  16.543  0.00  0.00    +0.000 C 
ATOM     26  N   UNL     1       3.678   4.899  17.325  0.00  0.00    +0.000 N 
ATOM     27  C   UNL     1       3.971   6.253  17.569  0.00  0.00    +0.000 C 
ATOM     28  O   UNL     1       4.992   6.740  17.075  0.00  0.00    +0.000 OA
BRANCH  26  29
ATOM     29  C   UNL     1       2.406   4.237  17.607  0.00  0.00    +0.000 C 
BRANCH  29  30
ATOM     30  C   UNL     1       2.308   3.610  18.986  0.00  0.00    +0.000 A 
ATOM     31  C   UNL     1       3.413   3.073  19.669  0.00  0.00    +0.000 A 
ATOM     32  C   UNL     1       3.279   2.577  20.968  0.00  0.00    +0.000 A 
ATOM     33  C   UNL     1       2.038   2.595  21.599  0.00  0.00    +0.000 A 
ATOM     34  C   UNL     1       0.929   3.110  20.932  0.00  0.00    +0.000 A 
ATOM     35  C   UNL     1       1.062   3.613  19.635  0.00  0.00    +0.000 A 
ENDBRANCH  29  30
ENDBRANCH  26  29
ENDBRANCH  20  27
ENDBRANCH   1  23
TORSDOF 7
ENDMDL
MODEL 3
REMARK VINA RESULT:      -8.1      2.836     10.151
REMARK  Name = 
REMARK  8 active torsions:
REMARK  status: ('A' for Active; 'I' for Inactive)
REMARK    1  A    between atoms: C_1  and  N_2
REMARK    2  A    between atoms: N_2  and  C_3
REMARK    3  A    between atoms: C_3  and  C_4
REMARK    4  A    between atoms: C_10  and  C_12
REMARK    5  A    between atoms: C_15  and  C_16
REMARK    6  A    between atoms: C_18  and  C_19
REMARK    7  A    between atoms: C_20  and  N_21
REMARK    8  A    between atoms: C_27  and  N_28
REMARK                            x       y       z     vdW  Elec       q    Type
REMARK                         _______ _______ _______ _____ _____    ______ ____
ROOT
ATOM      1  C   UNL     1       1.226   8.919  19.446  0.00  0.00    +0.000 A 
ATOM      2  C   UNL     1       1.678   8.148  18.398  0.00  0.00    +0.000 A 
ATOM      3  C   UNL     1       2.304   7.029  18.999  0.00  0.00    +0.000 A 
ATOM      4  N   UNL     1       2.241   7.105  20.333  0.00  0.00    +0.000 NA
ATOM      5  O   UNL     1       1.563   8.275  20.608  0.00  0.00    +0.000 OA
ENDROOT
BRANCH   3   6
ATOM      6  C   UNL     1       2.887   5.945  18.256  0.00  0.00    +0.000 C 
ATOM      7  C   UNL     1       2.336   4.709  18.257  0.00  0.00    +0.000 C 
ATOM      8  C   UNL     1       2.945   3.690  17.340  0.00  0.00    +0.000 C 
ATOM      9  O   UNL     1       2.423   2.620  17.049  0.00  0.00    +0.000 OA
ATOM     10  C   UNL     1       4.259   3.985  16.755  0.00  0.00    +0.000 C 
ATOM     11  C   UNL     1       4.867   5.175  16.805  0.00  0.00    +0.000 C 
ATOM     12  C   UNL     1       4.113   6.294  17.465  0.00  0.00    +0.000 C 
ATOM     13  O   UNL     1       4.465   7.467  17.366  0.00  0.00    +0.000 OA
BRANCH   7  14
ATOM     14  N   UNL     1       1.303   4.379  19.142  0.00  0.00    +0.000 N 
ATOM     15  C   UNL     1       0.874   2.991  19.257  0.00  0.00    +0.000 C 
ATOM     16  C   UNL     1       1.456   3.733  20.431  0.00  0.00    +0.000 C 
ENDBRANCH   7  14
BRANCH  11  17
ATOM     17  N   UNL     1       6.180   5.285  16.346  0.00  0.00    +0.000 N 
ATOM     18  C   UNL     1       7.250   4.663  17.117  0.00  0.00    +0.000 C 
ATOM     19  C   UNL     1       6.937   4.224  15.709  0.00  0.00    +0.000 C 
ENDBRANCH  11  17
ENDBRANCH   3   6
BRANCH   1  23
ATOM     20  C   UNL     1      -0.263  12.527  19.507  0.00  0.00    +0.000 A 
ATOM     21  C   UNL     1      -1.283  11.635  19.236  0.00  0.00    +0.000 A 
ATOM     22  C   UNL     1      -0.866  10.276  19.264  0.00  0.00    +0.000 A 
ATOM     23  C   UNL     1       0.496  10.153  19.437  0.00  0.00    +0.000 A 
ATOM     24  S   UNL     1       1.235  11.683  19.630  0.00  0.00    +0.000 S 
BRANCH  20  27
ATOM     25  C   UNL     1      -0.340  16.048  20.924  0.00  0.00    +0.000 C 
ATOM     26  N   UNL     1      -0.286  14.594  20.887  0.00  0.00    +0.000 N 
ATOM     27  C   UNL     1      -0.260  13.987  19.617  0.00  0.00    +0.000 C 
ATOM     28  O   UNL     1      -0.232  14.706  18.614  0.00  0.00    +0.000 OA
BRANCH  26  29
ATOM     29  C   UNL     1      -0.061  13.916  22.161  0.00  0.00    +0.000 C 
BRANCH  29  30
ATOM     30  C   UNL     1      -1.315  13.669  22.979  0.00  0.00    +0.000 A 
ATOM     31  C   UNL     1      -1.828  14.595  23.904  0.00  0.00    +0.000 A 
ATOM     32  C   UNL     1      -3.029  14.347  24.574  0.00  0.00    +0.000 A 
ATOM     33  C   UNL     1      -3.727  13.165  24.342  0.00  0.00    +0.000 A 
ATOM     34  C   UNL     1      -3.227  12.230  23.441  0.00  0.00    +0.000 A 
ATOM     35  C   UNL     1      -2.030  12.478  22.765  0.00  0.00    +0.000 A 
ENDBRANCH  29  30
ENDBRANCH  26  29
ENDBRANCH  20  27
ENDBRANCH   1  23
TORSDOF 7
ENDMDL
MODEL 4
REMARK VINA RESULT:      -8.1      2.632     10.282
REMARK  Name = 
REMARK  8 active torsions:
REMARK  status: ('A' for Active; 'I' for Inactive)
REMARK    1  A    between atoms: C_1  and  N_2
REMARK    2  A    between atoms: N_2  and  C_3
REMARK    3  A    between atoms: C_3  and  C_4
REMARK    4  A    between atoms: C_10  and  C_12
REMARK    5  A    between atoms: C_15  and  C_16
REMARK    6  A    between atoms: C_18  and  C_19
REMARK    7  A    between atoms: C_20  and  N_21
REMARK    8  A    between atoms: C_27  and  N_28
REMARK                            x       y       z     vdW  Elec       q    Type
REMARK                         _______ _______ _______ _____ _____    ______ ____
ROOT
ATOM      1  C   UNL     1       1.286   8.968  19.514  0.00  0.00    +0.000 A 
ATOM      2  C   UNL     1       2.063   7.852  19.740  0.00  0.00    +0.000 A 
ATOM      3  C   UNL     1       2.325   7.313  18.458  0.00  0.00    +0.000 A 
ATOM      4  N   UNL     1       1.747   8.050  17.502  0.00  0.00    +0.000 NA
ATOM      5  O   UNL     1       1.110   9.082  18.160  0.00  0.00    +0.000 OA
ENDROOT
BRANCH   3   6
ATOM      6  C   UNL     1       3.142   6.151  18.231  0.00  0.00    +0.000 C 
ATOM      7  C   UNL     1       2.686   4.904  18.488  0.00  0.00    +0.000 C 
ATOM      8  C   UNL     1       3.568   3.759  18.085  0.00  0.00    +0.000 C 
ATOM      9  O   UNL     1       3.203   2.590  18.027  0.00  0.00    +0.000 OA
ATOM     10  C   UNL     1       4.966   4.051  17.746  0.00  0.00    +0.000 C 
ATOM     11  C   UNL     1       5.468   5.278  17.563  0.00  0.00    +0.000 C 
ATOM     12  C   UNL     1       4.504   6.426  17.665  0.00  0.00    +0.000 C 
ATOM     13  O   UNL     1       4.796   7.560  17.293  0.00  0.00    +0.000 OA
BRANCH   7  14
ATOM     14  N   UNL     1       1.485   4.700  19.178  0.00  0.00    +0.000 N 
ATOM     15  C   UNL     1       1.084   3.346  19.533  0.00  0.00    +0.000 C 
ATOM     16  C   UNL     1       1.353   4.386  20.588  0.00  0.00    +0.000 C 
ENDBRANCH   7  14
BRANCH  11  17
ATOM     17  N   UNL     1       6.844   5.430  17.397  0.00  0.00    +0.000 N 
ATOM     18  C   UNL     1       7.660   5.767  18.557  0.00  0.00    +0.000 C 
ATOM     19  C   UNL     1       7.849   4.470  17.813  0.00  0.00    +0.000 C 
ENDBRANCH  11  17
ENDBRANCH   3   6
BRANCH   1  23
ATOM     20  C   UNL     1      -0.047  11.949  21.653  0.00  0.00    +0.000 A 
ATOM     21  C   UNL     1      -0.312  10.771  22.326  0.00  0.00    +0.000 A 
ATOM     22  C   UNL     1       0.199   9.619  21.669  0.00  0.00    +0.000 A 
ATOM     23  C   UNL     1       0.746   9.920  20.441  0.00  0.00    +0.000 A 
ATOM     24  S   UNL     1       0.690  11.601  20.134  0.00  0.00    +0.000 S 
BRANCH  20  27
ATOM     25  C   UNL     1      -1.828  15.286  21.980  0.00  0.00    +0.000 C 
ATOM     26  N   UNL     1      -1.613  13.879  21.674  0.00  0.00    +0.000 N 
ATOM     27  C   UNL     1      -0.350  13.342  21.987  0.00  0.00    +0.000 C 
ATOM     28  O   UNL     1       0.484  14.064  22.542  0.00  0.00    +0.000 OA
BRANCH  26  29
ATOM     29  C   UNL     1      -2.787  13.113  21.262  0.00  0.00    +0.000 C 
BRANCH  29  30
ATOM     30  C   UNL     1      -3.806  12.874  22.359  0.00  0.00    +0.000 A 
ATOM     31  C   UNL     1      -3.459  12.471  23.660  0.00  0.00    +0.000 A 
ATOM     32  C   UNL     1      -4.434  12.339  24.653  0.00  0.00    +0.000 A 
ATOM     33  C   UNL     1      -5.770  12.593  24.358  0.00  0.00    +0.000 A 
ATOM     34  C   UNL     1      -6.135  12.979  23.071  0.00  0.00    +0.000 A 
ATOM     35  C   UNL     1      -5.161  13.119  22.079  0.00  0.00    +0.000 A 
ENDBRANCH  29  30
ENDBRANCH  26  29
ENDBRANCH  20  27
ENDBRANCH   1  23
TORSDOF 7
ENDMDL
MODEL 5
REMARK VINA RESULT:      -8.1      2.311     10.259
REMARK  Name = 
REMARK  8 active torsions:
REMARK  status: ('A' for Active; 'I' for Inactive)
REMARK    1  A    between atoms: C_1  and  N_2
REMARK    2  A    between atoms: N_2  and  C_3
REMARK    3  A    between atoms: C_3  and  C_4
REMARK    4  A    between atoms: C_10  and  C_12
REMARK    5  A    between atoms: C_15  and  C_16
REMARK    6  A    between atoms: C_18  and  C_19
REMARK    7  A    between atoms: C_20  and  N_21
REMARK    8  A    between atoms: C_27  and  N_28
REMARK                            x       y       z     vdW  Elec       q    Type
REMARK                         _______ _______ _______ _____ _____    ______ ____
ROOT
ATOM      1  C   UNL     1       1.181   9.029  19.072  0.00  0.00    +0.000 A 
ATOM      2  C   UNL     1       1.635   8.178  18.087  0.00  0.00    +0.000 A 
ATOM      3  C   UNL     1       2.334   7.155  18.771  0.00  0.00    +0.000 A 
ATOM      4  N   UNL     1       2.313   7.361  20.093  0.00  0.00    +0.000 NA
ATOM      5  O   UNL     1       1.589   8.521  20.277  0.00  0.00    +0.000 OA
ENDROOT
BRANCH   3   6
ATOM      6  C   UNL     1       2.944   6.028  18.116  0.00  0.00    +0.000 C 
ATOM      7  C   UNL     1       2.392   4.794  18.171  0.00  0.00    +0.000 C 
ATOM      8  C   UNL     1       3.034   3.723  17.339  0.00  0.00    +0.000 C 
ATOM      9  O   UNL     1       2.522   2.637  17.093  0.00  0.00    +0.000 OA
ATOM     10  C   UNL     1       4.369   3.984  16.788  0.00  0.00    +0.000 C 
ATOM     11  C   UNL     1       4.977   5.176  16.790  0.00  0.00    +0.000 C 
ATOM     12  C   UNL     1       4.199   6.331  17.354  0.00  0.00    +0.000 C 
ATOM     13  O   UNL     1       4.556   7.497  17.198  0.00  0.00    +0.000 OA
BRANCH   7  14
ATOM     14  N   UNL     1       1.325   4.516  19.033  0.00  0.00    +0.000 N 
ATOM     15  C   UNL     1       0.939   3.132  19.273  0.00  0.00    +0.000 C 
ATOM     16  C   UNL     1       1.432   4.013  20.390  0.00  0.00    +0.000 C 
ENDBRANCH   7  14
BRANCH  11  17
ATOM     17  N   UNL     1       6.306   5.260  16.376  0.00  0.00    +0.000 N 
ATOM     18  C   UNL     1       7.321   4.513  17.110  0.00  0.00    +0.000 C 
ATOM     19  C   UNL     1       7.027   4.224  15.660  0.00  0.00    +0.000 C 
ENDBRANCH  11  17
ENDBRANCH   3   6
BRANCH   1  23
ATOM     20  C   UNL     1      -0.593  12.506  19.146  0.00  0.00    +0.000 A 
ATOM     21  C   UNL     1      -1.270  11.685  18.264  0.00  0.00    +0.000 A 
ATOM     22  C   UNL     1      -0.751  10.362  18.213  0.00  0.00    +0.000 A 
ATOM     23  C   UNL     1       0.392  10.222  18.969  0.00  0.00    +0.000 A 
ATOM     24  S   UNL     1       0.779  11.677  19.780  0.00  0.00    +0.000 S 
BRANCH  20  27
ATOM     25  C   UNL     1      -1.881  15.613  20.905  0.00  0.00    +0.000 C 
ATOM     26  N   UNL     1      -1.661  14.205  20.612  0.00  0.00    +0.000 N 
ATOM     27  C   UNL     1      -0.812  13.901  19.531  0.00  0.00    +0.000 C 
ATOM     28  O   UNL     1      -0.264  14.827  18.925  0.00  0.00    +0.000 OA
BRANCH  26  29
ATOM     29  C   UNL     1      -2.177  13.247  21.587  0.00  0.00    +0.000 C 
BRANCH  29  30
ATOM     30  C   UNL     1      -3.668  12.981  21.490  0.00  0.00    +0.000 A 
ATOM     31  C   UNL     1      -4.546  13.105  22.580  0.00  0.00    +0.000 A 
ATOM     32  C   UNL     1      -5.921  12.922  22.416  0.00  0.00    +0.000 A 
ATOM     33  C   UNL     1      -6.439  12.599  21.165  0.00  0.00    +0.000 A 
ATOM     34  C   UNL     1      -5.583  12.459  20.076  0.00  0.00    +0.000 A 
ATOM     35  C   UNL     1      -4.208  12.648  20.236  0.00  0.00    +0.000 A 
ENDBRANCH  29  30
ENDBRANCH  26  29
ENDBRANCH  20  27
ENDBRANCH   1  23
TORSDOF 7
ENDMDL
MODEL 6
REMARK VINA RESULT:      -8.0      3.414      4.738
REMARK  Name = 
REMARK  8 active torsions:
REMARK  status: ('A' for Active; 'I' for Inactive)
REMARK    1  A    between atoms: C_1  and  N_2
REMARK    2  A    between atoms: N_2  and  C_3
REMARK    3  A    between atoms: C_3  and  C_4
REMARK    4  A    between atoms: C_10  and  C_12
REMARK    5  A    between atoms: C_15  and  C_16
REMARK    6  A    between atoms: C_18  and  C_19
REMARK    7  A    between atoms: C_20  and  N_21
REMARK    8  A    between atoms: C_27  and  N_28
REMARK                            x       y       z     vdW  Elec       q    Type
REMARK                         _______ _______ _______ _____ _____    ______ ____
ROOT
ATOM      1  C   UNL     1       1.420   8.461  20.786  0.00  0.00    +0.000 A 
ATOM      2  C   UNL     1       0.699   9.587  20.453  0.00  0.00    +0.000 A 
ATOM      3  C   UNL     1       0.699  10.390  21.619  0.00  0.00    +0.000 A 
ATOM      4  N   UNL     1       1.377   9.797  22.608  0.00  0.00    +0.000 NA
ATOM      5  O   UNL     1       1.831   8.604  22.086  0.00  0.00    +0.000 OA
ENDROOT
BRANCH   3   6
ATOM      6  C   UNL     1       0.083  11.687  21.697  0.00  0.00    +0.000 C 
ATOM      7  C   UNL     1       0.525  12.727  20.952  0.00  0.00    +0.000 C 
ATOM      8  C   UNL     1      -0.277  13.994  21.007  0.00  0.00    +0.000 C 
ATOM      9  O   UNL     1      -0.152  14.927  20.223  0.00  0.00    +0.000 OA
ATOM     10  C   UNL     1      -1.271  14.136  22.078  0.00  0.00    +0.000 C 
ATOM     11  C   UNL     1      -1.671  13.147  22.885  0.00  0.00    +0.000 C 
ATOM     12  C   UNL     1      -1.089  11.786  22.628  0.00  0.00    +0.000 C 
ATOM     13  O   UNL     1      -1.549  10.770  23.145  0.00  0.00    +0.000 OA
BRANCH   7  14
ATOM     14  N   UNL     1       1.723  12.644  20.234  0.00  0.00    +0.000 N 
ATOM     15  C   UNL     1       1.693  12.713  18.779  0.00  0.00    +0.000 C 
ATOM     16  C   UNL     1       2.415  13.749  19.598  0.00  0.00    +0.000 C 
ENDBRANCH   7  14
BRANCH  11  17
ATOM     17  N   UNL     1      -2.507  13.446  23.961  0.00  0.00    +0.000 N 
ATOM     18  C   UNL     1      -3.280  14.682  23.930  0.00  0.00    +0.000 C 
ATOM     19  C   UNL     1      -3.953  13.334  23.955  0.00  0.00    +0.000 C 
ENDBRANCH  11  17
ENDBRANCH   3   6
BRANCH   1  23
ATOM     20  C   UNL     1       2.214   5.045  19.073  0.00  0.00    +0.000 A 
ATOM     21  C   UNL     1       2.432   6.058  18.157  0.00  0.00    +0.000 A 
ATOM     22  C   UNL     1       2.243   7.358  18.700  0.00  0.00    +0.000 A 
ATOM     23  C   UNL     1       1.767   7.319  19.992  0.00  0.00    +0.000 A 
ATOM     24  S   UNL     1       1.619   5.708  20.549  0.00  0.00    +0.000 S 
BRANCH  20  27
ATOM     25  C   UNL     1       3.632   1.561  18.561  0.00  0.00    +0.000 C 
ATOM     26  N   UNL     1       3.593   3.006  18.729  0.00  0.00    +0.000 N 
ATOM     27  C   UNL     1       2.332   3.591  18.952  0.00  0.00    +0.000 C 
ATOM     28  O   UNL     1       1.343   2.857  19.042  0.00  0.00    +0.000 OA
BRANCH  26  29
ATOM     29  C   UNL     1       4.881   3.684  18.853  0.00  0.00    +0.000 C 
BRANCH  29  30
ATOM     30  C   UNL     1       5.523   4.074  17.535  0.00  0.00    +0.000 A 
ATOM     31  C   UNL     1       4.836   4.061  16.309  0.00  0.00    +0.000 A 
ATOM     32  C   UNL     1       5.455   4.504  15.137  0.00  0.00    +0.000 A 
ATOM     33  C   UNL     1       6.772   4.952  15.168  0.00  0.00    +0.000 A 
ATOM     34  C   UNL     1       7.473   4.958  16.371  0.00  0.00    +0.000 A 
ATOM     35  C   UNL     1       6.854   4.523  17.546  0.00  0.00    +0.000 A 
ENDBRANCH  29  30
ENDBRANCH  26  29
ENDBRANCH  20  27
ENDBRANCH   1  23
TORSDOF 7
ENDMDL
MODEL 7
REMARK VINA RESULT:      -7.9      2.428     10.316
REMARK  Name = 
REMARK  8 active torsions:
REMARK  status: ('A' for Active; 'I' for Inactive)
REMARK    1  A    between atoms: C_1  and  N_2
REMARK    2  A    between atoms: N_2  and  C_3
REMARK    3  A    between atoms: C_3  and  C_4
REMARK    4  A    between atoms: C_10  and  C_12
REMARK    5  A    between atoms: C_15  and  C_16
REMARK    6  A    between atoms: C_18  and  C_19
REMARK    7  A    between atoms: C_20  and  N_21
REMARK    8  A    between atoms: C_27  and  N_28
REMARK                            x       y       z     vdW  Elec       q    Type
REMARK                         _______ _______ _______ _____ _____    ______ ____
ROOT
ATOM      1  C   UNL     1       1.221   8.920  19.443  0.00  0.00    +0.000 A 
ATOM      2  C   UNL     1       1.668   8.150  18.391  0.00  0.00    +0.000 A 
ATOM      3  C   UNL     1       2.362   7.069  18.986  0.00  0.00    +0.000 A 
ATOM      4  N   UNL     1       2.343   7.166  20.321  0.00  0.00    +0.000 NA
ATOM      5  O   UNL     1       1.627   8.311  20.602  0.00  0.00    +0.000 OA
ENDROOT
BRANCH   3   6
ATOM      6  C   UNL     1       2.962   5.997  18.240  0.00  0.00    +0.000 C 
ATOM      7  C   UNL     1       2.421   4.757  18.221  0.00  0.00    +0.000 C 
ATOM      8  C   UNL     1       3.050   3.753  17.301  0.00  0.00    +0.000 C 
ATOM      9  O   UNL     1       2.540   2.682  16.991  0.00  0.00    +0.000 OA
ATOM     10  C   UNL     1       4.370   4.064  16.737  0.00  0.00    +0.000 C 
ATOM     11  C   UNL     1       4.969   5.257  16.809  0.00  0.00    +0.000 C 
ATOM     12  C   UNL     1       4.197   6.364  17.471  0.00  0.00    +0.000 C 
ATOM     13  O   UNL     1       4.542   7.541  17.389  0.00  0.00    +0.000 OA
BRANCH   7  14
ATOM     14  N   UNL     1       1.378   4.410  19.087  0.00  0.00    +0.000 N 
ATOM     15  C   UNL     1       0.894   3.036  19.112  0.00  0.00    +0.000 C 
ATOM     16  C   UNL     1       1.509   3.674  20.330  0.00  0.00    +0.000 C 
ENDBRANCH   7  14
BRANCH  11  17
ATOM     17  N   UNL     1       6.286   5.382  16.370  0.00  0.00    +0.000 N 
ATOM     18  C   UNL     1       7.300   4.493  16.925  0.00  0.00    +0.000 C 
ATOM     19  C   UNL     1       6.955   4.474  15.457  0.00  0.00    +0.000 C 
ENDBRANCH  11  17
ENDBRANCH   3   6
BRANCH   1  23
ATOM     20  C   UNL     1      -0.538  12.384  19.820  0.00  0.00    +0.000 A 
ATOM     21  C   UNL     1      -1.199  11.658  18.847  0.00  0.00    +0.000 A 
ATOM     22  C   UNL     1      -0.686  10.344  18.678  0.00  0.00    +0.000 A 
ATOM     23  C   UNL     1       0.440  10.122  19.441  0.00  0.00    +0.000 A 
ATOM     24  S   UNL     1       0.815  11.488  20.400  0.00  0.00    +0.000 S 
BRANCH  20  27
ATOM     25  C   UNL     1      -1.847  15.312  21.852  0.00  0.00    +0.000 C 
ATOM     26  N   UNL     1      -1.626  13.937  21.427  0.00  0.00    +0.000 N 
ATOM     27  C   UNL     1      -0.761  13.736  20.335  0.00  0.00    +0.000 C 
ATOM     28  O   UNL     1      -0.201  14.714  19.831  0.00  0.00    +0.000 OA
BRANCH  26  29
ATOM     29  C   UNL     1      -2.160  12.891  22.296  0.00  0.00    +0.000 C 
BRANCH  29  30
ATOM     30  C   UNL     1      -3.670  12.896  22.442  0.00  0.00    +0.000 A 
ATOM     31  C   UNL     1      -4.551  12.762  21.355  0.00  0.00    +0.000 A 
ATOM     32  C   UNL     1      -5.932  12.697  21.557  0.00  0.00    +0.000 A 
ATOM     33  C   UNL     1      -6.455  12.779  22.844  0.00  0.00    +0.000 A 
ATOM     34  C   UNL     1      -5.599  12.927  23.932  0.00  0.00    +0.000 A 
ATOM     35  C   UNL     1      -4.217  12.985  23.733  0.00  0.00    +0.000 A 
ENDBRANCH  29  30
ENDBRANCH  26  29
ENDBRANCH  20  27
ENDBRANCH   1  23
TORSDOF 7
ENDMDL
MODEL 8
REMARK VINA RESULT:      -7.9      1.660      3.182
REMARK  Name = 
REMARK  8 active torsions:
REMARK  status: ('A' for Active; 'I' for Inactive)
REMARK    1  A    between atoms: C_1  and  N_2
REMARK    2  A    between atoms: N_2  and  C_3
REMARK    3  A    between atoms: C_3  and  C_4
REMARK    4  A    between atoms: C_10  and  C_12
REMARK    5  A    between atoms: C_15  and  C_16
REMARK    6  A    between atoms: C_18  and  C_19
REMARK    7  A    between atoms: C_20  and  N_21
REMARK    8  A    between atoms: C_27  and  N_28
REMARK                            x       y       z     vdW  Elec       q    Type
REMARK                         _______ _______ _______ _____ _____    ______ ____
ROOT
ATOM      1  C   UNL     1       0.738  10.002  19.090  0.00  0.00    +0.000 A 
ATOM      2  C   UNL     1      -0.586  10.080  19.466  0.00  0.00    +0.000 A 
ATOM      3  C   UNL     1      -0.892  11.462  19.473  0.00  0.00    +0.000 A 
ATOM      4  N   UNL     1       0.175  12.190  19.124  0.00  0.00    +0.000 NA
ATOM      5  O   UNL     1       1.183  11.281  18.878  0.00  0.00    +0.000 OA
ENDROOT
BRANCH   3   6
ATOM      6  C   UNL     1      -2.194  11.991  19.777  0.00  0.00    +0.000 C 
ATOM      7  C   UNL     1      -2.459  12.584  20.964  0.00  0.00    +0.000 C 
ATOM      8  C   UNL     1      -3.807  13.222  21.122  0.00  0.00    +0.000 C 
ATOM      9  O   UNL     1      -4.107  13.995  22.025  0.00  0.00    +0.000 OA
ATOM     10  C   UNL     1      -4.846  12.896  20.136  0.00  0.00    +0.000 C 
ATOM     11  C   UNL     1      -4.631  12.240  18.991  0.00  0.00    +0.000 C 
ATOM     12  C   UNL     1      -3.210  11.864  18.680  0.00  0.00    +0.000 C 
ATOM     13  O   UNL     1      -2.865  11.473  17.568  0.00  0.00    +0.000 OA
BRANCH   7  14
ATOM     14  N   UNL     1      -1.544  12.524  22.022  0.00  0.00    +0.000 N 
ATOM     15  C   UNL     1      -2.025  12.644  23.392  0.00  0.00    +0.000 C 
ATOM     16  C   UNL     1      -1.337  11.395  22.909  0.00  0.00    +0.000 C 
ENDBRANCH   7  14
BRANCH  11  17
ATOM     17  N   UNL     1      -5.725  11.857  18.214  0.00  0.00    +0.000 N 
ATOM     18  C   UNL     1      -6.492  10.682  18.610  0.00  0.00    +0.000 C 
ATOM     19  C   UNL     1      -7.117  12.054  18.573  0.00  0.00    +0.000 C 
ENDBRANCH  11  17
ENDBRANCH   3   6
BRANCH   1  23
ATOM     20  C   UNL     1       2.847   6.718  19.056  0.00  0.00    +0.000 A 
ATOM     21  C   UNL     1       3.003   7.353  17.839  0.00  0.00    +0.000 A 
ATOM     22  C   UNL     1       2.333   8.605  17.767  0.00  0.00    +0.000 A 
ATOM     23  C   UNL     1       1.575   8.856  18.890  0.00  0.00    +0.000 A 
ATOM     24  S   UNL     1       1.740   7.600  20.040  0.00  0.00    +0.000 S 
BRANCH  20  27
ATOM     25  C   UNL     1       5.071   3.687  19.586  0.00  0.00    +0.000 C 
ATOM     26  N   UNL     1       4.620   4.976  19.083  0.00  0.00    +0.000 N 
ATOM     27  C   UNL     1       3.387   5.455  19.563  0.00  0.00    +0.000 C 
ATOM     28  O   UNL     1       2.781   4.793  20.412  0.00  0.00    +0.000 OA
BRANCH  26  29
ATOM     29  C   UNL     1       5.580   5.739  18.288  0.00  0.00    +0.000 C 
BRANCH  29  30
ATOM     30  C   UNL     1       5.834   5.187  16.898  0.00  0.00    +0.000 A 
ATOM     31  C   UNL     1       4.849   4.537  16.134  0.00  0.00    +0.000 A 
ATOM     32  C   UNL     1       5.118   4.116  14.829  0.00  0.00    +0.000 A 
ATOM     33  C   UNL     1       6.376   4.325  14.272  0.00  0.00    +0.000 A 
ATOM     34  C   UNL     1       7.369   4.954  15.019  0.00  0.00    +0.000 A 
ATOM     35  C   UNL     1       7.100   5.383  16.322  0.00  0.00    +0.000 A 
ENDBRANCH  29  30
ENDBRANCH  26  29
ENDBRANCH  20  27
ENDBRANCH   1  23
TORSDOF 7
ENDMDL
MODEL 9
REMARK VINA RESULT:      -7.9      2.076      4.349
REMARK  Name = 
REMARK  8 active torsions:
REMARK  status: ('A' for Active; 'I' for Inactive)
REMARK    1  A    between atoms: C_1  and  N_2
REMARK    2  A    between atoms: N_2  and  C_3
REMARK    3  A    between atoms: C_3  and  C_4
REMARK    4  A    between atoms: C_10  and  C_12
REMARK    5  A    between atoms: C_15  and  C_16
REMARK    6  A    between atoms: C_18  and  C_19
REMARK    7  A    between atoms: C_20  and  N_21
REMARK    8  A    between atoms: C_27  and  N_28
REMARK                            x       y       z     vdW  Elec       q    Type
REMARK                         _______ _______ _______ _____ _____    ______ ____
ROOT
ATOM      1  C   UNL     1       1.048   9.792  19.212  0.00  0.00    +0.000 A 
ATOM      2  C   UNL     1      -0.183  10.008  19.793  0.00  0.00    +0.000 A 
ATOM      3  C   UNL     1      -0.408  11.401  19.686  0.00  0.00    +0.000 A 
ATOM      4  N   UNL     1       0.619  12.006  19.077  0.00  0.00    +0.000 NA
ATOM      5  O   UNL     1       1.517  11.004  18.775  0.00  0.00    +0.000 OA
ENDROOT
BRANCH   3   6
ATOM      6  C   UNL     1      -1.606  12.054  20.140  0.00  0.00    +0.000 C 
ATOM      7  C   UNL     1      -2.736  12.057  19.395  0.00  0.00    +0.000 C 
ATOM      8  C   UNL     1      -3.964  12.646  20.024  0.00  0.00    +0.000 C 
ATOM      9  O   UNL     1      -5.101  12.508  19.586  0.00  0.00    +0.000 OA
ATOM     10  C   UNL     1      -3.799  13.452  21.240  0.00  0.00    +0.000 C 
ATOM     11  C   UNL     1      -2.672  13.534  21.955  0.00  0.00    +0.000 C 
ATOM     12  C   UNL     1      -1.516  12.691  21.495  0.00  0.00    +0.000 C 
ATOM     13  O   UNL     1      -0.521  12.509  22.193  0.00  0.00    +0.000 OA
BRANCH   7  14
ATOM     14  N   UNL     1      -2.729  11.610  18.069  0.00  0.00    +0.000 N 
ATOM     15  C   UNL     1      -3.214  10.270  17.763  0.00  0.00    +0.000 C 
ATOM     16  C   UNL     1      -3.886  11.495  17.201  0.00  0.00    +0.000 C 
ENDBRANCH   7  14
BRANCH  11  17
ATOM     17  N   UNL     1      -2.597  14.453  23.001  0.00  0.00    +0.000 N 
ATOM     18  C   UNL     1      -3.818  15.120  23.440  0.00  0.00    +0.000 C 
ATOM     19  C   UNL     1      -3.043  14.212  24.361  0.00  0.00    +0.000 C 
ENDBRANCH  11  17
ENDBRANCH   3   6
BRANCH   1  23
ATOM     20  C   UNL     1       2.800   6.304  19.158  0.00  0.00    +0.000 A 
ATOM     21  C   UNL     1       3.112   6.971  17.988  0.00  0.00    +0.000 A 
ATOM     22  C   UNL     1       2.584   8.289  17.934  0.00  0.00    +0.000 A 
ATOM     23  C   UNL     1       1.774   8.571  19.012  0.00  0.00    +0.000 A 
ATOM     24  S   UNL     1       1.721   7.257  20.105  0.00  0.00    +0.000 S 
BRANCH  20  27
ATOM     25  C   UNL     1       4.700   3.074  19.768  0.00  0.00    +0.000 C 
ATOM     26  N   UNL     1       4.423   4.427  19.308  0.00  0.00    +0.000 N 
ATOM     27  C   UNL     1       3.166   4.970  19.637  0.00  0.00    +0.000 C 
ATOM     28  O   UNL     1       2.392   4.303  20.330  0.00  0.00    +0.000 OA
BRANCH  26  29
ATOM     29  C   UNL     1       5.544   5.163  18.729  0.00  0.00    +0.000 C 
BRANCH  29  30
ATOM     30  C   UNL     1       5.830   4.843  17.274  0.00  0.00    +0.000 A 
ATOM     31  C   UNL     1       4.868   4.310  16.397  0.00  0.00    +0.000 A 
ATOM     32  C   UNL     1       5.165   4.106  15.047  0.00  0.00    +0.000 A 
ATOM     33  C   UNL     1       6.430   4.416  14.555  0.00  0.00    +0.000 A 
ATOM     34  C   UNL     1       7.400   4.930  15.411  0.00  0.00    +0.000 A 
ATOM     35  C   UNL     1       7.103   5.142  16.760  0.00  0.00    +0.000 A 
ENDBRANCH  29  30
ENDBRANCH  26  29
ENDBRANCH  20  27
ENDBRANCH   1  23
TORSDOF 7
ENDMDL
