MODEL 1
REMARK VINA RESULT:      -7.3      0.000      0.000
REMARK  Name = 
REMARK  9 active torsions:
REMARK  status: ('A' for Active; 'I' for Inactive)
REMARK    1  A    between atoms: C_1  and  N_2
REMARK    2  A    between atoms: N_9  and  CA_10
REMARK    3  A    between atoms: CA_10  and  C_11
REMARK    4  A    between atoms: CA_10  and  CB_13
REMARK    5  A    between atoms: C_11  and  O_12
REMARK    6  A    between atoms: CB_13  and  CG_14
REMARK    7  A    between atoms: N_20  and  C_21
REMARK    8  A    between atoms: C_21  and  C_22
REMARK    9  A    between atoms: N_28  and  C_29
REMARK                            x       y       z     vdW  Elec       q    Type
REMARK                         _______ _______ _______ _____ _____    ______ ____
ROOT
ATOM      1  C   UNK A   0       6.703   3.689  15.991  0.00  0.00    +0.000 C 
ATOM      2  N   UNK A   0       5.934   4.807  16.499  0.00  0.00    +0.000 N 
ATOM      3  C   UNK A   0       4.595   4.593  16.852  0.00  0.00    +0.000 A 
ATOM      4  O   UNK A   0       4.027   3.506  16.765  0.00  0.00    +0.000 OA
ATOM      5  C   UNK A   0       3.959   5.767  17.347  0.00  0.00    +0.000 A 
ATOM      6  C   UNK A   0       4.606   6.957  17.463  0.00  0.00    +0.000 A 
ATOM      7  N   UNK A   0       3.820   7.920  17.994  0.00  0.00    +0.000 NA
ATOM      8  C   UNK A   0       2.658   7.345  18.197  0.00  0.00    +0.000 A 
ATOM      9  N   PHE A   1       1.579   7.946  18.728  0.00  0.00    +0.000 N 
ATOM     10  N   UNK A   0       2.677   6.031  17.764  0.00  0.00    +0.000 N 
ATOM     11  N   UNK A   0       5.909   7.128  17.072  0.00  0.00    +0.000 N 
ATOM     12  C   UNK A   0       6.548   8.429  17.125  0.00  0.00    +0.000 C 
ATOM     13  C   UNK A   0       6.612   6.043  16.560  0.00  0.00    +0.000 A 
ATOM     14  O   UNK A   0       7.781   6.154  16.181  0.00  0.00    +0.000 OA
ATOM     15  H   PHE A   1       0.643   7.714  18.412  0.00  0.00    +0.000 HD
ENDROOT
BRANCH   9  16
ATOM     16  CA  PHE A   1       1.688   9.199  19.507  0.00  0.00    +0.000 C 
BRANCH  16  17
ATOM     17  C   PHE A   1       1.010   9.097  20.898  0.00  0.00    +0.000 C 
BRANCH  17  18
ATOM     18  O   PHE A   1       1.597   8.142  21.776  0.00  0.00    +0.000 OA
ATOM     19  H   PHE A   1       2.012   7.456  21.208  0.00  0.00    +0.000 HD
ENDBRANCH  17  18
ENDBRANCH  16  17
BRANCH  16  20
ATOM     20  CB  PHE A   1       1.194  10.451  18.747  0.00  0.00    +0.000 C 
BRANCH  20  21
ATOM     21  CG  PHE A   1      -0.303  10.600  18.574  0.00  0.00    +0.000 A 
ATOM     22  CD1 PHE A   1      -0.987  11.583  19.304  0.00  0.00    +0.000 A 
ATOM     23  CE1 PHE A   1      -2.341  11.829  19.076  0.00  0.00    +0.000 A 
ATOM     24  CZ  PHE A   1      -3.031  11.086  18.122  0.00  0.00    +0.000 A 
ATOM     25  CE2 PHE A   1      -2.371  10.081  17.414  0.00  0.00    +0.000 A 
ATOM     26  CD2 PHE A   1      -1.013   9.838  17.638  0.00  0.00    +0.000 A 
ENDBRANCH  20  21
ENDBRANCH  16  20
ENDBRANCH   9  16
BRANCH  10  27
ATOM     27  C   UNK A   0       1.572   5.084  17.804  0.00  0.00    +0.000 C 
BRANCH  27  28
ATOM     28  C   UNK A   0       1.612   4.174  19.015  0.00  0.00    +0.000 A 
ATOM     29  C   UNK A   0       2.053   4.685  20.246  0.00  0.00    +0.000 A 
ATOM     30  C   UNK A   0       2.015   3.899  21.402  0.00  0.00    +0.000 A 
ATOM     31  C   UNK A   0       1.535   2.594  21.346  0.00  0.00    +0.000 A 
ATOM     32  C   UNK A   0       1.104   2.068  20.133  0.00  0.00    +0.000 A 
ATOM     33  C   UNK A   0       1.139   2.852  18.978  0.00  0.00    +0.000 A 
ENDBRANCH  27  28
ENDBRANCH  10  27
TORSDOF 7
ENDMDL
MODEL 2
REMARK VINA RESULT:      -7.1      0.360      1.275
REMARK  Name = 
REMARK  9 active torsions:
REMARK  status: ('A' for Active; 'I' for Inactive)
REMARK    1  A    between atoms: C_1  and  N_2
REMARK    2  A    between atoms: N_9  and  CA_10
REMARK    3  A    between atoms: CA_10  and  C_11
REMARK    4  A    between atoms: CA_10  and  CB_13
REMARK    5  A    between atoms: C_11  and  O_12
REMARK    6  A    between atoms: CB_13  and  CG_14
REMARK    7  A    between atoms: N_20  and  C_21
REMARK    8  A    between atoms: C_21  and  C_22
REMARK    9  A    between atoms: N_28  and  C_29
REMARK                            x       y       z     vdW  Elec       q    Type
REMARK                         _______ _______ _______ _____ _____    ______ ____
ROOT
ATOM      1  C   UNK A   0       6.855   3.733  16.115  0.00  0.00    +0.000 C 
ATOM      2  N   UNK A   0       6.041   4.829  16.602  0.00  0.00    +0.000 N 
ATOM      3  C   UNK A   0       4.705   4.572  16.937  0.00  0.00    +0.000 A 
ATOM      4  O   UNK A   0       4.175   3.466  16.850  0.00  0.00    +0.000 OA
ATOM      5  C   UNK A   0       4.022   5.728  17.412  0.00  0.00    +0.000 A 
ATOM      6  C   UNK A   0       4.627   6.940  17.527  0.00  0.00    +0.000 A 
ATOM      7  N   UNK A   0       3.801   7.880  18.038  0.00  0.00    +0.000 NA
ATOM      8  C   UNK A   0       2.655   7.267  18.228  0.00  0.00    +0.000 A 
ATOM      9  N   PHE A   1       1.549   7.836  18.738  0.00  0.00    +0.000 N 
ATOM     10  N   UNK A   0       2.725   5.951  17.807  0.00  0.00    +0.000 N 
ATOM     11  N   UNK A   0       5.929   7.152  17.154  0.00  0.00    +0.000 N 
ATOM     12  C   UNK A   0       6.523   8.474  17.206  0.00  0.00    +0.000 C 
ATOM     13  C   UNK A   0       6.676   6.086  16.663  0.00  0.00    +0.000 A 
ATOM     14  O   UNK A   0       7.846   6.234  16.300  0.00  0.00    +0.000 OA
ATOM     15  H   PHE A   1       0.627   7.570  18.409  0.00  0.00    +0.000 HD
ENDROOT
BRANCH   9  16
ATOM     16  CA  PHE A   1       1.604   9.098  19.507  0.00  0.00    +0.000 C 
BRANCH  16  17
ATOM     17  C   PHE A   1       0.754   9.044  20.803  0.00  0.00    +0.000 C 
BRANCH  17  18
ATOM     18  O   PHE A   1       1.185   9.929  21.833  0.00  0.00    +0.000 OA
ATOM     19  H   PHE A   1       0.379  10.192  22.331  0.00  0.00    +0.000 HD
ENDBRANCH  17  18
ENDBRANCH  16  17
BRANCH  16  20
ATOM     20  CB  PHE A   1       1.252  10.352  18.674  0.00  0.00    +0.000 C 
BRANCH  20  21
ATOM     21  CG  PHE A   1      -0.218  10.626  18.436  0.00  0.00    +0.000 A 
ATOM     22  CD1 PHE A   1      -0.942   9.795  17.567  0.00  0.00    +0.000 A 
ATOM     23  CE1 PHE A   1      -2.321   9.943  17.422  0.00  0.00    +0.000 A 
ATOM     24  CZ  PHE A   1      -2.993  10.933  18.136  0.00  0.00    +0.000 A 
ATOM     25  CE2 PHE A   1      -2.280  11.787  18.977  0.00  0.00    +0.000 A 
ATOM     26  CD2 PHE A   1      -0.898  11.637  19.127  0.00  0.00    +0.000 A 
ENDBRANCH  20  21
ENDBRANCH  16  20
ENDBRANCH   9  16
BRANCH  10  27
ATOM     27  C   UNK A   0       1.653   4.968  17.839  0.00  0.00    +0.000 C 
BRANCH  27  28
ATOM     28  C   UNK A   0       1.614   4.171  19.127  0.00  0.00    +0.000 A 
ATOM     29  C   UNK A   0       1.245   2.816  19.088  0.00  0.00    +0.000 A 
ATOM     30  C   UNK A   0       1.287   2.030  20.242  0.00  0.00    +0.000 A 
ATOM     31  C   UNK A   0       1.700   2.582  21.451  0.00  0.00    +0.000 A 
ATOM     32  C   UNK A   0       2.060   3.924  21.510  0.00  0.00    +0.000 A 
ATOM     33  C   UNK A   0       2.020   4.711  20.358  0.00  0.00    +0.000 A 
ENDBRANCH  27  28
ENDBRANCH  10  27
TORSDOF 7
ENDMDL
MODEL 3
REMARK VINA RESULT:      -7.0      6.786      8.757
REMARK  Name = 
REMARK  9 active torsions:
REMARK  status: ('A' for Active; 'I' for Inactive)
REMARK    1  A    between atoms: C_1  and  N_2
REMARK    2  A    between atoms: N_9  and  CA_10
REMARK    3  A    between atoms: CA_10  and  C_11
REMARK    4  A    between atoms: CA_10  and  CB_13
REMARK    5  A    between atoms: C_11  and  O_12
REMARK    6  A    between atoms: CB_13  and  CG_14
REMARK    7  A    between atoms: N_20  and  C_21
REMARK    8  A    between atoms: C_21  and  C_22
REMARK    9  A    between atoms: N_28  and  C_29
REMARK                            x       y       z     vdW  Elec       q    Type
REMARK                         _______ _______ _______ _____ _____    ______ ____
ROOT
ATOM      1  C   UNK A   0       3.048  14.285  18.288  0.00  0.00    +0.000 C 
ATOM      2  N   UNK A   0       1.784  14.294  18.996  0.00  0.00    +0.000 N 
ATOM      3  C   UNK A   0       1.017  13.122  19.010  0.00  0.00    +0.000 A 
ATOM      4  O   UNK A   0       1.352  12.074  18.461  0.00  0.00    +0.000 OA
ATOM      5  C   UNK A   0      -0.193  13.261  19.749  0.00  0.00    +0.000 A 
ATOM      6  C   UNK A   0      -0.540  14.417  20.373  0.00  0.00    +0.000 A 
ATOM      7  N   UNK A   0      -1.706  14.307  21.048  0.00  0.00    +0.000 NA
ATOM      8  C   UNK A   0      -2.115  13.078  20.832  0.00  0.00    +0.000 A 
ATOM      9  N   PHE A   1      -3.241  12.538  21.332  0.00  0.00    +0.000 N 
ATOM     10  N   UNK A   0      -1.243  12.409  19.993  0.00  0.00    +0.000 N 
ATOM     11  N   UNK A   0       0.227  15.551  20.304  0.00  0.00    +0.000 N 
ATOM     12  C   UNK A   0      -0.209  16.796  20.906  0.00  0.00    +0.000 C 
ATOM     13  C   UNK A   0       1.421  15.520  19.591  0.00  0.00    +0.000 A 
ATOM     14  O   UNK A   0       2.136  16.521  19.489  0.00  0.00    +0.000 OA
ATOM     15  H   PHE A   1      -3.784  11.872  20.794  0.00  0.00    +0.000 HD
ENDROOT
BRANCH   9  16
ATOM     16  CA  PHE A   1      -3.940  13.129  22.494  0.00  0.00    +0.000 C 
BRANCH  16  17
ATOM     17  C   PHE A   1      -3.595  12.413  23.825  0.00  0.00    +0.000 C 
BRANCH  17  18
ATOM     18  O   PHE A   1      -4.724  11.984  24.580  0.00  0.00    +0.000 OA
ATOM     19  H   PHE A   1      -5.462  12.590  24.347  0.00  0.00    +0.000 HD
ENDBRANCH  17  18
ENDBRANCH  16  17
BRANCH  16  20
ATOM     20  CB  PHE A   1      -5.472  13.237  22.312  0.00  0.00    +0.000 C 
BRANCH  20  21
ATOM     21  CG  PHE A   1      -6.019  12.951  20.929  0.00  0.00    +0.000 A 
ATOM     22  CD1 PHE A   1      -6.604  11.704  20.663  0.00  0.00    +0.000 A 
ATOM     23  CE1 PHE A   1      -7.227  11.455  19.440  0.00  0.00    +0.000 A 
ATOM     24  CZ  PHE A   1      -7.262  12.446  18.463  0.00  0.00    +0.000 A 
ATOM     25  CE2 PHE A   1      -6.653  13.678  18.702  0.00  0.00    +0.000 A 
ATOM     26  CD2 PHE A   1      -6.032  13.931  19.928  0.00  0.00    +0.000 A 
ENDBRANCH  20  21
ENDBRANCH  16  20
ENDBRANCH   9  16
BRANCH  10  27
ATOM     27  C   UNK A   0      -1.372  11.042  19.512  0.00  0.00    +0.000 C 
BRANCH  27  28
ATOM     28  C   UNK A   0      -2.179  10.934  18.234  0.00  0.00    +0.000 A 
ATOM     29  C   UNK A   0      -1.724  10.099  17.200  0.00  0.00    +0.000 A 
ATOM     30  C   UNK A   0      -2.490   9.906  16.047  0.00  0.00    +0.000 A 
ATOM     31  C   UNK A   0      -3.722  10.539  15.910  0.00  0.00    +0.000 A 
ATOM     32  C   UNK A   0      -4.184  11.377  16.920  0.00  0.00    +0.000 A 
ATOM     33  C   UNK A   0      -3.421  11.570  18.073  0.00  0.00    +0.000 A 
ENDBRANCH  27  28
ENDBRANCH  10  27
TORSDOF 7
ENDMDL
MODEL 4
REMARK VINA RESULT:      -7.0      1.749      2.375
REMARK  Name = 
REMARK  9 active torsions:
REMARK  status: ('A' for Active; 'I' for Inactive)
REMARK    1  A    between atoms: C_1  and  N_2
REMARK    2  A    between atoms: N_9  and  CA_10
REMARK    3  A    between atoms: CA_10  and  C_11
REMARK    4  A    between atoms: CA_10  and  CB_13
REMARK    5  A    between atoms: C_11  and  O_12
REMARK    6  A    between atoms: CB_13  and  CG_14
REMARK    7  A    between atoms: N_20  and  C_21
REMARK    8  A    between atoms: C_21  and  C_22
REMARK    9  A    between atoms: N_28  and  C_29
REMARK                            x       y       z     vdW  Elec       q    Type
REMARK                         _______ _______ _______ _____ _____    ______ ____
ROOT
ATOM      1  C   UNK A   0       7.669   4.299  17.829  0.00  0.00    +0.000 C 
ATOM      2  N   UNK A   0       6.521   5.158  17.618  0.00  0.00    +0.000 N 
ATOM      3  C   UNK A   0       5.587   5.292  18.654  0.00  0.00    +0.000 A 
ATOM      4  O   UNK A   0       5.683   4.729  19.743  0.00  0.00    +0.000 OA
ATOM      5  C   UNK A   0       4.517   6.172  18.324  0.00  0.00    +0.000 A 
ATOM      6  C   UNK A   0       4.436   6.808  17.126  0.00  0.00    +0.000 A 
ATOM      7  N   UNK A   0       3.360   7.624  17.049  0.00  0.00    +0.000 NA
ATOM      8  C   UNK A   0       2.741   7.488  18.198  0.00  0.00    +0.000 A 
ATOM      9  N   PHE A   1       1.616   8.134  18.553  0.00  0.00    +0.000 N 
ATOM     10  N   UNK A   0       3.386   6.562  18.999  0.00  0.00    +0.000 N 
ATOM     11  N   UNK A   0       5.356   6.619  16.128  0.00  0.00    +0.000 N 
ATOM     12  C   UNK A   0       5.199   7.244  14.828  0.00  0.00    +0.000 C 
ATOM     13  C   UNK A   0       6.432   5.766  16.349  0.00  0.00    +0.000 A 
ATOM     14  O   UNK A   0       7.275   5.554  15.474  0.00  0.00    +0.000 OA
ATOM     15  H   PHE A   1       0.912   7.682  19.126  0.00  0.00    +0.000 HD
ENDROOT
BRANCH   9  16
ATOM     16  CA  PHE A   1       1.169   9.360  17.856  0.00  0.00    +0.000 C 
BRANCH  16  17
ATOM     17  C   PHE A   1       2.017  10.603  18.233  0.00  0.00    +0.000 C 
BRANCH  17  18
ATOM     18  O   PHE A   1       2.618  11.269  17.127  0.00  0.00    +0.000 OA
ATOM     19  H   PHE A   1       2.722  12.210  17.390  0.00  0.00    +0.000 HD
ENDBRANCH  17  18
ENDBRANCH  16  17
BRANCH  16  20
ATOM     20  CB  PHE A   1      -0.339   9.656  18.020  0.00  0.00    +0.000 C 
BRANCH  20  21
ATOM     21  CG  PHE A   1      -0.756  10.424  19.257  0.00  0.00    +0.000 A 
ATOM     22  CD1 PHE A   1      -0.418   9.926  20.524  0.00  0.00    +0.000 A 
ATOM     23  CE1 PHE A   1      -0.677  10.670  21.675  0.00  0.00    +0.000 A 
ATOM     24  CZ  PHE A   1      -1.288  11.917  21.574  0.00  0.00    +0.000 A 
ATOM     25  CE2 PHE A   1      -1.660  12.408  20.323  0.00  0.00    +0.000 A 
ATOM     26  CD2 PHE A   1      -1.397  11.666  19.168  0.00  0.00    +0.000 A 
ENDBRANCH  20  21
ENDBRANCH  16  20
ENDBRANCH   9  16
BRANCH  10  27
ATOM     27  C   UNK A   0       2.985   6.131  20.330  0.00  0.00    +0.000 C 
BRANCH  27  28
ATOM     28  C   UNK A   0       2.254   4.803  20.331  0.00  0.00    +0.000 A 
ATOM     29  C   UNK A   0       1.667   4.340  19.142  0.00  0.00    +0.000 A 
ATOM     30  C   UNK A   0       1.066   3.079  19.086  0.00  0.00    +0.000 A 
ATOM     31  C   UNK A   0       1.046   2.261  20.211  0.00  0.00    +0.000 A 
ATOM     32  C   UNK A   0       1.615   2.708  21.400  0.00  0.00    +0.000 A 
ATOM     33  C   UNK A   0       2.216   3.966  21.458  0.00  0.00    +0.000 A 
ENDBRANCH  27  28
ENDBRANCH  10  27
TORSDOF 7
ENDMDL
MODEL 5
REMARK VINA RESULT:      -6.9      1.794      2.479
REMARK  Name = 
REMARK  9 active torsions:
REMARK  status: ('A' for Active; 'I' for Inactive)
REMARK    1  A    between atoms: C_1  and  N_2
REMARK    2  A    between atoms: N_9  and  CA_10
REMARK    3  A    between atoms: CA_10  and  C_11
REMARK    4  A    between atoms: CA_10  and  CB_13
REMARK    5  A    between atoms: C_11  and  O_12
REMARK    6  A    between atoms: CB_13  and  CG_14
REMARK    7  A    between atoms: N_20  and  C_21
REMARK    8  A    between atoms: C_21  and  C_22
REMARK    9  A    between atoms: N_28  and  C_29
REMARK                            x       y       z     vdW  Elec       q    Type
REMARK                         _______ _______ _______ _____ _____    ______ ____
ROOT
ATOM      1  C   UNK A   0       7.683   4.253  17.753  0.00  0.00    +0.000 C 
ATOM      2  N   UNK A   0       6.529   5.113  17.588  0.00  0.00    +0.000 N 
ATOM      3  C   UNK A   0       5.616   5.218  18.646  0.00  0.00    +0.000 A 
ATOM      4  O   UNK A   0       5.735   4.628  19.718  0.00  0.00    +0.000 OA
ATOM      5  C   UNK A   0       4.537   6.102  18.359  0.00  0.00    +0.000 A 
ATOM      6  C   UNK A   0       4.429   6.768  17.179  0.00  0.00    +0.000 A 
ATOM      7  N   UNK A   0       3.350   7.582  17.144  0.00  0.00    +0.000 NA
ATOM      8  C   UNK A   0       2.755   7.415  18.302  0.00  0.00    +0.000 A 
ATOM      9  N   PHE A   1       1.636   8.049  18.695  0.00  0.00    +0.000 N 
ATOM     10  N   UNK A   0       3.418   6.471  19.066  0.00  0.00    +0.000 N 
ATOM     11  N   UNK A   0       5.330   6.607  16.158  0.00  0.00    +0.000 N 
ATOM     12  C   UNK A   0       5.145   7.263  14.878  0.00  0.00    +0.000 C 
ATOM     13  C   UNK A   0       6.412   5.752  16.336  0.00  0.00    +0.000 A 
ATOM     14  O   UNK A   0       7.239   5.565  15.439  0.00  0.00    +0.000 OA
ATOM     15  H   PHE A   1       0.945   7.580  19.271  0.00  0.00    +0.000 HD
ENDROOT
BRANCH   9  16
ATOM     16  CA  PHE A   1       1.171   9.290  18.038  0.00  0.00    +0.000 C 
BRANCH  16  17
ATOM     17  C   PHE A   1       2.243  10.411  18.056  0.00  0.00    +0.000 C 
BRANCH  17  18
ATOM     18  O   PHE A   1       1.726  11.730  17.907  0.00  0.00    +0.000 OA
ATOM     19  H   PHE A   1       1.185  11.910  18.707  0.00  0.00    +0.000 HD
ENDBRANCH  17  18
ENDBRANCH  16  17
BRANCH  16  20
ATOM     20  CB  PHE A   1      -0.178   9.815  18.580  0.00  0.00    +0.000 C 
BRANCH  20  21
ATOM     21  CG  PHE A   1      -0.267  10.065  20.071  0.00  0.00    +0.000 A 
ATOM     22  CD1 PHE A   1      -0.781  11.284  20.536  0.00  0.00    +0.000 A 
ATOM     23  CE1 PHE A   1      -0.992  11.496  21.899  0.00  0.00    +0.000 A 
ATOM     24  CZ  PHE A   1      -0.679  10.495  22.815  0.00  0.00    +0.000 A 
ATOM     25  CE2 PHE A   1      -0.134   9.291  22.368  0.00  0.00    +0.000 A 
ATOM     26  CD2 PHE A   1       0.073   9.075  21.002  0.00  0.00    +0.000 A 
ENDBRANCH  20  21
ENDBRANCH  16  20
ENDBRANCH   9  16
BRANCH  10  27
ATOM     27  C   UNK A   0       3.045   6.006  20.394  0.00  0.00    +0.000 C 
BRANCH  27  28
ATOM     28  C   UNK A   0       2.354   4.658  20.380  0.00  0.00    +0.000 A 
ATOM     29  C   UNK A   0       2.347   3.875  21.546  0.00  0.00    +0.000 A 
ATOM     30  C   UNK A   0       1.640   2.670  21.594  0.00  0.00    +0.000 A 
ATOM     31  C   UNK A   0       0.929   2.230  20.482  0.00  0.00    +0.000 A 
ATOM     32  C   UNK A   0       0.933   2.987  19.316  0.00  0.00    +0.000 A 
ATOM     33  C   UNK A   0       1.636   4.192  19.266  0.00  0.00    +0.000 A 
ENDBRANCH  27  28
ENDBRANCH  10  27
TORSDOF 7
ENDMDL
MODEL 6
REMARK VINA RESULT:      -6.9      1.704      4.483
REMARK  Name = 
REMARK  9 active torsions:
REMARK  status: ('A' for Active; 'I' for Inactive)
REMARK    1  A    between atoms: C_1  and  N_2
REMARK    2  A    between atoms: N_9  and  CA_10
REMARK    3  A    between atoms: CA_10  and  C_11
REMARK    4  A    between atoms: CA_10  and  CB_13
REMARK    5  A    between atoms: C_11  and  O_12
REMARK    6  A    between atoms: CB_13  and  CG_14
REMARK    7  A    between atoms: N_20  and  C_21
REMARK    8  A    between atoms: C_21  and  C_22
REMARK    9  A    between atoms: N_28  and  C_29
REMARK                            x       y       z     vdW  Elec       q    Type
REMARK                         _______ _______ _______ _____ _____    ______ ____
ROOT
ATOM      1  C   UNK A   0       3.687   1.272  17.691  0.00  0.00    +0.000 C 
ATOM      2  N   UNK A   0       3.264   2.604  18.074  0.00  0.00    +0.000 N 
ATOM      3  C   UNK A   0       3.890   3.703  17.472  0.00  0.00    +0.000 A 
ATOM      4  O   UNK A   0       4.779   3.610  16.627  0.00  0.00    +0.000 OA
ATOM      5  C   UNK A   0       3.375   4.951  17.927  0.00  0.00    +0.000 A 
ATOM      6  C   UNK A   0       2.376   5.039  18.844  0.00  0.00    +0.000 A 
ATOM      7  N   UNK A   0       2.019   6.319  19.094  0.00  0.00    +0.000 NA
ATOM      8  C   UNK A   0       2.814   7.051  18.348  0.00  0.00    +0.000 A 
ATOM      9  N   PHE A   1       2.793   8.393  18.281  0.00  0.00    +0.000 N 
ATOM     10  N   UNK A   0       3.705   6.255  17.650  0.00  0.00    +0.000 N 
ATOM     11  N   UNK A   0       1.815   3.935  19.432  0.00  0.00    +0.000 N 
ATOM     12  C   UNK A   0       0.811   4.061  20.470  0.00  0.00    +0.000 C 
ATOM     13  C   UNK A   0       2.263   2.670  19.065  0.00  0.00    +0.000 A 
ATOM     14  O   UNK A   0       1.798   1.649  19.579  0.00  0.00    +0.000 OA
ATOM     15  H   PHE A   1       3.650   8.924  18.163  0.00  0.00    +0.000 HD
ENDROOT
BRANCH   9  16
ATOM     16  CA  PHE A   1       1.623   9.179  18.730  0.00  0.00    +0.000 C 
BRANCH  16  17
ATOM     17  C   PHE A   1       1.046   8.671  20.077  0.00  0.00    +0.000 C 
BRANCH  17  18
ATOM     18  O   PHE A   1       1.975   8.669  21.158  0.00  0.00    +0.000 OA
ATOM     19  H   PHE A   1       2.872   8.656  20.756  0.00  0.00    +0.000 HD
ENDBRANCH  17  18
ENDBRANCH  16  17
BRANCH  16  20
ATOM     20  CB  PHE A   1       0.507   9.299  17.668  0.00  0.00    +0.000 C 
BRANCH  20  21
ATOM     21  CG  PHE A   1      -0.697  10.143  18.031  0.00  0.00    +0.000 A 
ATOM     22  CD1 PHE A   1      -0.510  11.343  18.733  0.00  0.00    +0.000 A 
ATOM     23  CE1 PHE A   1      -1.582  12.203  18.972  0.00  0.00    +0.000 A 
ATOM     24  CZ  PHE A   1      -2.857  11.867  18.523  0.00  0.00    +0.000 A 
ATOM     25  CE2 PHE A   1      -3.062  10.660  17.855  0.00  0.00    +0.000 A 
ATOM     26  CD2 PHE A   1      -1.988   9.800  17.609  0.00  0.00    +0.000 A 
ENDBRANCH  20  21
ENDBRANCH  16  20
ENDBRANCH   9  16
BRANCH  10  27
ATOM     27  C   UNK A   0       4.749   6.705  16.741  0.00  0.00    +0.000 C 
BRANCH  27  28
ATOM     28  C   UNK A   0       6.046   7.046  17.446  0.00  0.00    +0.000 A 
ATOM     29  C   UNK A   0       6.665   6.077  18.254  0.00  0.00    +0.000 A 
ATOM     30  C   UNK A   0       7.907   6.327  18.844  0.00  0.00    +0.000 A 
ATOM     31  C   UNK A   0       8.551   7.543  18.636  0.00  0.00    +0.000 A 
ATOM     32  C   UNK A   0       7.948   8.516  17.846  0.00  0.00    +0.000 A 
ATOM     33  C   UNK A   0       6.708   8.269  17.255  0.00  0.00    +0.000 A 
ENDBRANCH  27  28
ENDBRANCH  10  27
TORSDOF 7
ENDMDL
MODEL 7
REMARK VINA RESULT:      -6.9      2.175      4.870
REMARK  Name = 
REMARK  9 active torsions:
REMARK  status: ('A' for Active; 'I' for Inactive)
REMARK    1  A    between atoms: C_1  and  N_2
REMARK    2  A    between atoms: N_9  and  CA_10
REMARK    3  A    between atoms: CA_10  and  C_11
REMARK    4  A    between atoms: CA_10  and  CB_13
REMARK    5  A    between atoms: C_11  and  O_12
REMARK    6  A    between atoms: CB_13  and  CG_14
REMARK    7  A    between atoms: N_20  and  C_21
REMARK    8  A    between atoms: C_21  and  C_22
REMARK    9  A    between atoms: N_28  and  C_29
REMARK                            x       y       z     vdW  Elec       q    Type
REMARK                         _______ _______ _______ _____ _____    ______ ____
ROOT
ATOM      1  C   UNK A   0       3.838   1.303  17.763  0.00  0.00    +0.000 C 
ATOM      2  N   UNK A   0       3.342   2.621  18.105  0.00  0.00    +0.000 N 
ATOM      3  C   UNK A   0       3.928   3.736  17.491  0.00  0.00    +0.000 A 
ATOM      4  O   UNK A   0       4.839   3.668  16.667  0.00  0.00    +0.000 OA
ATOM      5  C   UNK A   0       3.342   4.966  17.904  0.00  0.00    +0.000 A 
ATOM      6  C   UNK A   0       2.319   5.027  18.797  0.00  0.00    +0.000 A 
ATOM      7  N   UNK A   0       1.895   6.293  19.008  0.00  0.00    +0.000 NA
ATOM      8  C   UNK A   0       2.669   7.045  18.261  0.00  0.00    +0.000 A 
ATOM      9  N   PHE A   1       2.585   8.384  18.162  0.00  0.00    +0.000 N 
ATOM     10  N   UNK A   0       3.614   6.279  17.602  0.00  0.00    +0.000 N 
ATOM     11  N   UNK A   0       1.800   3.910  19.399  0.00  0.00    +0.000 N 
ATOM     12  C   UNK A   0       0.767   4.010  20.412  0.00  0.00    +0.000 C 
ATOM     13  C   UNK A   0       2.317   2.661  19.072  0.00  0.00    +0.000 A 
ATOM     14  O   UNK A   0       1.891   1.630  19.601  0.00  0.00    +0.000 OA
ATOM     15  H   PHE A   1       3.417   8.952  18.050  0.00  0.00    +0.000 HD
ENDROOT
BRANCH   9  16
ATOM     16  CA  PHE A   1       1.368   9.120  18.567  0.00  0.00    +0.000 C 
BRANCH  16  17
ATOM     17  C   PHE A   1       0.298   9.166  17.445  0.00  0.00    +0.000 C 
BRANCH  17  18
ATOM     18  O   PHE A   1      -0.540  10.318  17.470  0.00  0.00    +0.000 OA
ATOM     19  H   PHE A   1      -0.081  10.986  18.025  0.00  0.00    +0.000 HD
ENDBRANCH  17  18
ENDBRANCH  16  17
BRANCH  16  20
ATOM     20  CB  PHE A   1       1.649  10.539  19.112  0.00  0.00    +0.000 C 
BRANCH  20  21
ATOM     21  CG  PHE A   1       0.886  10.961  20.350  0.00  0.00    +0.000 A 
ATOM     22  CD1 PHE A   1       0.704  12.327  20.615  0.00  0.00    +0.000 A 
ATOM     23  CE1 PHE A   1      -0.099  12.747  21.676  0.00  0.00    +0.000 A 
ATOM     24  CZ  PHE A   1      -0.719  11.805  22.493  0.00  0.00    +0.000 A 
ATOM     25  CE2 PHE A   1      -0.517  10.444  22.262  0.00  0.00    +0.000 A 
ATOM     26  CD2 PHE A   1       0.282  10.022  21.195  0.00  0.00    +0.000 A 
ENDBRANCH  20  21
ENDBRANCH  16  20
ENDBRANCH   9  16
BRANCH  10  27
ATOM     27  C   UNK A   0       4.655   6.759  16.706  0.00  0.00    +0.000 C 
BRANCH  27  28
ATOM     28  C   UNK A   0       5.962   7.050  17.414  0.00  0.00    +0.000 A 
ATOM     29  C   UNK A   0       6.552   6.053  18.209  0.00  0.00    +0.000 A 
ATOM     30  C   UNK A   0       7.802   6.256  18.801  0.00  0.00    +0.000 A 
ATOM     31  C   UNK A   0       8.483   7.454  18.606  0.00  0.00    +0.000 A 
ATOM     32  C   UNK A   0       7.910   8.456  17.829  0.00  0.00    +0.000 A 
ATOM     33  C   UNK A   0       6.663   8.254  17.236  0.00  0.00    +0.000 A 
ENDBRANCH  27  28
ENDBRANCH  10  27
TORSDOF 7
ENDMDL
MODEL 8
REMARK VINA RESULT:      -6.8      2.048      4.714
REMARK  Name = 
REMARK  9 active torsions:
REMARK  status: ('A' for Active; 'I' for Inactive)
REMARK    1  A    between atoms: C_1  and  N_2
REMARK    2  A    between atoms: N_9  and  CA_10
REMARK    3  A    between atoms: CA_10  and  C_11
REMARK    4  A    between atoms: CA_10  and  CB_13
REMARK    5  A    between atoms: C_11  and  O_12
REMARK    6  A    between atoms: CB_13  and  CG_14
REMARK    7  A    between atoms: N_20  and  C_21
REMARK    8  A    between atoms: C_21  and  C_22
REMARK    9  A    between atoms: N_28  and  C_29
REMARK                            x       y       z     vdW  Elec       q    Type
REMARK                         _______ _______ _______ _____ _____    ______ ____
ROOT
ATOM      1  C   UNK A   0       3.719   1.140  18.173  0.00  0.00    +0.000 C 
ATOM      2  N   UNK A   0       3.300   2.510  18.387  0.00  0.00    +0.000 N 
ATOM      3  C   UNK A   0       3.950   3.527  17.675  0.00  0.00    +0.000 A 
ATOM      4  O   UNK A   0       4.856   3.330  16.868  0.00  0.00    +0.000 OA
ATOM      5  C   UNK A   0       3.436   4.823  17.968  0.00  0.00    +0.000 A 
ATOM      6  C   UNK A   0       2.417   5.025  18.844  0.00  0.00    +0.000 A 
ATOM      7  N   UNK A   0       2.067   6.327  18.934  0.00  0.00    +0.000 NA
ATOM      8  C   UNK A   0       2.884   6.961  18.126  0.00  0.00    +0.000 A 
ATOM      9  N   PHE A   1       2.878   8.287  17.901  0.00  0.00    +0.000 N 
ATOM     10  N   UNK A   0       3.784   6.083  17.547  0.00  0.00    +0.000 N 
ATOM     11  N   UNK A   0       1.833   4.001  19.544  0.00  0.00    +0.000 N 
ATOM     12  C   UNK A   0       0.807   4.254  20.537  0.00  0.00    +0.000 C 
ATOM     13  C   UNK A   0       2.277   2.699  19.339  0.00  0.00    +0.000 A 
ATOM     14  O   UNK A   0       1.792   1.748  19.959  0.00  0.00    +0.000 OA
ATOM     15  H   PHE A   1       3.741   8.794  17.742  0.00  0.00    +0.000 HD
ENDROOT
BRANCH   9  16
ATOM     16  CA  PHE A   1       1.705   9.127  18.227  0.00  0.00    +0.000 C 
BRANCH  16  17
ATOM     17  C   PHE A   1       1.784  10.537  17.585  0.00  0.00    +0.000 C 
BRANCH  17  18
ATOM     18  O   PHE A   1       2.571  11.476  18.311  0.00  0.00    +0.000 OA
ATOM     19  H   PHE A   1       2.104  11.635  19.161  0.00  0.00    +0.000 HD
ENDBRANCH  17  18
ENDBRANCH  16  17
BRANCH  16  20
ATOM     20  CB  PHE A   1       1.414   9.231  19.742  0.00  0.00    +0.000 C 
BRANCH  20  21
ATOM     21  CG  PHE A   1       0.337  10.207  20.167  0.00  0.00    +0.000 A 
ATOM     22  CD1 PHE A   1       0.561  11.044  21.270  0.00  0.00    +0.000 A 
ATOM     23  CE1 PHE A   1      -0.357  12.038  21.610  0.00  0.00    +0.000 A 
ATOM     24  CZ  PHE A   1      -1.519  12.197  20.858  0.00  0.00    +0.000 A 
ATOM     25  CE2 PHE A   1      -1.771  11.348  19.781  0.00  0.00    +0.000 A 
ATOM     26  CD2 PHE A   1      -0.848  10.356  19.436  0.00  0.00    +0.000 A 
ENDBRANCH  20  21
ENDBRANCH  16  20
ENDBRANCH   9  16
BRANCH  10  27
ATOM     27  C   UNK A   0       4.852   6.417  16.617  0.00  0.00    +0.000 C 
BRANCH  27  28
ATOM     28  C   UNK A   0       6.158   6.756  17.306  0.00  0.00    +0.000 A 
ATOM     29  C   UNK A   0       6.738   8.018  17.099  0.00  0.00    +0.000 A 
ATOM     30  C   UNK A   0       7.892   8.397  17.791  0.00  0.00    +0.000 A 
ATOM     31  C   UNK A   0       8.482   7.525  18.701  0.00  0.00    +0.000 A 
ATOM     32  C   UNK A   0       7.926   6.267  18.911  0.00  0.00    +0.000 A 
ATOM     33  C   UNK A   0       6.772   5.888  18.223  0.00  0.00    +0.000 A 
ENDBRANCH  27  28
ENDBRANCH  10  27
TORSDOF 7
ENDMDL
MODEL 9
REMARK VINA RESULT:      -6.8      6.751      8.670
REMARK  Name = 
REMARK  9 active torsions:
REMARK  status: ('A' for Active; 'I' for Inactive)
REMARK    1  A    between atoms: C_1  and  N_2
REMARK    2  A    between atoms: N_9  and  CA_10
REMARK    3  A    between atoms: CA_10  and  C_11
REMARK    4  A    between atoms: CA_10  and  CB_13
REMARK    5  A    between atoms: C_11  and  O_12
REMARK    6  A    between atoms: CB_13  and  CG_14
REMARK    7  A    between atoms: N_20  and  C_21
REMARK    8  A    between atoms: C_21  and  C_22
REMARK    9  A    between atoms: N_28  and  C_29
REMARK                            x       y       z     vdW  Elec       q    Type
REMARK                         _______ _______ _______ _____ _____    ______ ____
ROOT
ATOM      1  C   UNK A   0       2.890  13.952  18.215  0.00  0.00    +0.000 C 
ATOM      2  N   UNK A   0       1.607  14.030  18.884  0.00  0.00    +0.000 N 
ATOM      3  C   UNK A   0       0.791  12.891  18.898  0.00  0.00    +0.000 A 
ATOM      4  O   UNK A   0       1.098  11.819  18.381  0.00  0.00    +0.000 OA
ATOM      5  C   UNK A   0      -0.434  13.097  19.596  0.00  0.00    +0.000 A 
ATOM      6  C   UNK A   0      -0.750  14.280  20.185  0.00  0.00    +0.000 A 
ATOM      7  N   UNK A   0      -1.940  14.234  20.825  0.00  0.00    +0.000 NA
ATOM      8  C   UNK A   0      -2.394  13.019  20.622  0.00  0.00    +0.000 A 
ATOM      9  N   PHE A   1      -3.556  12.537  21.098  0.00  0.00    +0.000 N 
ATOM     10  N   UNK A   0      -1.526  12.295  19.824  0.00  0.00    +0.000 N 
ATOM     11  N   UNK A   0       0.066  15.379  20.116  0.00  0.00    +0.000 N 
ATOM     12  C   UNK A   0      -0.335  16.654  20.679  0.00  0.00    +0.000 C 
ATOM     13  C   UNK A   0       1.279  15.283  19.442  0.00  0.00    +0.000 A 
ATOM     14  O   UNK A   0       2.038  16.251  19.341  0.00  0.00    +0.000 OA
ATOM     15  H   PHE A   1      -4.110  11.883  20.556  0.00  0.00    +0.000 HD
ENDROOT
BRANCH   9  16
ATOM     16  CA  PHE A   1      -4.265  13.182  22.225  0.00  0.00    +0.000 C 
BRANCH  16  17
ATOM     17  C   PHE A   1      -3.829  12.619  23.603  0.00  0.00    +0.000 C 
BRANCH  17  18
ATOM     18  O   PHE A   1      -2.678  11.780  23.564  0.00  0.00    +0.000 OA
ATOM     19  H   PHE A   1      -2.134  12.015  24.348  0.00  0.00    +0.000 HD
ENDBRANCH  17  18
ENDBRANCH  16  17
BRANCH  16  20
ATOM     20  CB  PHE A   1      -5.804  13.161  22.087  0.00  0.00    +0.000 C 
BRANCH  20  21
ATOM     21  CG  PHE A   1      -6.365  12.908  20.704  0.00  0.00    +0.000 A 
ATOM     22  CD1 PHE A   1      -6.431  13.963  19.783  0.00  0.00    +0.000 A 
ATOM     23  CE1 PHE A   1      -6.825  13.736  18.464  0.00  0.00    +0.000 A 
ATOM     24  CZ  PHE A   1      -7.170  12.450  18.054  0.00  0.00    +0.000 A 
ATOM     25  CE2 PHE A   1      -7.142  11.398  18.969  0.00  0.00    +0.000 A 
ATOM     26  CD2 PHE A   1      -6.743  11.624  20.290  0.00  0.00    +0.000 A 
ENDBRANCH  20  21
ENDBRANCH  16  20
ENDBRANCH   9  16
BRANCH  10  27
ATOM     27  C   UNK A   0      -1.698  10.924  19.368  0.00  0.00    +0.000 C 
BRANCH  27  28
ATOM     28  C   UNK A   0      -2.368  10.828  18.012  0.00  0.00    +0.000 A 
ATOM     29  C   UNK A   0      -1.823   9.981  17.033  0.00  0.00    +0.000 A 
ATOM     30  C   UNK A   0      -2.467   9.799  15.806  0.00  0.00    +0.000 A 
ATOM     31  C   UNK A   0      -3.664  10.456  15.538  0.00  0.00    +0.000 A 
ATOM     32  C   UNK A   0      -4.213  11.306  16.493  0.00  0.00    +0.000 A 
ATOM     33  C   UNK A   0      -3.573  11.488  17.719  0.00  0.00    +0.000 A 
ENDBRANCH  27  28
ENDBRANCH  10  27
TORSDOF 7
ENDMDL
