MODEL 1
REMARK VINA RESULT:      -8.0      0.000      0.000
REMARK  Name = 
REMARK  9 active torsions:
REMARK  status: ('A' for Active; 'I' for Inactive)
REMARK    1  A    between atoms: C_1  and  C_2
REMARK    2  A    between atoms: C_2  and  C_3
REMARK    3  A    between atoms: C_3  and  C_4
REMARK    4  A    between atoms: C_4  and  N_5
REMARK    5  A    between atoms: N_5  and  C_21
REMARK    6  A    between atoms: C_6  and  C_8
REMARK    7  A    between atoms: C_10  and  C_11
REMARK    8  A    between atoms: C_11  and  N_12
REMARK    9  A    between atoms: C_15  and  O_16
REMARK                            x       y       z     vdW  Elec       q    Type
REMARK                         _______ _______ _______ _____ _____    ______ ____
ROOT
ATOM      1  N   UNL     1       3.246   5.818  18.026  0.00  0.00    +0.000 N 
ATOM      2  C   UNL     1       3.376   7.231  17.900  0.00  0.00    +0.000 C 
ATOM      3  O   UNL     1       4.396   7.746  17.440  0.00  0.00    +0.000 OA
ENDROOT
BRANCH   1   4
ATOM      4  C   UNL     1       2.053   5.151  18.658  0.00  0.00    +0.000 C 
ATOM      5  C   UNL     1       1.472   4.047  17.756  0.00  0.00    +0.000 C 
ATOM      6  C   UNL     1       2.083   2.666  17.937  0.00  0.00    +0.000 C 
ATOM      7  C   UNL     1       1.436   1.829  19.027  0.00  0.00    +0.000 C 
ATOM      8  C   UNL     1       1.689   2.347  20.439  0.00  0.00    +0.000 C 
ATOM      9  C   UNL     1       1.209   3.775  20.698  0.00  0.00    +0.000 C 
ATOM     10  C   UNL     1       2.180   4.830  20.162  0.00  0.00    +0.000 C 
ENDBRANCH   1   4
BRANCH   2  11
ATOM     11  C   UNL     1       2.324   8.108  18.451  0.00  0.00    +0.000 A 
ATOM     12  C   UNL     1       1.488   8.993  17.707  0.00  0.00    +0.000 A 
ATOM     13  C   UNL     1       0.869   9.769  18.661  0.00  0.00    +0.000 A 
ATOM     14  O   UNL     1       1.160   9.269  19.884  0.00  0.00    +0.000 OA
ATOM     15  N   UNL     1       2.024   8.199  19.759  0.00  0.00    +0.000 NA
BRANCH  13  16
ATOM     16  C   UNL     1       0.010  10.983  18.634  0.00  0.00    +0.000 C 
BRANCH  16  17
ATOM     17  N   UNL     1      -1.447  10.706  18.752  0.00  0.00    +0.000 NA
ATOM     18  C   UNL     1      -1.950   9.977  17.572  0.00  0.00    +0.000 C 
ATOM     19  C   UNL     1      -3.474   9.829  17.553  0.00  0.00    +0.000 C 
ATOM     20  C   UNL     1      -4.175  11.173  17.699  0.00  0.00    +0.000 C 
ATOM     21  C   UNL     1      -3.670  11.888  18.943  0.00  0.00    +0.000 C 
ATOM     22  C   UNL     1      -2.144  11.991  18.961  0.00  0.00    +0.000 C 
BRANCH  20  23
ATOM     23  O   UNL     1      -3.985  11.975  16.538  0.00  0.00    +0.000 OA
ATOM     24  H   UNL     1      -3.209  12.545  16.663  0.00  0.00    +0.000 HD
ENDBRANCH  20  23
ENDBRANCH  16  17
ENDBRANCH  13  16
ENDBRANCH   2  11
BRANCH   1  25
ATOM     25  C   UNL     1       4.418   5.023  17.612  0.00  0.00    +0.000 C 
BRANCH  25  26
ATOM     26  C   UNL     1       5.541   4.788  18.629  0.00  0.00    +0.000 C 
BRANCH  26  28
ATOM     27  C   UNL     1       7.758   5.773  19.203  0.00  0.00    +0.000 C 
ATOM     28  C   UNL     1       6.968   5.011  18.142  0.00  0.00    +0.000 C 
ENDBRANCH  26  28
ENDBRANCH  25  26
ENDBRANCH   1  25
TORSDOF 8
ENDMDL
MODEL 2
REMARK VINA RESULT:      -8.0      0.937      1.262
REMARK  Name = 
REMARK  9 active torsions:
REMARK  status: ('A' for Active; 'I' for Inactive)
REMARK    1  A    between atoms: C_1  and  C_2
REMARK    2  A    between atoms: C_2  and  C_3
REMARK    3  A    between atoms: C_3  and  C_4
REMARK    4  A    between atoms: C_4  and  N_5
REMARK    5  A    between atoms: N_5  and  C_21
REMARK    6  A    between atoms: C_6  and  C_8
REMARK    7  A    between atoms: C_10  and  C_11
REMARK    8  A    between atoms: C_11  and  N_12
REMARK    9  A    between atoms: C_15  and  O_16
REMARK                            x       y       z     vdW  Elec       q    Type
REMARK                         _______ _______ _______ _____ _____    ______ ____
ROOT
ATOM      1  N   UNL     1       3.317   5.788  18.125  0.00  0.00    +0.000 N 
ATOM      2  C   UNL     1       3.422   7.197  17.944  0.00  0.00    +0.000 C 
ATOM      3  O   UNL     1       4.430   7.712  17.458  0.00  0.00    +0.000 OA
ENDROOT
BRANCH   1   4
ATOM      4  C   UNL     1       2.139   5.125  18.788  0.00  0.00    +0.000 C 
ATOM      5  C   UNL     1       1.493   4.065  17.879  0.00  0.00    +0.000 C 
ATOM      6  C   UNL     1       2.080   2.666  17.987  0.00  0.00    +0.000 C 
ATOM      7  C   UNL     1       1.464   1.808  19.079  0.00  0.00    +0.000 C 
ATOM      8  C   UNL     1       1.792   2.272  20.493  0.00  0.00    +0.000 C 
ATOM      9  C   UNL     1       1.357   3.701  20.820  0.00  0.00    +0.000 C 
ATOM     10  C   UNL     1       2.327   4.753  20.275  0.00  0.00    +0.000 C 
ENDBRANCH   1   4
BRANCH   2  11
ATOM     11  C   UNL     1       2.359   8.077  18.467  0.00  0.00    +0.000 A 
ATOM     12  C   UNL     1       1.559   8.980  17.705  0.00  0.00    +0.000 A 
ATOM     13  C   UNL     1       0.912   9.749  18.646  0.00  0.00    +0.000 A 
ATOM     14  O   UNL     1       1.152   9.229  19.872  0.00  0.00    +0.000 OA
ATOM     15  N   UNL     1       2.010   8.153  19.764  0.00  0.00    +0.000 NA
BRANCH  13  16
ATOM     16  C   UNL     1       0.065  10.971  18.604  0.00  0.00    +0.000 C 
BRANCH  16  17
ATOM     17  N   UNL     1      -1.394  10.711  18.725  0.00  0.00    +0.000 NA
ATOM     18  C   UNL     1      -1.899   9.949  17.567  0.00  0.00    +0.000 C 
ATOM     19  C   UNL     1      -3.424   9.814  17.546  0.00  0.00    +0.000 C 
ATOM     20  C   UNL     1      -4.114  11.168  17.645  0.00  0.00    +0.000 C 
ATOM     21  C   UNL     1      -3.607  11.919  18.867  0.00  0.00    +0.000 C 
ATOM     22  C   UNL     1      -2.081  12.008  18.889  0.00  0.00    +0.000 C 
BRANCH  20  23
ATOM     23  O   UNL     1      -3.912  11.930  16.460  0.00  0.00    +0.000 OA
ATOM     24  H   UNL     1      -3.014  12.302  16.464  0.00  0.00    +0.000 HD
ENDBRANCH  20  23
ENDBRANCH  16  17
ENDBRANCH  13  16
ENDBRANCH   2  11
BRANCH   1  25
ATOM     25  C   UNL     1       4.500   4.998  17.734  0.00  0.00    +0.000 C 
BRANCH  25  26
ATOM     26  C   UNL     1       4.699   4.660  16.252  0.00  0.00    +0.000 C 
BRANCH  26  28
ATOM     27  C   UNL     1       6.186   3.974  14.372  0.00  0.00    +0.000 C 
ATOM     28  C   UNL     1       5.972   3.907  15.882  0.00  0.00    +0.000 C 
ENDBRANCH  26  28
ENDBRANCH  25  26
ENDBRANCH   1  25
TORSDOF 8
ENDMDL
MODEL 3
REMARK VINA RESULT:      -7.4      1.461      3.711
REMARK  Name = 
REMARK  9 active torsions:
REMARK  status: ('A' for Active; 'I' for Inactive)
REMARK    1  A    between atoms: C_1  and  C_2
REMARK    2  A    between atoms: C_2  and  C_3
REMARK    3  A    between atoms: C_3  and  C_4
REMARK    4  A    between atoms: C_4  and  N_5
REMARK    5  A    between atoms: N_5  and  C_21
REMARK    6  A    between atoms: C_6  and  C_8
REMARK    7  A    between atoms: C_10  and  C_11
REMARK    8  A    between atoms: C_11  and  N_12
REMARK    9  A    between atoms: C_15  and  O_16
REMARK                            x       y       z     vdW  Elec       q    Type
REMARK                         _______ _______ _______ _____ _____    ______ ____
ROOT
ATOM      1  N   UNL     1       3.693   5.405  19.046  0.00  0.00    +0.000 N 
ATOM      2  C   UNL     1       2.629   6.196  19.566  0.00  0.00    +0.000 C 
ATOM      3  O   UNL     1       1.857   5.758  20.420  0.00  0.00    +0.000 OA
ENDROOT
BRANCH   1   4
ATOM      4  C   UNL     1       4.607   5.871  17.944  0.00  0.00    +0.000 C 
ATOM      5  C   UNL     1       6.059   6.021  18.432  0.00  0.00    +0.000 C 
ATOM      6  C   UNL     1       6.915   4.768  18.334  0.00  0.00    +0.000 C 
ATOM      7  C   UNL     1       7.603   4.579  16.992  0.00  0.00    +0.000 C 
ATOM      8  C   UNL     1       6.650   4.262  15.845  0.00  0.00    +0.000 C 
ATOM      9  C   UNL     1       5.571   5.316  15.593  0.00  0.00    +0.000 C 
ATOM     10  C   UNL     1       4.397   5.203  16.568  0.00  0.00    +0.000 C 
ENDBRANCH   1   4
BRANCH   2  11
ATOM     11  C   UNL     1       2.358   7.524  18.979  0.00  0.00    +0.000 A 
ATOM     12  C   UNL     1       1.580   8.565  19.569  0.00  0.00    +0.000 A 
ATOM     13  C   UNL     1       1.401   9.480  18.557  0.00  0.00    +0.000 A 
ATOM     14  O   UNL     1       2.165   9.115  17.501  0.00  0.00    +0.000 OA
ATOM     15  N   UNL     1       2.808   7.925  17.777  0.00  0.00    +0.000 NA
BRANCH  13  16
ATOM     16  C   UNL     1       0.578  10.706  18.381  0.00  0.00    +0.000 C 
BRANCH  16  17
ATOM     17  N   UNL     1      -0.878  10.506  18.613  0.00  0.00    +0.000 NA
ATOM     18  C   UNL     1      -1.512   9.827  17.467  0.00  0.00    +0.000 C 
ATOM     19  C   UNL     1      -3.039   9.763  17.569  0.00  0.00    +0.000 C 
ATOM     20  C   UNL     1      -3.651  11.140  17.788  0.00  0.00    +0.000 C 
ATOM     21  C   UNL     1      -3.010  11.804  18.997  0.00  0.00    +0.000 C 
ATOM     22  C   UNL     1      -1.484  11.823  18.894  0.00  0.00    +0.000 C 
BRANCH  20  23
ATOM     23  O   UNL     1      -3.510  11.950  16.627  0.00  0.00    +0.000 OA
ATOM     24  H   UNL     1      -4.241  11.766  16.014  0.00  0.00    +0.000 HD
ENDBRANCH  20  23
ENDBRANCH  16  17
ENDBRANCH  13  16
ENDBRANCH   2  11
BRANCH   1  25
ATOM     25  C   UNL     1       3.784   4.026  19.563  0.00  0.00    +0.000 C 
BRANCH  25  26
ATOM     26  C   UNL     1       3.272   2.878  18.685  0.00  0.00    +0.000 C 
BRANCH  26  28
ATOM     27  C   UNL     1       0.835   2.448  18.990  0.00  0.00    +0.000 C 
ATOM     28  C   UNL     1       1.890   3.049  18.065  0.00  0.00    +0.000 C 
ENDBRANCH  26  28
ENDBRANCH  25  26
ENDBRANCH   1  25
TORSDOF 8
ENDMDL
MODEL 4
REMARK VINA RESULT:      -7.4      5.560      8.353
REMARK  Name = 
REMARK  9 active torsions:
REMARK  status: ('A' for Active; 'I' for Inactive)
REMARK    1  A    between atoms: C_1  and  C_2
REMARK    2  A    between atoms: C_2  and  C_3
REMARK    3  A    between atoms: C_3  and  C_4
REMARK    4  A    between atoms: C_4  and  N_5
REMARK    5  A    between atoms: N_5  and  C_21
REMARK    6  A    between atoms: C_6  and  C_8
REMARK    7  A    between atoms: C_10  and  C_11
REMARK    8  A    between atoms: C_11  and  N_12
REMARK    9  A    between atoms: C_15  and  O_16
REMARK                            x       y       z     vdW  Elec       q    Type
REMARK                         _______ _______ _______ _____ _____    ______ ____
ROOT
ATOM      1  N   UNL     1       5.986   5.018  16.893  0.00  0.00    +0.000 N 
ATOM      2  C   UNL     1       7.040   5.883  16.479  0.00  0.00    +0.000 C 
ATOM      3  O   UNL     1       7.689   5.664  15.455  0.00  0.00    +0.000 OA
ENDROOT
BRANCH   1   4
ATOM      4  C   UNL     1       5.223   5.201  18.177  0.00  0.00    +0.000 C 
ATOM      5  C   UNL     1       3.959   6.055  17.974  0.00  0.00    +0.000 C 
ATOM      6  C   UNL     1       2.708   5.287  17.579  0.00  0.00    +0.000 C 
ATOM      7  C   UNL     1       1.905   4.747  18.751  0.00  0.00    +0.000 C 
ATOM      8  C   UNL     1       2.598   3.624  19.513  0.00  0.00    +0.000 C 
ATOM      9  C   UNL     1       3.961   3.989  20.102  0.00  0.00    +0.000 C 
ATOM     10  C   UNL     1       5.084   3.944  19.062  0.00  0.00    +0.000 C 
ENDBRANCH   1   4
BRANCH   2  11
ATOM     11  C   UNL     1       7.456   6.992  17.359  0.00  0.00    +0.000 A 
ATOM     12  C   UNL     1       7.129   8.371  17.191  0.00  0.00    +0.000 A 
ATOM     13  C   UNL     1       7.943   9.032  18.084  0.00  0.00    +0.000 A 
ATOM     14  O   UNL     1       8.570   8.117  18.860  0.00  0.00    +0.000 OA
ATOM     15  N   UNL     1       8.230   6.843  18.450  0.00  0.00    +0.000 NA
BRANCH  13  16
ATOM     16  C   UNL     1       8.273  10.457  18.350  0.00  0.00    +0.000 C 
BRANCH  16  17
ATOM     17  N   UNL     1       9.647  10.681  18.874  0.00  0.00    +0.000 NA
ATOM     18  C   UNL     1       9.620  11.457  20.128  0.00  0.00    +0.000 C 
ATOM     19  C   UNL     1      11.010  11.878  20.613  0.00  0.00    +0.000 C 
ATOM     20  C   UNL     1      11.786  12.620  19.534  0.00  0.00    +0.000 C 
ATOM     21  C   UNL     1      11.835  11.785  18.264  0.00  0.00    +0.000 C 
ATOM     22  C   UNL     1      10.440  11.343  17.819  0.00  0.00    +0.000 C 
BRANCH  20  23
ATOM     23  O   UNL     1      11.211  13.898  19.281  0.00  0.00    +0.000 OA
ATOM     24  H   UNL     1      11.750  14.371  18.627  0.00  0.00    +0.000 HD
ENDBRANCH  20  23
ENDBRANCH  16  17
ENDBRANCH  13  16
ENDBRANCH   2  11
BRANCH   1  25
ATOM     25  C   UNL     1       5.753   3.834  16.044  0.00  0.00    +0.000 C 
BRANCH  25  26
ATOM     26  C   UNL     1       5.198   4.043  14.630  0.00  0.00    +0.000 C 
BRANCH  26  28
ATOM     27  C   UNL     1       5.294   3.357  12.235  0.00  0.00    +0.000 C 
ATOM     28  C   UNL     1       6.124   3.701  13.469  0.00  0.00    +0.000 C 
ENDBRANCH  26  28
ENDBRANCH  25  26
ENDBRANCH   1  25
TORSDOF 8
ENDMDL
MODEL 5
REMARK VINA RESULT:      -7.3      1.915      4.237
REMARK  Name = 
REMARK  9 active torsions:
REMARK  status: ('A' for Active; 'I' for Inactive)
REMARK    1  A    between atoms: C_1  and  C_2
REMARK    2  A    between atoms: C_2  and  C_3
REMARK    3  A    between atoms: C_3  and  C_4
REMARK    4  A    between atoms: C_4  and  N_5
REMARK    5  A    between atoms: N_5  and  C_21
REMARK    6  A    between atoms: C_6  and  C_8
REMARK    7  A    between atoms: C_10  and  C_11
REMARK    8  A    between atoms: C_11  and  N_12
REMARK    9  A    between atoms: C_15  and  O_16
REMARK                            x       y       z     vdW  Elec       q    Type
REMARK                         _______ _______ _______ _____ _____    ______ ____
ROOT
ATOM      1  N   UNL     1       3.908   4.290  19.208  0.00  0.00    +0.000 N 
ATOM      2  C   UNL     1       2.933   4.811  20.108  0.00  0.00    +0.000 C 
ATOM      3  O   UNL     1       2.455   4.121  21.009  0.00  0.00    +0.000 OA
ENDROOT
BRANCH   1   4
ATOM      4  C   UNL     1       4.457   5.071  18.044  0.00  0.00    +0.000 C 
ATOM      5  C   UNL     1       5.847   5.655  18.353  0.00  0.00    +0.000 C 
ATOM      6  C   UNL     1       7.023   4.745  18.035  0.00  0.00    +0.000 C 
ATOM      7  C   UNL     1       7.527   4.845  16.605  0.00  0.00    +0.000 C 
ATOM      8  C   UNL     1       6.559   4.291  15.566  0.00  0.00    +0.000 C 
ATOM      9  C   UNL     1       5.182   4.956  15.548  0.00  0.00    +0.000 C 
ATOM     10  C   UNL     1       4.260   4.433  16.653  0.00  0.00    +0.000 C 
ENDBRANCH   1   4
BRANCH   2  11
ATOM     11  C   UNL     1       2.384   6.162  19.882  0.00  0.00    +0.000 A 
ATOM     12  C   UNL     1       2.303   6.841  18.629  0.00  0.00    +0.000 A 
ATOM     13  C   UNL     1       1.973   8.137  18.959  0.00  0.00    +0.000 A 
ATOM     14  O   UNL     1       1.691   8.191  20.281  0.00  0.00    +0.000 OA
ATOM     15  N   UNL     1       1.892   6.951  20.854  0.00  0.00    +0.000 NA
BRANCH  13  16
ATOM     16  C   UNL     1       1.883   9.420  18.214  0.00  0.00    +0.000 C 
BRANCH  16  17
ATOM     17  N   UNL     1       1.069  10.467  18.890  0.00  0.00    +0.000 NA
ATOM     18  C   UNL     1      -0.370  10.278  18.624  0.00  0.00    +0.000 C 
ATOM     19  C   UNL     1      -1.238  11.430  19.139  0.00  0.00    +0.000 C 
ATOM     20  C   UNL     1      -0.762  12.777  18.613  0.00  0.00    +0.000 C 
ATOM     21  C   UNL     1       0.713  12.966  18.933  0.00  0.00    +0.000 C 
ATOM     22  C   UNL     1       1.557  11.787  18.445  0.00  0.00    +0.000 C 
BRANCH  20  23
ATOM     23  O   UNL     1      -0.998  12.890  17.214  0.00  0.00    +0.000 OA
ATOM     24  H   UNL     1      -1.237  13.807  17.000  0.00  0.00    +0.000 HD
ENDBRANCH  20  23
ENDBRANCH  16  17
ENDBRANCH  13  16
ENDBRANCH   2  11
BRANCH   1  25
ATOM     25  C   UNL     1       4.271   2.874  19.399  0.00  0.00    +0.000 C 
BRANCH  25  26
ATOM     26  C   UNL     1       3.287   1.795  18.934  0.00  0.00    +0.000 C 
BRANCH  26  28
ATOM     27  C   UNL     1       0.852   2.252  18.654  0.00  0.00    +0.000 C 
ATOM     28  C   UNL     1       2.206   2.226  17.950  0.00  0.00    +0.000 C 
ENDBRANCH  26  28
ENDBRANCH  25  26
ENDBRANCH   1  25
TORSDOF 8
ENDMDL
MODEL 6
REMARK VINA RESULT:      -7.2      1.188      1.530
REMARK  Name = 
REMARK  9 active torsions:
REMARK  status: ('A' for Active; 'I' for Inactive)
REMARK    1  A    between atoms: C_1  and  C_2
REMARK    2  A    between atoms: C_2  and  C_3
REMARK    3  A    between atoms: C_3  and  C_4
REMARK    4  A    between atoms: C_4  and  N_5
REMARK    5  A    between atoms: N_5  and  C_21
REMARK    6  A    between atoms: C_6  and  C_8
REMARK    7  A    between atoms: C_10  and  C_11
REMARK    8  A    between atoms: C_11  and  N_12
REMARK    9  A    between atoms: C_15  and  O_16
REMARK                            x       y       z     vdW  Elec       q    Type
REMARK                         _______ _______ _______ _____ _____    ______ ____
ROOT
ATOM      1  N   UNL     1       3.353   5.792  18.090  0.00  0.00    +0.000 N 
ATOM      2  C   UNL     1       3.504   7.191  17.869  0.00  0.00    +0.000 C 
ATOM      3  O   UNL     1       4.528   7.659  17.370  0.00  0.00    +0.000 OA
ENDROOT
BRANCH   1   4
ATOM      4  C   UNL     1       2.155   5.187  18.771  0.00  0.00    +0.000 C 
ATOM      5  C   UNL     1       1.473   4.125  17.891  0.00  0.00    +0.000 C 
ATOM      6  C   UNL     1       2.013   2.711  18.036  0.00  0.00    +0.000 C 
ATOM      7  C   UNL     1       1.369   1.903  19.150  0.00  0.00    +0.000 C 
ATOM      8  C   UNL     1       1.714   2.394  20.551  0.00  0.00    +0.000 C 
ATOM      9  C   UNL     1       1.327   3.845  20.840  0.00  0.00    +0.000 C 
ATOM     10  C   UNL     1       2.331   4.848  20.267  0.00  0.00    +0.000 C 
ENDBRANCH   1   4
BRANCH   2  11
ATOM     11  C   UNL     1       2.470   8.120  18.366  0.00  0.00    +0.000 A 
ATOM     12  C   UNL     1       1.895   9.208  17.644  0.00  0.00    +0.000 A 
ATOM     13  C   UNL     1       1.194   9.921  18.591  0.00  0.00    +0.000 A 
ATOM     14  O   UNL     1       1.188   9.218  19.748  0.00  0.00    +0.000 OA
ATOM     15  N   UNL     1       1.936   8.067  19.600  0.00  0.00    +0.000 NA
BRANCH  13  16
ATOM     16  C   UNL     1       0.495  11.233  18.615  0.00  0.00    +0.000 C 
BRANCH  16  17
ATOM     17  N   UNL     1      -0.822  11.215  19.307  0.00  0.00    +0.000 NA
ATOM     18  C   UNL     1      -1.885  11.767  18.446  0.00  0.00    +0.000 C 
ATOM     19  C   UNL     1      -3.222  11.946  19.171  0.00  0.00    +0.000 C 
ATOM     20  C   UNL     1      -3.072  12.770  20.442  0.00  0.00    +0.000 C 
ATOM     21  C   UNL     1      -1.999  12.160  21.331  0.00  0.00    +0.000 C 
ATOM     22  C   UNL     1      -0.684  11.954  20.577  0.00  0.00    +0.000 C 
BRANCH  20  23
ATOM     23  O   UNL     1      -2.768  14.127  20.135  0.00  0.00    +0.000 OA
ATOM     24  H   UNL     1      -2.259  14.165  19.310  0.00  0.00    +0.000 HD
ENDBRANCH  20  23
ENDBRANCH  16  17
ENDBRANCH  13  16
ENDBRANCH   2  11
BRANCH   1  25
ATOM     25  C   UNL     1       4.510   4.953  17.723  0.00  0.00    +0.000 C 
BRANCH  25  26
ATOM     26  C   UNL     1       5.613   4.729  18.764  0.00  0.00    +0.000 C 
BRANCH  26  28
ATOM     27  C   UNL     1       7.398   4.562  17.030  0.00  0.00    +0.000 C 
ATOM     28  C   UNL     1       7.022   5.168  18.380  0.00  0.00    +0.000 C 
ENDBRANCH  26  28
ENDBRANCH  25  26
ENDBRANCH   1  25
TORSDOF 8
ENDMDL
MODEL 7
REMARK VINA RESULT:      -7.1      2.041      2.745
REMARK  Name = 
REMARK  9 active torsions:
REMARK  status: ('A' for Active; 'I' for Inactive)
REMARK    1  A    between atoms: C_1  and  C_2
REMARK    2  A    between atoms: C_2  and  C_3
REMARK    3  A    between atoms: C_3  and  C_4
REMARK    4  A    between atoms: C_4  and  N_5
REMARK    5  A    between atoms: N_5  and  C_21
REMARK    6  A    between atoms: C_6  and  C_8
REMARK    7  A    between atoms: C_10  and  C_11
REMARK    8  A    between atoms: C_11  and  N_12
REMARK    9  A    between atoms: C_15  and  O_16
REMARK                            x       y       z     vdW  Elec       q    Type
REMARK                         _______ _______ _______ _____ _____    ______ ____
ROOT
ATOM      1  N   UNL     1       3.402   5.848  18.025  0.00  0.00    +0.000 N 
ATOM      2  C   UNL     1       3.617   7.227  17.740  0.00  0.00    +0.000 C 
ATOM      3  O   UNL     1       4.694   7.635  17.303  0.00  0.00    +0.000 OA
ENDROOT
BRANCH   1   4
ATOM      4  C   UNL     1       2.132   5.320  18.637  0.00  0.00    +0.000 C 
ATOM      5  C   UNL     1       1.462   4.263  17.741  0.00  0.00    +0.000 C 
ATOM      6  C   UNL     1       1.924   2.831  17.962  0.00  0.00    +0.000 C 
ATOM      7  C   UNL     1       1.168   2.087  19.050  0.00  0.00    +0.000 C 
ATOM      8  C   UNL     1       1.439   2.605  20.458  0.00  0.00    +0.000 C 
ATOM      9  C   UNL     1       1.102   4.080  20.679  0.00  0.00    +0.000 C 
ATOM     10  C   UNL     1       2.190   5.018  20.150  0.00  0.00    +0.000 C 
ENDBRANCH   1   4
BRANCH   2  11
ATOM     11  C   UNL     1       2.579   8.213  18.097  0.00  0.00    +0.000 A 
ATOM     12  C   UNL     1       2.122   8.519  19.415  0.00  0.00    +0.000 A 
ATOM     13  C   UNL     1       0.993   9.283  19.222  0.00  0.00    +0.000 A 
ATOM     14  O   UNL     1       0.885   9.574  17.904  0.00  0.00    +0.000 OA
ATOM     15  N   UNL     1       1.901   8.955  17.203  0.00  0.00    +0.000 NA
BRANCH  13  16
ATOM     16  C   UNL     1      -0.081   9.813  20.103  0.00  0.00    +0.000 C 
BRANCH  16  17
ATOM     17  N   UNL     1      -0.158  11.297  20.152  0.00  0.00    +0.000 NA
ATOM     18  C   UNL     1       1.021  11.871  20.828  0.00  0.00    +0.000 C 
ATOM     19  C   UNL     1       0.908  13.378  21.073  0.00  0.00    +0.000 C 
ATOM     20  C   UNL     1      -0.371  13.736  21.819  0.00  0.00    +0.000 C 
ATOM     21  C   UNL     1      -1.575  13.169  21.083  0.00  0.00    +0.000 C 
ATOM     22  C   UNL     1      -1.424  11.671  20.814  0.00  0.00    +0.000 C 
BRANCH  20  23
ATOM     23  O   UNL     1      -0.326  13.266  23.161  0.00  0.00    +0.000 OA
ATOM     24  H   UNL     1      -0.479  12.306  23.172  0.00  0.00    +0.000 HD
ENDBRANCH  20  23
ENDBRANCH  16  17
ENDBRANCH  13  16
ENDBRANCH   2  11
BRANCH   1  25
ATOM     25  C   UNL     1       4.555   4.956  17.803  0.00  0.00    +0.000 C 
BRANCH  25  26
ATOM     26  C   UNL     1       5.679   4.935  18.846  0.00  0.00    +0.000 C 
BRANCH  26  28
ATOM     27  C   UNL     1       7.752   6.299  18.605  0.00  0.00    +0.000 C 
ATOM     28  C   UNL     1       7.109   4.945  18.319  0.00  0.00    +0.000 C 
ENDBRANCH  26  28
ENDBRANCH  25  26
ENDBRANCH   1  25
TORSDOF 8
ENDMDL
MODEL 8
REMARK VINA RESULT:      -7.1      1.747      2.400
REMARK  Name = 
REMARK  9 active torsions:
REMARK  status: ('A' for Active; 'I' for Inactive)
REMARK    1  A    between atoms: C_1  and  C_2
REMARK    2  A    between atoms: C_2  and  C_3
REMARK    3  A    between atoms: C_3  and  C_4
REMARK    4  A    between atoms: C_4  and  N_5
REMARK    5  A    between atoms: N_5  and  C_21
REMARK    6  A    between atoms: C_6  and  C_8
REMARK    7  A    between atoms: C_10  and  C_11
REMARK    8  A    between atoms: C_11  and  N_12
REMARK    9  A    between atoms: C_15  and  O_16
REMARK                            x       y       z     vdW  Elec       q    Type
REMARK                         _______ _______ _______ _____ _____    ______ ____
ROOT
ATOM      1  N   UNL     1       3.218   5.871  18.037  0.00  0.00    +0.000 N 
ATOM      2  C   UNL     1       3.325   7.285  17.899  0.00  0.00    +0.000 C 
ATOM      3  O   UNL     1       4.339   7.814  17.441  0.00  0.00    +0.000 OA
ENDROOT
BRANCH   1   4
ATOM      4  C   UNL     1       2.032   5.190  18.666  0.00  0.00    +0.000 C 
ATOM      5  C   UNL     1       1.461   4.085  17.761  0.00  0.00    +0.000 C 
ATOM      6  C   UNL     1       2.086   2.709  17.935  0.00  0.00    +0.000 C 
ATOM      7  C   UNL     1       1.447   1.862  19.023  0.00  0.00    +0.000 C 
ATOM      8  C   UNL     1       1.695   2.376  20.436  0.00  0.00    +0.000 C 
ATOM      9  C   UNL     1       1.202   3.798  20.701  0.00  0.00    +0.000 C 
ATOM     10  C   UNL     1       2.163   4.865  20.170  0.00  0.00    +0.000 C 
ENDBRANCH   1   4
BRANCH   2  11
ATOM     11  C   UNL     1       2.255   8.150  18.434  0.00  0.00    +0.000 A 
ATOM     12  C   UNL     1       1.365   8.963  17.670  0.00  0.00    +0.000 A 
ATOM     13  C   UNL     1       0.742   9.764  18.600  0.00  0.00    +0.000 A 
ATOM     14  O   UNL     1       1.085   9.339  19.839  0.00  0.00    +0.000 OA
ATOM     15  N   UNL     1       1.986   8.297  19.743  0.00  0.00    +0.000 NA
BRANCH  13  16
ATOM     16  C   UNL     1      -0.164  10.941  18.535  0.00  0.00    +0.000 C 
BRANCH  16  17
ATOM     17  N   UNL     1       0.258  12.088  19.383  0.00  0.00    +0.000 NA
ATOM     18  C   UNL     1      -0.730  12.361  20.444  0.00  0.00    +0.000 C 
ATOM     19  C   UNL     1      -0.440  13.644  21.228  0.00  0.00    +0.000 C 
ATOM     20  C   UNL     1      -0.287  14.848  20.309  0.00  0.00    +0.000 C 
ATOM     21  C   UNL     1       0.764  14.558  19.248  0.00  0.00    +0.000 C 
ATOM     22  C   UNL     1       0.478  13.253  18.503  0.00  0.00    +0.000 C 
BRANCH  20  23
ATOM     23  O   UNL     1      -1.532  15.193  19.711  0.00  0.00    +0.000 OA
ATOM     24  H   UNL     1      -2.249  15.041  20.347  0.00  0.00    +0.000 HD
ENDBRANCH  20  23
ENDBRANCH  16  17
ENDBRANCH  13  16
ENDBRANCH   2  11
BRANCH   1  25
ATOM     25  C   UNL     1       4.406   5.093  17.639  0.00  0.00    +0.000 C 
BRANCH  25  26
ATOM     26  C   UNL     1       5.527   4.888  18.665  0.00  0.00    +0.000 C 
BRANCH  26  28
ATOM     27  C   UNL     1       7.765   5.931  19.010  0.00  0.00    +0.000 C 
ATOM     28  C   UNL     1       6.958   4.966  18.146  0.00  0.00    +0.000 C 
ENDBRANCH  26  28
ENDBRANCH  25  26
ENDBRANCH   1  25
TORSDOF 8
ENDMDL
MODEL 9
REMARK VINA RESULT:      -7.1      2.094      2.749
REMARK  Name = 
REMARK  9 active torsions:
REMARK  status: ('A' for Active; 'I' for Inactive)
REMARK    1  A    between atoms: C_1  and  C_2
REMARK    2  A    between atoms: C_2  and  C_3
REMARK    3  A    between atoms: C_3  and  C_4
REMARK    4  A    between atoms: C_4  and  N_5
REMARK    5  A    between atoms: N_5  and  C_21
REMARK    6  A    between atoms: C_6  and  C_8
REMARK    7  A    between atoms: C_10  and  C_11
REMARK    8  A    between atoms: C_11  and  N_12
REMARK    9  A    between atoms: C_15  and  O_16
REMARK                            x       y       z     vdW  Elec       q    Type
REMARK                         _______ _______ _______ _____ _____    ______ ____
ROOT
ATOM      1  N   UNL     1       3.511   5.675  18.092  0.00  0.00    +0.000 N 
ATOM      2  C   UNL     1       3.742   7.038  17.747  0.00  0.00    +0.000 C 
ATOM      3  O   UNL     1       4.819   7.411  17.279  0.00  0.00    +0.000 OA
ENDROOT
BRANCH   1   4
ATOM      4  C   UNL     1       2.242   5.192  18.742  0.00  0.00    +0.000 C 
ATOM      5  C   UNL     1       1.484   4.197  17.846  0.00  0.00    +0.000 C 
ATOM      6  C   UNL     1       1.882   2.738  18.007  0.00  0.00    +0.000 C 
ATOM      7  C   UNL     1       1.135   2.000  19.105  0.00  0.00    +0.000 C 
ATOM      8  C   UNL     1       1.488   2.461  20.514  0.00  0.00    +0.000 C 
ATOM      9  C   UNL     1       1.235   3.943  20.790  0.00  0.00    +0.000 C 
ATOM     10  C   UNL     1       2.346   4.843  20.243  0.00  0.00    +0.000 C 
ENDBRANCH   1   4
BRANCH   2  11
ATOM     11  C   UNL     1       2.722   8.053  18.075  0.00  0.00    +0.000 A 
ATOM     12  C   UNL     1       2.198   8.335  19.373  0.00  0.00    +0.000 A 
ATOM     13  C   UNL     1       1.114   9.150  19.140  0.00  0.00    +0.000 A 
ATOM     14  O   UNL     1       1.098   9.488  17.829  0.00  0.00    +0.000 OA
ATOM     15  N   UNL     1       2.130   8.852  17.169  0.00  0.00    +0.000 NA
BRANCH  13  16
ATOM     16  C   UNL     1       0.009   9.693  19.973  0.00  0.00    +0.000 C 
BRANCH  16  17
ATOM     17  N   UNL     1      -0.075  11.179  19.989  0.00  0.00    +0.000 NA
ATOM     18  C   UNL     1      -0.611  11.697  18.716  0.00  0.00    +0.000 C 
ATOM     19  C   UNL     1      -0.544  13.223  18.605  0.00  0.00    +0.000 C 
ATOM     20  C   UNL     1       0.863  13.748  18.853  0.00  0.00    +0.000 C 
ATOM     21  C   UNL     1       1.379  13.233  20.189  0.00  0.00    +0.000 C 
ATOM     22  C   UNL     1       1.268  11.712  20.294  0.00  0.00    +0.000 C 
BRANCH  20  23
ATOM     23  O   UNL     1       1.739  13.380  17.793  0.00  0.00    +0.000 OA
ATOM     24  H   UNL     1       1.523  13.900  17.002  0.00  0.00    +0.000 HD
ENDBRANCH  20  23
ENDBRANCH  16  17
ENDBRANCH  13  16
ENDBRANCH   2  11
BRANCH   1  25
ATOM     25  C   UNL     1       4.649   4.758  17.893  0.00  0.00    +0.000 C 
BRANCH  25  26
ATOM     26  C   UNL     1       4.858   4.141  16.505  0.00  0.00    +0.000 C 
BRANCH  26  28
ATOM     27  C   UNL     1       6.186   3.953  14.403  0.00  0.00    +0.000 C 
ATOM     28  C   UNL     1       6.248   4.276  15.893  0.00  0.00    +0.000 C 
ENDBRANCH  26  28
ENDBRANCH  25  26
ENDBRANCH   1  25
TORSDOF 8
ENDMDL
