MODEL 1
REMARK VINA RESULT:      -9.1      0.000      0.000
REMARK  Name = 
REMARK  8 active torsions:
REMARK  status: ('A' for Active; 'I' for Inactive)
REMARK    1  A    between atoms: C_1  and  C_2
REMARK    2  A    between atoms: C_5  and  C_6
REMARK    3  A    between atoms: C_6  and  C_8
REMARK    4  A    between atoms: C_8  and  O_9
REMARK    5  A    between atoms: O_9  and  C_10
REMARK    6  A    between atoms: C_10  and  C_12
REMARK    7  A    between atoms: C_15  and  N_16
REMARK    8  A    between atoms: C_27  and  C_28
REMARK                            x       y       z     vdW  Elec       q    Type
REMARK                         _______ _______ _______ _____ _____    ______ ____
ROOT
ATOM      1  C   UNL     1       7.562   7.172  17.293  0.00  0.00    +0.000 C 
ATOM      2  O   UNL     1       8.064   6.979  16.204  0.00  0.00    +0.000 OA
ENDROOT
BRANCH   1   3
ATOM      3  C   UNL     1       6.342   6.439  17.746  0.00  0.00    +0.000 A 
ATOM      4  C   UNL     1       6.451   5.604  18.866  0.00  0.00    +0.000 A 
ATOM      5  C   UNL     1       5.361   4.828  19.278  0.00  0.00    +0.000 A 
ATOM      6  C   UNL     1       4.133   4.908  18.608  0.00  0.00    +0.000 A 
ATOM      7  C   UNL     1       4.029   5.747  17.487  0.00  0.00    +0.000 A 
ATOM      8  C   UNL     1       5.125   6.513  17.062  0.00  0.00    +0.000 A 
BRANCH   6   9
ATOM      9  N   UNL     1       2.993   4.181  19.095  0.00  0.00    +0.000 N 
ATOM     10  C   UNL     1       2.104   4.856  19.944  0.00  0.00    +0.000 C 
ATOM     11  O   UNL     1       2.251   6.007  20.355  0.00  0.00    +0.000 OA
ATOM     12  C   UNL     1       0.856   4.091  20.329  0.00  0.00    +0.000 C 
ATOM     13  C   UNL     1       1.171   2.636  20.578  0.00  0.00    +0.000 C 
ATOM     14  C   UNL     1       1.746   2.032  19.318  0.00  0.00    +0.000 C 
ATOM     15  C   UNL     1       2.876   2.837  18.715  0.00  0.00    +0.000 C 
ATOM     16  O   UNL     1       3.596   2.290  17.876  0.00  0.00    +0.000 OA
ENDBRANCH   6   9
ENDBRANCH   1   3
BRANCH   1  17
ATOM     17  O   UNL     1       8.014   8.042  18.236  0.00  0.00    +0.000 OA
BRANCH  17  18
ATOM     18  C   UNL     1       8.185   9.387  17.765  0.00  0.00    +0.000 C 
BRANCH  18  19
ATOM     19  C   UNL     1       9.060  10.216  18.698  0.00  0.00    +0.000 C 
ATOM     20  O   UNL     1       9.317   9.845  19.849  0.00  0.00    +0.000 OA
BRANCH  19  25
ATOM     21  C   UNL     1      11.196  15.358  16.935  0.00  0.00    +0.000 C 
ATOM     22  C   UNL     1      10.625  14.033  17.369  0.00  0.00    +0.000 A 
ATOM     23  C   UNL     1      11.406  12.873  17.258  0.00  0.00    +0.000 A 
ATOM     24  C   UNL     1      10.921  11.623  17.675  0.00  0.00    +0.000 A 
ATOM     25  C   UNL     1       9.636  11.516  18.216  0.00  0.00    +0.000 A 
ATOM     26  C   UNL     1       8.848  12.676  18.314  0.00  0.00    +0.000 A 
ATOM     27  C   UNL     1       9.322  13.933  17.893  0.00  0.00    +0.000 A 
ATOM     28  C   UNL     1       8.431  15.142  18.010  0.00  0.00    +0.000 C 
ENDBRANCH  19  25
ENDBRANCH  18  19
ENDBRANCH  17  18
ENDBRANCH   1  17
TORSDOF 6
ENDMDL
MODEL 2
REMARK VINA RESULT:      -8.8      0.364      1.284
REMARK  Name = 
REMARK  8 active torsions:
REMARK  status: ('A' for Active; 'I' for Inactive)
REMARK    1  A    between atoms: C_1  and  C_2
REMARK    2  A    between atoms: C_5  and  C_6
REMARK    3  A    between atoms: C_6  and  C_8
REMARK    4  A    between atoms: C_8  and  O_9
REMARK    5  A    between atoms: O_9  and  C_10
REMARK    6  A    between atoms: C_10  and  C_12
REMARK    7  A    between atoms: C_15  and  N_16
REMARK    8  A    between atoms: C_27  and  C_28
REMARK                            x       y       z     vdW  Elec       q    Type
REMARK                         _______ _______ _______ _____ _____    ______ ____
ROOT
ATOM      1  C   UNL     1       7.563   7.243  17.359  0.00  0.00    +0.000 C 
ATOM      2  O   UNL     1       8.052   7.055  16.263  0.00  0.00    +0.000 OA
ENDROOT
BRANCH   1   3
ATOM      3  C   UNL     1       6.353   6.503  17.825  0.00  0.00    +0.000 A 
ATOM      4  C   UNL     1       6.479   5.665  18.941  0.00  0.00    +0.000 A 
ATOM      5  C   UNL     1       5.399   4.882  19.365  0.00  0.00    +0.000 A 
ATOM      6  C   UNL     1       4.161   4.959  18.711  0.00  0.00    +0.000 A 
ATOM      7  C   UNL     1       4.039   5.801  17.594  0.00  0.00    +0.000 A 
ATOM      8  C   UNL     1       5.127   6.573  17.157  0.00  0.00    +0.000 A 
BRANCH   6   9
ATOM      9  N   UNL     1       3.032   4.225  19.211  0.00  0.00    +0.000 N 
ATOM     10  C   UNL     1       2.098   4.920  19.993  0.00  0.00    +0.000 C 
ATOM     11  O   UNL     1       2.197   6.099  20.337  0.00  0.00    +0.000 OA
ATOM     12  C   UNL     1       0.863   4.139  20.390  0.00  0.00    +0.000 C 
ATOM     13  C   UNL     1       1.217   2.713  20.735  0.00  0.00    +0.000 C 
ATOM     14  C   UNL     1       1.846   2.054  19.530  0.00  0.00    +0.000 C 
ATOM     15  C   UNL     1       2.968   2.858  18.910  0.00  0.00    +0.000 C 
ATOM     16  O   UNL     1       3.728   2.286  18.125  0.00  0.00    +0.000 OA
ENDBRANCH   6   9
ENDBRANCH   1   3
BRANCH   1  17
ATOM     17  O   UNL     1       8.023   8.112  18.298  0.00  0.00    +0.000 OA
BRANCH  17  18
ATOM     18  C   UNL     1       8.259   9.441  17.808  0.00  0.00    +0.000 C 
BRANCH  18  19
ATOM     19  C   UNL     1       9.017  10.299  18.813  0.00  0.00    +0.000 C 
ATOM     20  O   UNL     1       9.292   9.884  19.946  0.00  0.00    +0.000 OA
BRANCH  19  25
ATOM     21  C   UNL     1      10.793  15.616  17.175  0.00  0.00    +0.000 C 
ATOM     22  C   UNL     1      10.359  14.241  17.613  0.00  0.00    +0.000 A 
ATOM     23  C   UNL     1       9.210  14.098  18.406  0.00  0.00    +0.000 A 
ATOM     24  C   UNL     1       8.758  12.833  18.813  0.00  0.00    +0.000 A 
ATOM     25  C   UNL     1       9.454  11.683  18.429  0.00  0.00    +0.000 A 
ATOM     26  C   UNL     1      10.613  11.828  17.646  0.00  0.00    +0.000 A 
ATOM     27  C   UNL     1      11.078  13.091  17.237  0.00  0.00    +0.000 A 
ATOM     28  C   UNL     1      12.333  13.190  16.408  0.00  0.00    +0.000 C 
ENDBRANCH  19  25
ENDBRANCH  18  19
ENDBRANCH  17  18
ENDBRANCH   1  17
TORSDOF 6
ENDMDL
MODEL 3
REMARK VINA RESULT:      -8.4      1.114      2.315
REMARK  Name = 
REMARK  8 active torsions:
REMARK  status: ('A' for Active; 'I' for Inactive)
REMARK    1  A    between atoms: C_1  and  C_2
REMARK    2  A    between atoms: C_5  and  C_6
REMARK    3  A    between atoms: C_6  and  C_8
REMARK    4  A    between atoms: C_8  and  O_9
REMARK    5  A    between atoms: O_9  and  C_10
REMARK    6  A    between atoms: C_10  and  C_12
REMARK    7  A    between atoms: C_15  and  N_16
REMARK    8  A    between atoms: C_27  and  C_28
REMARK                            x       y       z     vdW  Elec       q    Type
REMARK                         _______ _______ _______ _____ _____    ______ ____
ROOT
ATOM      1  C   UNL     1       7.187   7.489  17.215  0.00  0.00    +0.000 C 
ATOM      2  O   UNL     1       8.088   7.114  16.494  0.00  0.00    +0.000 OA
ENDROOT
BRANCH   1   3
ATOM      3  C   UNL     1       6.124   6.563  17.705  0.00  0.00    +0.000 A 
ATOM      4  C   UNL     1       4.842   6.673  17.149  0.00  0.00    +0.000 A 
ATOM      5  C   UNL     1       3.789   5.889  17.635  0.00  0.00    +0.000 A 
ATOM      6  C   UNL     1       4.009   4.949  18.651  0.00  0.00    +0.000 A 
ATOM      7  C   UNL     1       5.294   4.841  19.205  0.00  0.00    +0.000 A 
ATOM      8  C   UNL     1       6.347   5.639  18.731  0.00  0.00    +0.000 A 
BRANCH   6   9
ATOM      9  N   UNL     1       2.945   4.082  19.077  0.00  0.00    +0.000 N 
ATOM     10  C   UNL     1       2.886   2.798  18.515  0.00  0.00    +0.000 C 
ATOM     11  O   UNL     1       3.639   2.373  17.639  0.00  0.00    +0.000 OA
ATOM     12  C   UNL     1       1.828   1.880  19.086  0.00  0.00    +0.000 C 
ATOM     13  C   UNL     1       0.551   2.636  19.364  0.00  0.00    +0.000 C 
ATOM     14  C   UNL     1       0.834   3.735  20.360  0.00  0.00    +0.000 C 
ATOM     15  C   UNL     1       2.023   4.598  19.996  0.00  0.00    +0.000 C 
ATOM     16  O   UNL     1       2.152   5.681  20.573  0.00  0.00    +0.000 OA
ENDBRANCH   6   9
ENDBRANCH   1   3
BRANCH   1  17
ATOM     17  O   UNL     1       7.013   8.756  17.680  0.00  0.00    +0.000 OA
BRANCH  17  18
ATOM     18  C   UNL     1       8.146   9.617  17.483  0.00  0.00    +0.000 C 
BRANCH  18  19
ATOM     19  C   UNL     1       9.002   9.736  18.738  0.00  0.00    +0.000 C 
ATOM     20  O   UNL     1       9.005   8.858  19.609  0.00  0.00    +0.000 OA
BRANCH  19  25
ATOM     21  C   UNL     1      12.333  14.496  19.332  0.00  0.00    +0.000 C 
ATOM     22  C   UNL     1      11.496  13.255  19.166  0.00  0.00    +0.000 A 
ATOM     23  C   UNL     1      11.037  12.572  20.303  0.00  0.00    +0.000 A 
ATOM     24  C   UNL     1      10.233  11.427  20.192  0.00  0.00    +0.000 A 
ATOM     25  C   UNL     1       9.873  10.944  18.931  0.00  0.00    +0.000 A 
ATOM     26  C   UNL     1      10.345  11.620  17.791  0.00  0.00    +0.000 A 
ATOM     27  C   UNL     1      11.156  12.765  17.891  0.00  0.00    +0.000 A 
ATOM     28  C   UNL     1      11.643  13.444  16.637  0.00  0.00    +0.000 C 
ENDBRANCH  19  25
ENDBRANCH  18  19
ENDBRANCH  17  18
ENDBRANCH   1  17
TORSDOF 6
ENDMDL
MODEL 4
REMARK VINA RESULT:      -8.2      3.040     10.299
REMARK  Name = 
REMARK  8 active torsions:
REMARK  status: ('A' for Active; 'I' for Inactive)
REMARK    1  A    between atoms: C_1  and  C_2
REMARK    2  A    between atoms: C_5  and  C_6
REMARK    3  A    between atoms: C_6  and  C_8
REMARK    4  A    between atoms: C_8  and  O_9
REMARK    5  A    between atoms: O_9  and  C_10
REMARK    6  A    between atoms: C_10  and  C_12
REMARK    7  A    between atoms: C_15  and  N_16
REMARK    8  A    between atoms: C_27  and  C_28
REMARK                            x       y       z     vdW  Elec       q    Type
REMARK                         _______ _______ _______ _____ _____    ______ ____
ROOT
ATOM      1  C   UNL     1       8.029   7.977  18.125  0.00  0.00    +0.000 C 
ATOM      2  O   UNL     1       8.338   7.092  18.898  0.00  0.00    +0.000 OA
ENDROOT
BRANCH   1   3
ATOM      3  C   UNL     1       8.499   9.383  18.300  0.00  0.00    +0.000 A 
ATOM      4  C   UNL     1       9.386   9.658  19.349  0.00  0.00    +0.000 A 
ATOM      5  C   UNL     1       9.788  10.974  19.610  0.00  0.00    +0.000 A 
ATOM      6  C   UNL     1       9.347  12.029  18.800  0.00  0.00    +0.000 A 
ATOM      7  C   UNL     1       8.459  11.748  17.750  0.00  0.00    +0.000 A 
ATOM      8  C   UNL     1       8.042  10.432  17.497  0.00  0.00    +0.000 A 
BRANCH   6   9
ATOM      9  N   UNL     1       9.839  13.362  19.016  0.00  0.00    +0.000 N 
ATOM     10  C   UNL     1      10.939  13.782  18.254  0.00  0.00    +0.000 C 
ATOM     11  O   UNL     1      11.557  13.079  17.453  0.00  0.00    +0.000 OA
ATOM     12  C   UNL     1      11.342  15.231  18.425  0.00  0.00    +0.000 C 
ATOM     13  C   UNL     1      11.224  15.656  19.868  0.00  0.00    +0.000 C 
ATOM     14  C   UNL     1       9.791  15.489  20.318  0.00  0.00    +0.000 C 
ATOM     15  C   UNL     1       9.206  14.130  20.002  0.00  0.00    +0.000 C 
ATOM     16  O   UNL     1       8.168  13.796  20.579  0.00  0.00    +0.000 OA
ENDBRANCH   6   9
ENDBRANCH   1   3
BRANCH   1  17
ATOM     17  O   UNL     1       7.248   7.834  17.021  0.00  0.00    +0.000 OA
BRANCH  17  18
ATOM     18  C   UNL     1       6.812   6.487  16.777  0.00  0.00    +0.000 C 
BRANCH  18  19
ATOM     19  C   UNL     1       5.381   6.432  16.258  0.00  0.00    +0.000 C 
ATOM     20  O   UNL     1       5.080   6.842  15.131  0.00  0.00    +0.000 OA
BRANCH  19  25
ATOM     21  C   UNL     1       1.253   4.055  19.638  0.00  0.00    +0.000 C 
ATOM     22  C   UNL     1       2.303   4.660  18.743  0.00  0.00    +0.000 A 
ATOM     23  C   UNL     1       2.540   6.043  18.791  0.00  0.00    +0.000 A 
ATOM     24  C   UNL     1       3.527   6.642  17.992  0.00  0.00    +0.000 A 
ATOM     25  C   UNL     1       4.298   5.860  17.127  0.00  0.00    +0.000 A 
ATOM     26  C   UNL     1       4.050   4.477  17.068  0.00  0.00    +0.000 A 
ATOM     27  C   UNL     1       3.060   3.867  17.860  0.00  0.00    +0.000 A 
ATOM     28  C   UNL     1       2.828   2.382  17.749  0.00  0.00    +0.000 C 
ENDBRANCH  19  25
ENDBRANCH  18  19
ENDBRANCH  17  18
ENDBRANCH   1  17
TORSDOF 6
ENDMDL
MODEL 5
REMARK VINA RESULT:      -8.0      5.636      8.589
REMARK  Name = 
REMARK  8 active torsions:
REMARK  status: ('A' for Active; 'I' for Inactive)
REMARK    1  A    between atoms: C_1  and  C_2
REMARK    2  A    between atoms: C_5  and  C_6
REMARK    3  A    between atoms: C_6  and  C_8
REMARK    4  A    between atoms: C_8  and  O_9
REMARK    5  A    between atoms: O_9  and  C_10
REMARK    6  A    between atoms: C_10  and  C_12
REMARK    7  A    between atoms: C_15  and  N_16
REMARK    8  A    between atoms: C_27  and  C_28
REMARK                            x       y       z     vdW  Elec       q    Type
REMARK                         _______ _______ _______ _____ _____    ______ ____
ROOT
ATOM      1  C   UNL     1       1.833  10.197  18.837  0.00  0.00    +0.000 C 
ATOM      2  O   UNL     1       2.235  11.013  18.033  0.00  0.00    +0.000 OA
ENDROOT
BRANCH   1   3
ATOM      3  C   UNL     1       2.151   8.743  18.719  0.00  0.00    +0.000 A 
ATOM      4  C   UNL     1       1.812   7.904  19.789  0.00  0.00    +0.000 A 
ATOM      5  C   UNL     1       2.167   6.550  19.766  0.00  0.00    +0.000 A 
ATOM      6  C   UNL     1       2.826   6.003  18.657  0.00  0.00    +0.000 A 
ATOM      7  C   UNL     1       3.163   6.848  17.588  0.00  0.00    +0.000 A 
ATOM      8  C   UNL     1       2.823   8.209  17.616  0.00  0.00    +0.000 A 
BRANCH   6   9
ATOM      9  N   UNL     1       3.102   4.594  18.601  0.00  0.00    +0.000 N 
ATOM     10  C   UNL     1       2.197   3.779  17.904  0.00  0.00    +0.000 C 
ATOM     11  O   UNL     1       1.150   4.167  17.385  0.00  0.00    +0.000 OA
ATOM     12  C   UNL     1       2.594   2.326  17.765  0.00  0.00    +0.000 C 
ATOM     13  C   UNL     1       3.235   1.819  19.035  0.00  0.00    +0.000 C 
ATOM     14  C   UNL     1       4.470   2.638  19.326  0.00  0.00    +0.000 C 
ATOM     15  C   UNL     1       4.237   4.133  19.280  0.00  0.00    +0.000 C 
ATOM     16  O   UNL     1       5.088   4.869  19.786  0.00  0.00    +0.000 OA
ENDBRANCH   6   9
ENDBRANCH   1   3
BRANCH   1  17
ATOM     17  O   UNL     1       1.067  10.465  19.929  0.00  0.00    +0.000 OA
BRANCH  17  18
ATOM     18  C   UNL     1       0.365  11.717  19.865  0.00  0.00    +0.000 C 
BRANCH  18  19
ATOM     19  C   UNL     1      -1.147  11.528  19.875  0.00  0.00    +0.000 C 
ATOM     20  O   UNL     1      -1.819  11.716  20.896  0.00  0.00    +0.000 OA
BRANCH  19  25
ATOM     21  C   UNL     1      -3.967  10.050  14.979  0.00  0.00    +0.000 C 
ATOM     22  C   UNL     1      -3.261  10.420  16.258  0.00  0.00    +0.000 A 
ATOM     23  C   UNL     1      -2.025   9.830  16.562  0.00  0.00    +0.000 A 
ATOM     24  C   UNL     1      -1.323  10.167  17.729  0.00  0.00    +0.000 A 
ATOM     25  C   UNL     1      -1.851  11.108  18.617  0.00  0.00    +0.000 A 
ATOM     26  C   UNL     1      -3.097  11.689  18.320  0.00  0.00    +0.000 A 
ATOM     27  C   UNL     1      -3.812  11.354  17.155  0.00  0.00    +0.000 A 
ATOM     28  C   UNL     1      -5.149  11.999  16.891  0.00  0.00    +0.000 C 
ENDBRANCH  19  25
ENDBRANCH  18  19
ENDBRANCH  17  18
ENDBRANCH   1  17
TORSDOF 6
ENDMDL
MODEL 6
REMARK VINA RESULT:      -8.0      6.032      8.832
REMARK  Name = 
REMARK  8 active torsions:
REMARK  status: ('A' for Active; 'I' for Inactive)
REMARK    1  A    between atoms: C_1  and  C_2
REMARK    2  A    between atoms: C_5  and  C_6
REMARK    3  A    between atoms: C_6  and  C_8
REMARK    4  A    between atoms: C_8  and  O_9
REMARK    5  A    between atoms: O_9  and  C_10
REMARK    6  A    between atoms: C_10  and  C_12
REMARK    7  A    between atoms: C_15  and  N_16
REMARK    8  A    between atoms: C_27  and  C_28
REMARK                            x       y       z     vdW  Elec       q    Type
REMARK                         _______ _______ _______ _____ _____    ______ ____
ROOT
ATOM      1  C   UNL     1       0.965   9.769  20.685  0.00  0.00    +0.000 C 
ATOM      2  O   UNL     1       0.679   9.880  21.860  0.00  0.00    +0.000 OA
ENDROOT
BRANCH   1   3
ATOM      3  C   UNL     1       1.468   8.488  20.108  0.00  0.00    +0.000 A 
ATOM      4  C   UNL     1       1.391   7.332  20.897  0.00  0.00    +0.000 A 
ATOM      5  C   UNL     1       1.928   6.124  20.437  0.00  0.00    +0.000 A 
ATOM      6  C   UNL     1       2.508   6.039  19.165  0.00  0.00    +0.000 A 
ATOM      7  C   UNL     1       2.582   7.199  18.378  0.00  0.00    +0.000 A 
ATOM      8  C   UNL     1       2.060   8.415  18.844  0.00  0.00    +0.000 A 
BRANCH   6   9
ATOM      9  N   UNL     1       2.971   4.774  18.663  0.00  0.00    +0.000 N 
ATOM     10  C   UNL     1       2.127   4.071  17.790  0.00  0.00    +0.000 C 
ATOM     11  O   UNL     1       0.993   4.423  17.464  0.00  0.00    +0.000 OA
ATOM     12  C   UNL     1       2.707   2.809  17.190  0.00  0.00    +0.000 C 
ATOM     13  C   UNL     1       3.526   2.055  18.210  0.00  0.00    +0.000 C 
ATOM     14  C   UNL     1       4.657   2.936  18.684  0.00  0.00    +0.000 C 
ATOM     15  C   UNL     1       4.216   4.319  19.114  0.00  0.00    +0.000 C 
ATOM     16  O   UNL     1       5.000   4.997  19.784  0.00  0.00    +0.000 OA
ENDBRANCH   6   9
ENDBRANCH   1   3
BRANCH   1  17
ATOM     17  O   UNL     1       0.871  10.750  19.747  0.00  0.00    +0.000 OA
BRANCH  17  18
ATOM     18  C   UNL     1       0.143  11.911  20.177  0.00  0.00    +0.000 C 
BRANCH  18  19
ATOM     19  C   UNL     1      -1.364  11.709  20.086  0.00  0.00    +0.000 C 
ATOM     20  O   UNL     1      -2.108  11.915  21.053  0.00  0.00    +0.000 OA
BRANCH  19  25
ATOM     21  C   UNL     1      -3.832  10.087  15.047  0.00  0.00    +0.000 C 
ATOM     22  C   UNL     1      -3.217  10.493  16.361  0.00  0.00    +0.000 A 
ATOM     23  C   UNL     1      -1.968   9.972  16.732  0.00  0.00    +0.000 A 
ATOM     24  C   UNL     1      -1.349  10.344  17.935  0.00  0.00    +0.000 A 
ATOM     25  C   UNL     1      -1.976  11.253  18.793  0.00  0.00    +0.000 A 
ATOM     26  C   UNL     1      -3.234  11.764  18.429  0.00  0.00    +0.000 A 
ATOM     27  C   UNL     1      -3.866  11.393  17.227  0.00  0.00    +0.000 A 
ATOM     28  C   UNL     1      -5.221  11.963  16.892  0.00  0.00    +0.000 C 
ENDBRANCH  19  25
ENDBRANCH  18  19
ENDBRANCH  17  18
ENDBRANCH   1  17
TORSDOF 6
ENDMDL
MODEL 7
REMARK VINA RESULT:      -7.9      5.471      8.294
REMARK  Name = 
REMARK  8 active torsions:
REMARK  status: ('A' for Active; 'I' for Inactive)
REMARK    1  A    between atoms: C_1  and  C_2
REMARK    2  A    between atoms: C_5  and  C_6
REMARK    3  A    between atoms: C_6  and  C_8
REMARK    4  A    between atoms: C_8  and  O_9
REMARK    5  A    between atoms: O_9  and  C_10
REMARK    6  A    between atoms: C_10  and  C_12
REMARK    7  A    between atoms: C_15  and  N_16
REMARK    8  A    between atoms: C_27  and  C_28
REMARK                            x       y       z     vdW  Elec       q    Type
REMARK                         _______ _______ _______ _____ _____    ______ ____
ROOT
ATOM      1  C   UNL     1       2.966   5.888  19.293  0.00  0.00    +0.000 C 
ATOM      2  O   UNL     1       2.411   4.893  19.715  0.00  0.00    +0.000 OA
ENDROOT
BRANCH   1   3
ATOM      3  C   UNL     1       2.276   7.209  19.215  0.00  0.00    +0.000 A 
ATOM      4  C   UNL     1       2.202   7.844  17.969  0.00  0.00    +0.000 A 
ATOM      5  C   UNL     1       1.644   9.123  17.857  0.00  0.00    +0.000 A 
ATOM      6  C   UNL     1       1.108   9.769  18.980  0.00  0.00    +0.000 A 
ATOM      7  C   UNL     1       1.183   9.128  20.227  0.00  0.00    +0.000 A 
ATOM      8  C   UNL     1       1.758   7.853  20.343  0.00  0.00    +0.000 A 
BRANCH   6   9
ATOM      9  N   UNL     1       0.452  11.039  18.840  0.00  0.00    +0.000 N 
ATOM     10  C   UNL     1       1.256  12.188  18.816  0.00  0.00    +0.000 C 
ATOM     11  O   UNL     1       2.478  12.202  18.965  0.00  0.00    +0.000 OA
ATOM     12  C   UNL     1       0.533  13.490  18.541  0.00  0.00    +0.000 C 
ATOM     13  C   UNL     1      -0.802  13.523  19.244  0.00  0.00    +0.000 C 
ATOM     14  C   UNL     1      -1.652  12.377  18.748  0.00  0.00    +0.000 C 
ATOM     15  C   UNL     1      -0.948  11.038  18.776  0.00  0.00    +0.000 C 
ATOM     16  O   UNL     1      -1.635  10.018  18.677  0.00  0.00    +0.000 OA
ENDBRANCH   6   9
ENDBRANCH   1   3
BRANCH   1  17
ATOM     17  O   UNL     1       4.251   5.956  18.852  0.00  0.00    +0.000 OA
BRANCH  17  18
ATOM     18  C   UNL     1       4.948   4.701  18.869  0.00  0.00    +0.000 C 
BRANCH  18  19
ATOM     19  C   UNL     1       4.778   3.932  17.564  0.00  0.00    +0.000 C 
ATOM     20  O   UNL     1       3.948   3.023  17.447  0.00  0.00    +0.000 OA
BRANCH  19  25
ATOM     21  C   UNL     1       7.961   5.270  12.853  0.00  0.00    +0.000 C 
ATOM     22  C   UNL     1       7.147   4.897  14.065  0.00  0.00    +0.000 A 
ATOM     23  C   UNL     1       7.506   5.406  15.323  0.00  0.00    +0.000 A 
ATOM     24  C   UNL     1       6.760   5.104  16.472  0.00  0.00    +0.000 A 
ATOM     25  C   UNL     1       5.633   4.282  16.379  0.00  0.00    +0.000 A 
ATOM     26  C   UNL     1       5.282   3.761  15.121  0.00  0.00    +0.000 A 
ATOM     27  C   UNL     1       6.026   4.053  13.964  0.00  0.00    +0.000 A 
ATOM     28  C   UNL     1       5.612   3.457  12.642  0.00  0.00    +0.000 C 
ENDBRANCH  19  25
ENDBRANCH  18  19
ENDBRANCH  17  18
ENDBRANCH   1  17
TORSDOF 6
ENDMDL
MODEL 8
REMARK VINA RESULT:      -7.9      5.514      8.199
REMARK  Name = 
REMARK  8 active torsions:
REMARK  status: ('A' for Active; 'I' for Inactive)
REMARK    1  A    between atoms: C_1  and  C_2
REMARK    2  A    between atoms: C_5  and  C_6
REMARK    3  A    between atoms: C_6  and  C_8
REMARK    4  A    between atoms: C_8  and  O_9
REMARK    5  A    between atoms: O_9  and  C_10
REMARK    6  A    between atoms: C_10  and  C_12
REMARK    7  A    between atoms: C_15  and  N_16
REMARK    8  A    between atoms: C_27  and  C_28
REMARK                            x       y       z     vdW  Elec       q    Type
REMARK                         _______ _______ _______ _____ _____    ______ ____
ROOT
ATOM      1  C   UNL     1       3.109   6.007  19.229  0.00  0.00    +0.000 C 
ATOM      2  O   UNL     1       2.615   4.991  19.674  0.00  0.00    +0.000 OA
ENDROOT
BRANCH   1   3
ATOM      3  C   UNL     1       2.350   7.290  19.150  0.00  0.00    +0.000 A 
ATOM      4  C   UNL     1       2.283   7.943  17.912  0.00  0.00    +0.000 A 
ATOM      5  C   UNL     1       1.658   9.192  17.803  0.00  0.00    +0.000 A 
ATOM      6  C   UNL     1       1.052   9.786  18.918  0.00  0.00    +0.000 A 
ATOM      7  C   UNL     1       1.122   9.128  20.155  0.00  0.00    +0.000 A 
ATOM      8  C   UNL     1       1.762   7.884  20.270  0.00  0.00    +0.000 A 
BRANCH   6   9
ATOM      9  N   UNL     1       0.332  11.022  18.777  0.00  0.00    +0.000 N 
ATOM     10  C   UNL     1       1.057  12.216  18.895  0.00  0.00    +0.000 C 
ATOM     11  O   UNL     1       2.255  12.294  19.170  0.00  0.00    +0.000 OA
ATOM     12  C   UNL     1       0.283  13.486  18.615  0.00  0.00    +0.000 C 
ATOM     13  C   UNL     1      -1.115  13.399  19.178  0.00  0.00    +0.000 C 
ATOM     14  C   UNL     1      -1.835  12.235  18.538  0.00  0.00    +0.000 C 
ATOM     15  C   UNL     1      -1.051  10.941  18.569  0.00  0.00    +0.000 C 
ATOM     16  O   UNL     1      -1.658   9.889  18.347  0.00  0.00    +0.000 OA
ENDBRANCH   6   9
ENDBRANCH   1   3
BRANCH   1  17
ATOM     17  O   UNL     1       4.380   6.136  18.760  0.00  0.00    +0.000 OA
BRANCH  17  18
ATOM     18  C   UNL     1       5.279   5.106  19.201  0.00  0.00    +0.000 C 
BRANCH  18  19
ATOM     19  C   UNL     1       6.465   4.939  18.259  0.00  0.00    +0.000 C 
ATOM     20  O   UNL     1       7.631   5.069  18.651  0.00  0.00    +0.000 OA
BRANCH  19  25
ATOM     21  C   UNL     1       5.705   3.649  12.614  0.00  0.00    +0.000 C 
ATOM     22  C   UNL     1       5.897   4.009  14.064  0.00  0.00    +0.000 A 
ATOM     23  C   UNL     1       4.999   3.518  15.024  0.00  0.00    +0.000 A 
ATOM     24  C   UNL     1       5.157   3.809  16.388  0.00  0.00    +0.000 A 
ATOM     25  C   UNL     1       6.226   4.602  16.815  0.00  0.00    +0.000 A 
ATOM     26  C   UNL     1       7.117   5.107  15.852  0.00  0.00    +0.000 A 
ATOM     27  C   UNL     1       6.965   4.825  14.481  0.00  0.00    +0.000 A 
ATOM     28  C   UNL     1       7.943   5.401  13.490  0.00  0.00    +0.000 C 
ENDBRANCH  19  25
ENDBRANCH  18  19
ENDBRANCH  17  18
ENDBRANCH   1  17
TORSDOF 6
ENDMDL
MODEL 9
REMARK VINA RESULT:      -7.9      6.678      9.014
REMARK  Name = 
REMARK  8 active torsions:
REMARK  status: ('A' for Active; 'I' for Inactive)
REMARK    1  A    between atoms: C_1  and  C_2
REMARK    2  A    between atoms: C_5  and  C_6
REMARK    3  A    between atoms: C_6  and  C_8
REMARK    4  A    between atoms: C_8  and  O_9
REMARK    5  A    between atoms: O_9  and  C_10
REMARK    6  A    between atoms: C_10  and  C_12
REMARK    7  A    between atoms: C_15  and  N_16
REMARK    8  A    between atoms: C_27  and  C_28
REMARK                            x       y       z     vdW  Elec       q    Type
REMARK                         _______ _______ _______ _____ _____    ______ ____
ROOT
ATOM      1  C   UNL     1       1.092  10.292  19.458  0.00  0.00    +0.000 C 
ATOM      2  O   UNL     1       0.878  11.014  18.506  0.00  0.00    +0.000 OA
ENDROOT
BRANCH   1   3
ATOM      3  C   UNL     1       1.602   8.898  19.299  0.00  0.00    +0.000 A 
ATOM      4  C   UNL     1       2.170   8.538  18.070  0.00  0.00    +0.000 A 
ATOM      5  C   UNL     1       2.584   7.220  17.839  0.00  0.00    +0.000 A 
ATOM      6  C   UNL     1       2.479   6.253  18.848  0.00  0.00    +0.000 A 
ATOM      7  C   UNL     1       1.911   6.618  20.078  0.00  0.00    +0.000 A 
ATOM      8  C   UNL     1       1.480   7.934  20.305  0.00  0.00    +0.000 A 
BRANCH   6   9
ATOM      9  N   UNL     1       2.993   4.927  18.635  0.00  0.00    +0.000 N 
ATOM     10  C   UNL     1       2.208   4.037  17.888  0.00  0.00    +0.000 C 
ATOM     11  O   UNL     1       1.084   4.280  17.447  0.00  0.00    +0.000 OA
ATOM     12  C   UNL     1       2.844   2.697  17.584  0.00  0.00    +0.000 C 
ATOM     13  C   UNL     1       3.628   2.192  18.771  0.00  0.00    +0.000 C 
ATOM     14  C   UNL     1       4.716   3.186  19.105  0.00  0.00    +0.000 C 
ATOM     15  C   UNL     1       4.224   4.612  19.224  0.00  0.00    +0.000 C 
ATOM     16  O   UNL     1       4.959   5.436  19.775  0.00  0.00    +0.000 OA
ENDBRANCH   6   9
ENDBRANCH   1   3
BRANCH   1  17
ATOM     17  O   UNL     1       0.917  10.625  20.766  0.00  0.00    +0.000 OA
BRANCH  17  18
ATOM     18  C   UNL     1      -0.330  11.280  21.046  0.00  0.00    +0.000 C 
BRANCH  18  19
ATOM     19  C   UNL     1      -0.650  11.293  22.536  0.00  0.00    +0.000 C 
ATOM     20  O   UNL     1      -0.165  10.463  23.313  0.00  0.00    +0.000 OA
BRANCH  19  25
ATOM     21  C   UNL     1      -4.143  15.494  24.600  0.00  0.00    +0.000 C 
ATOM     22  C   UNL     1      -3.225  14.413  24.091  0.00  0.00    +0.000 A 
ATOM     23  C   UNL     1      -3.718  13.110  23.922  0.00  0.00    +0.000 A 
ATOM     24  C   UNL     1      -2.903  12.080  23.426  0.00  0.00    +0.000 A 
ATOM     25  C   UNL     1      -1.572  12.342  23.087  0.00  0.00    +0.000 A 
ATOM     26  C   UNL     1      -1.074  13.644  23.270  0.00  0.00    +0.000 A 
ATOM     27  C   UNL     1      -1.881  14.683  23.772  0.00  0.00    +0.000 A 
ATOM     28  C   UNL     1      -1.293  16.058  23.959  0.00  0.00    +0.000 C 
ENDBRANCH  19  25
ENDBRANCH  18  19
ENDBRANCH  17  18
ENDBRANCH   1  17
TORSDOF 6
ENDMDL
