MODEL 1
REMARK VINA RESULT:      -7.8      0.000      0.000
REMARK  Name = 
REMARK  11 active torsions:
REMARK  status: ('A' for Active; 'I' for Inactive)
REMARK    1  A    between atoms: C_1  and  C_2
REMARK    2  A    between atoms: C_6  and  C_7
REMARK    3  A    between atoms: C_7  and  N_8
REMARK    4  A    between atoms: N_8  and  C_9
REMARK    5  A    between atoms: C_9  and  C_10
REMARK    6  A    between atoms: C_16  and  C_18
REMARK    7  A    between atoms: C_18  and  C_19
REMARK    8  A    between atoms: C_19  and  C_20
REMARK    9  A    between atoms: C_21  and  C_22
REMARK   10  A    between atoms: N_24  and  C_25
REMARK   11  A    between atoms: C_26  and  C_27
REMARK                            x       y       z     vdW  Elec       q    Type
REMARK                         _______ _______ _______ _____ _____    ______ ____
ROOT
ATOM      1  N   UNL     1       3.147   6.780  18.280  0.00  0.00    +0.000 N 
ATOM      2  C   UNL     1       2.404   7.825  18.853  0.00  0.00    +0.000 C 
ATOM      3  O   UNL     1       2.004   7.782  20.020  0.00  0.00    +0.000 OA
ENDROOT
BRANCH   1   4
ATOM      4  C   UNL     1       3.489   5.647  19.168  0.00  0.00    +0.000 C 
BRANCH   4  10
ATOM      5  C   UNL     1       2.674   3.259  17.003  0.00  0.00    +0.000 C 
ATOM      6  C   UNL     1       2.091   3.566  18.338  0.00  0.00    +0.000 A 
ATOM      7  N   UNL     1       1.121   2.683  18.800  0.00  0.00    +0.000 NA
ATOM      8  C   UNL     1       0.773   2.995  20.025  0.00  0.00    +0.000 A 
ATOM      9  S   UNL     1       1.537   4.363  20.694  0.00  0.00    +0.000 S 
ATOM     10  C   UNL     1       2.427   4.587  19.230  0.00  0.00    +0.000 A 
ENDBRANCH   4  10
ENDBRANCH   1   4
BRANCH   1  11
ATOM     11  C   UNL     1       4.021   6.998  17.117  0.00  0.00    +0.000 C 
BRANCH  11  12
ATOM     12  C   UNL     1       5.318   6.216  17.034  0.00  0.00    +0.000 A 
ATOM     13  C   UNL     1       6.343   6.478  17.964  0.00  0.00    +0.000 A 
ATOM     14  C   UNL     1       7.477   5.664  18.044  0.00  0.00    +0.000 A 
ATOM     15  C   UNL     1       7.610   4.567  17.197  0.00  0.00    +0.000 A 
ATOM     16  C   UNL     1       6.623   4.317  16.246  0.00  0.00    +0.000 A 
ATOM     17  C   UNL     1       5.497   5.134  16.162  0.00  0.00    +0.000 A 
ENDBRANCH  11  12
ENDBRANCH   1  11
BRANCH   2  18
ATOM     18  C   UNL     1       2.071   9.020  17.964  0.00  0.00    +0.000 C 
BRANCH  18  19
ATOM     19  C   UNL     1       0.762   9.719  18.358  0.00  0.00    +0.000 C 
BRANCH  19  20
ATOM     20  C   UNL     1       0.976  10.781  19.400  0.00  0.00    +0.000 A 
ATOM     21  C   UNL     1       0.519  10.818  20.752  0.00  0.00    +0.000 A 
ATOM     22  C   UNL     1      -0.283   9.837  21.523  0.00  0.00    +0.000 C 
ATOM     23  N   UNL     1       0.908  11.933  21.377  0.00  0.00    +0.000 NA
ATOM     24  N   UNL     1       1.588  12.621  20.450  0.00  0.00    +0.000 N 
ATOM     25  C   UNL     1       2.127  13.913  20.804  0.00  0.00    +0.000 C 
ATOM     26  C   UNL     1       1.674  11.972  19.246  0.00  0.00    +0.000 A 
ATOM     27  C   UNL     1       2.394  12.520  18.067  0.00  0.00    +0.000 C 
ENDBRANCH  19  20
ENDBRANCH  18  19
ENDBRANCH   2  18
TORSDOF 7
ENDMDL
MODEL 2
REMARK VINA RESULT:      -7.7      0.889      1.535
REMARK  Name = 
REMARK  11 active torsions:
REMARK  status: ('A' for Active; 'I' for Inactive)
REMARK    1  A    between atoms: C_1  and  C_2
REMARK    2  A    between atoms: C_6  and  C_7
REMARK    3  A    between atoms: C_7  and  N_8
REMARK    4  A    between atoms: N_8  and  C_9
REMARK    5  A    between atoms: C_9  and  C_10
REMARK    6  A    between atoms: C_16  and  C_18
REMARK    7  A    between atoms: C_18  and  C_19
REMARK    8  A    between atoms: C_19  and  C_20
REMARK    9  A    between atoms: C_21  and  C_22
REMARK   10  A    between atoms: N_24  and  C_25
REMARK   11  A    between atoms: C_26  and  C_27
REMARK                            x       y       z     vdW  Elec       q    Type
REMARK                         _______ _______ _______ _____ _____    ______ ____
ROOT
ATOM      1  N   UNL     1       3.039   6.724  18.617  0.00  0.00    +0.000 N 
ATOM      2  C   UNL     1       2.238   7.747  19.148  0.00  0.00    +0.000 C 
ATOM      3  O   UNL     1       1.778   7.694  20.292  0.00  0.00    +0.000 OA
ENDROOT
BRANCH   1   4
ATOM      4  C   UNL     1       3.364   5.601  19.524  0.00  0.00    +0.000 C 
BRANCH   4  10
ATOM      5  C   UNL     1       2.163   3.464  21.771  0.00  0.00    +0.000 C 
ATOM      6  C   UNL     1       1.932   3.522  20.301  0.00  0.00    +0.000 A 
ATOM      7  N   UNL     1       1.015   2.612  19.789  0.00  0.00    +0.000 NA
ATOM      8  C   UNL     1       0.815   2.840  18.514  0.00  0.00    +0.000 A 
ATOM      9  S   UNL     1       1.716   4.114  17.832  0.00  0.00    +0.000 S 
ATOM     10  C   UNL     1       2.459   4.412  19.363  0.00  0.00    +0.000 A 
ENDBRANCH   4  10
ENDBRANCH   1   4
BRANCH   1  11
ATOM     11  C   UNL     1       3.967   6.966  17.502  0.00  0.00    +0.000 C 
BRANCH  11  12
ATOM     12  C   UNL     1       5.142   6.022  17.324  0.00  0.00    +0.000 A 
ATOM     13  C   UNL     1       5.066   5.000  16.356  0.00  0.00    +0.000 A 
ATOM     14  C   UNL     1       6.183   4.226  16.029  0.00  0.00    +0.000 A 
ATOM     15  C   UNL     1       7.402   4.457  16.660  0.00  0.00    +0.000 A 
ATOM     16  C   UNL     1       7.483   5.437  17.646  0.00  0.00    +0.000 A 
ATOM     17  C   UNL     1       6.367   6.204  17.977  0.00  0.00    +0.000 A 
ENDBRANCH  11  12
ENDBRANCH   1  11
BRANCH   2  18
ATOM     18  C   UNL     1       1.919   8.933  18.241  0.00  0.00    +0.000 C 
BRANCH  18  19
ATOM     19  C   UNL     1       0.637   9.673  18.643  0.00  0.00    +0.000 C 
BRANCH  19  20
ATOM     20  C   UNL     1       0.909  10.809  19.591  0.00  0.00    +0.000 A 
ATOM     21  C   UNL     1       0.490  10.968  20.946  0.00  0.00    +0.000 A 
ATOM     22  C   UNL     1      -0.320  10.077  21.813  0.00  0.00    +0.000 C 
ATOM     23  N   UNL     1       0.928  12.117  21.470  0.00  0.00    +0.000 NA
ATOM     24  N   UNL     1       1.603  12.707  20.474  0.00  0.00    +0.000 N 
ATOM     25  C   UNL     1       2.189  14.006  20.709  0.00  0.00    +0.000 C 
ATOM     26  C   UNL     1       1.638  11.962  19.324  0.00  0.00    +0.000 A 
ATOM     27  C   UNL     1       2.341  12.390  18.088  0.00  0.00    +0.000 C 
ENDBRANCH  19  20
ENDBRANCH  18  19
ENDBRANCH   2  18
TORSDOF 7
ENDMDL
MODEL 3
REMARK VINA RESULT:      -7.7      1.833      4.142
REMARK  Name = 
REMARK  11 active torsions:
REMARK  status: ('A' for Active; 'I' for Inactive)
REMARK    1  A    between atoms: C_1  and  C_2
REMARK    2  A    between atoms: C_6  and  C_7
REMARK    3  A    between atoms: C_7  and  N_8
REMARK    4  A    between atoms: N_8  and  C_9
REMARK    5  A    between atoms: C_9  and  C_10
REMARK    6  A    between atoms: C_16  and  C_18
REMARK    7  A    between atoms: C_18  and  C_19
REMARK    8  A    between atoms: C_19  and  C_20
REMARK    9  A    between atoms: C_21  and  C_22
REMARK   10  A    between atoms: N_24  and  C_25
REMARK   11  A    between atoms: C_26  and  C_27
REMARK                            x       y       z     vdW  Elec       q    Type
REMARK                         _______ _______ _______ _____ _____    ______ ____
ROOT
ATOM      1  N   UNL     1       3.678   7.165  18.118  0.00  0.00    +0.000 N 
ATOM      2  C   UNL     1       2.568   8.018  18.231  0.00  0.00    +0.000 C 
ATOM      3  O   UNL     1       2.103   8.622  17.261  0.00  0.00    +0.000 OA
ENDROOT
BRANCH   1   4
ATOM      4  C   UNL     1       4.225   6.970  16.757  0.00  0.00    +0.000 C 
BRANCH   4  10
ATOM      5  C   UNL     1       7.320   7.788  17.655  0.00  0.00    +0.000 C 
ATOM      6  C   UNL     1       6.799   6.500  17.122  0.00  0.00    +0.000 A 
ATOM      7  N   UNL     1       7.705   5.448  17.065  0.00  0.00    +0.000 NA
ATOM      8  C   UNL     1       7.100   4.348  16.690  0.00  0.00    +0.000 A 
ATOM      9  S   UNL     1       5.437   4.489  16.347  0.00  0.00    +0.000 S 
ATOM     10  C   UNL     1       5.499   6.174  16.726  0.00  0.00    +0.000 A 
ENDBRANCH   4  10
ENDBRANCH   1   4
BRANCH   1  11
ATOM     11  C   UNL     1       3.939   6.098  19.097  0.00  0.00    +0.000 C 
BRANCH  11  12
ATOM     12  C   UNL     1       2.905   4.999  19.257  0.00  0.00    +0.000 A 
ATOM     13  C   UNL     1       2.449   4.664  20.548  0.00  0.00    +0.000 A 
ATOM     14  C   UNL     1       1.373   3.792  20.733  0.00  0.00    +0.000 A 
ATOM     15  C   UNL     1       0.724   3.238  19.631  0.00  0.00    +0.000 A 
ATOM     16  C   UNL     1       1.188   3.530  18.352  0.00  0.00    +0.000 A 
ATOM     17  C   UNL     1       2.267   4.394  18.168  0.00  0.00    +0.000 A 
ENDBRANCH  11  12
ENDBRANCH   1  11
BRANCH   2  18
ATOM     18  C   UNL     1       1.966   8.206  19.621  0.00  0.00    +0.000 C 
BRANCH  18  19
ATOM     19  C   UNL     1       0.590   8.885  19.596  0.00  0.00    +0.000 C 
BRANCH  19  20
ATOM     20  C   UNL     1       0.565  10.151  20.408  0.00  0.00    +0.000 A 
ATOM     21  C   UNL     1       0.111  10.350  21.746  0.00  0.00    +0.000 A 
ATOM     22  C   UNL     1      -0.456   9.388  22.722  0.00  0.00    +0.000 C 
ATOM     23  N   UNL     1       0.246  11.622  22.132  0.00  0.00    +0.000 NA
ATOM     24  N   UNL     1       0.759  12.247  21.064  0.00  0.00    +0.000 N 
ATOM     25  C   UNL     1       1.001  13.668  21.143  0.00  0.00    +0.000 C 
ATOM     26  C   UNL     1       0.985  11.411  20.001  0.00  0.00    +0.000 A 
ATOM     27  C   UNL     1       1.567  11.861  18.711  0.00  0.00    +0.000 C 
ENDBRANCH  19  20
ENDBRANCH  18  19
ENDBRANCH   2  18
TORSDOF 7
ENDMDL
MODEL 4
REMARK VINA RESULT:      -7.7      1.977      4.086
REMARK  Name = 
REMARK  11 active torsions:
REMARK  status: ('A' for Active; 'I' for Inactive)
REMARK    1  A    between atoms: C_1  and  C_2
REMARK    2  A    between atoms: C_6  and  C_7
REMARK    3  A    between atoms: C_7  and  N_8
REMARK    4  A    between atoms: N_8  and  C_9
REMARK    5  A    between atoms: C_9  and  C_10
REMARK    6  A    between atoms: C_16  and  C_18
REMARK    7  A    between atoms: C_18  and  C_19
REMARK    8  A    between atoms: C_19  and  C_20
REMARK    9  A    between atoms: C_21  and  C_22
REMARK   10  A    between atoms: N_24  and  C_25
REMARK   11  A    between atoms: C_26  and  C_27
REMARK                            x       y       z     vdW  Elec       q    Type
REMARK                         _______ _______ _______ _____ _____    ______ ____
ROOT
ATOM      1  N   UNL     1       3.014   6.320  17.866  0.00  0.00    +0.000 N 
ATOM      2  C   UNL     1       2.842   7.709  17.977  0.00  0.00    +0.000 C 
ATOM      3  O   UNL     1       3.656   8.510  17.512  0.00  0.00    +0.000 OA
ENDROOT
BRANCH   1   4
ATOM      4  C   UNL     1       4.193   5.859  17.099  0.00  0.00    +0.000 C 
BRANCH   4  10
ATOM      5  C   UNL     1       5.139   3.600  19.349  0.00  0.00    +0.000 C 
ATOM      6  C   UNL     1       5.863   4.802  18.851  0.00  0.00    +0.000 A 
ATOM      7  N   UNL     1       7.160   4.973  19.320  0.00  0.00    +0.000 NA
ATOM      8  C   UNL     1       7.726   5.994  18.725  0.00  0.00    +0.000 A 
ATOM      9  S   UNL     1       6.758   6.836  17.603  0.00  0.00    +0.000 S 
ATOM     10  C   UNL     1       5.446   5.758  17.921  0.00  0.00    +0.000 A 
ENDBRANCH   4  10
ENDBRANCH   1   4
BRANCH   1  11
ATOM     11  C   UNL     1       1.880   5.388  17.962  0.00  0.00    +0.000 C 
BRANCH  11  12
ATOM     12  C   UNL     1       1.759   4.527  19.205  0.00  0.00    +0.000 A 
ATOM     13  C   UNL     1       1.426   3.164  19.072  0.00  0.00    +0.000 A 
ATOM     14  C   UNL     1       1.481   2.293  20.164  0.00  0.00    +0.000 A 
ATOM     15  C   UNL     1       1.874   2.764  21.414  0.00  0.00    +0.000 A 
ATOM     16  C   UNL     1       2.169   4.116  21.570  0.00  0.00    +0.000 A 
ATOM     17  C   UNL     1       2.106   4.985  20.482  0.00  0.00    +0.000 A 
ENDBRANCH  11  12
ENDBRANCH   1  11
BRANCH   2  18
ATOM     18  C   UNL     1       1.613   8.206  18.734  0.00  0.00    +0.000 C 
BRANCH  18  19
ATOM     19  C   UNL     1       1.115   9.572  18.245  0.00  0.00    +0.000 C 
BRANCH  19  20
ATOM     20  C   UNL     1       1.110  10.602  19.341  0.00  0.00    +0.000 A 
ATOM     21  C   UNL     1       0.561  10.514  20.654  0.00  0.00    +0.000 A 
ATOM     22  C   UNL     1      -0.154   9.401  21.325  0.00  0.00    +0.000 C 
ATOM     23  N   UNL     1       0.752  11.640  21.349  0.00  0.00    +0.000 NA
ATOM     24  N   UNL     1       1.397  12.454  20.503  0.00  0.00    +0.000 N 
ATOM     25  C   UNL     1       1.732  13.788  20.945  0.00  0.00    +0.000 C 
ATOM     26  C   UNL     1       1.652  11.881  19.284  0.00  0.00    +0.000 A 
ATOM     27  C   UNL     1       2.372  12.573  18.184  0.00  0.00    +0.000 C 
ENDBRANCH  19  20
ENDBRANCH  18  19
ENDBRANCH   2  18
TORSDOF 7
ENDMDL
MODEL 5
REMARK VINA RESULT:      -7.6      1.818      3.976
REMARK  Name = 
REMARK  11 active torsions:
REMARK  status: ('A' for Active; 'I' for Inactive)
REMARK    1  A    between atoms: C_1  and  C_2
REMARK    2  A    between atoms: C_6  and  C_7
REMARK    3  A    between atoms: C_7  and  N_8
REMARK    4  A    between atoms: N_8  and  C_9
REMARK    5  A    between atoms: C_9  and  C_10
REMARK    6  A    between atoms: C_16  and  C_18
REMARK    7  A    between atoms: C_18  and  C_19
REMARK    8  A    between atoms: C_19  and  C_20
REMARK    9  A    between atoms: C_21  and  C_22
REMARK   10  A    between atoms: N_24  and  C_25
REMARK   11  A    between atoms: C_26  and  C_27
REMARK                            x       y       z     vdW  Elec       q    Type
REMARK                         _______ _______ _______ _____ _____    ______ ____
ROOT
ATOM      1  N   UNL     1       3.615   7.088  18.279  0.00  0.00    +0.000 N 
ATOM      2  C   UNL     1       2.605   8.062  18.216  0.00  0.00    +0.000 C 
ATOM      3  O   UNL     1       2.365   8.692  17.184  0.00  0.00    +0.000 OA
ENDROOT
BRANCH   1   4
ATOM      4  C   UNL     1       4.338   6.804  17.020  0.00  0.00    +0.000 C 
BRANCH   4  10
ATOM      5  C   UNL     1       5.192   4.026  15.404  0.00  0.00    +0.000 C 
ATOM      6  C   UNL     1       5.898   4.736  16.506  0.00  0.00    +0.000 A 
ATOM      7  N   UNL     1       7.139   4.225  16.867  0.00  0.00    +0.000 NA
ATOM      8  C   UNL     1       7.704   4.999  17.761  0.00  0.00    +0.000 A 
ATOM      9  S   UNL     1       6.799   6.354  18.257  0.00  0.00    +0.000 S 
ATOM     10  C   UNL     1       5.518   5.891  17.194  0.00  0.00    +0.000 A 
ENDBRANCH   4  10
ENDBRANCH   1   4
BRANCH   1  11
ATOM     11  C   UNL     1       3.601   6.021  19.291  0.00  0.00    +0.000 C 
BRANCH  11  12
ATOM     12  C   UNL     1       2.523   4.956  19.201  0.00  0.00    +0.000 A 
ATOM     13  C   UNL     1       2.478   4.115  18.071  0.00  0.00    +0.000 A 
ATOM     14  C   UNL     1       1.625   3.008  18.026  0.00  0.00    +0.000 A 
ATOM     15  C   UNL     1       0.801   2.715  19.109  0.00  0.00    +0.000 A 
ATOM     16  C   UNL     1       0.808   3.559  20.217  0.00  0.00    +0.000 A 
ATOM     17  C   UNL     1       1.653   4.667  20.259  0.00  0.00    +0.000 A 
ENDBRANCH  11  12
ENDBRANCH   1  11
BRANCH   2  18
ATOM     18  C   UNL     1       1.822   8.345  19.496  0.00  0.00    +0.000 C 
BRANCH  18  19
ATOM     19  C   UNL     1       0.600   9.244  19.269  0.00  0.00    +0.000 C 
BRANCH  19  20
ATOM     20  C   UNL     1       0.584  10.428  20.197  0.00  0.00    +0.000 A 
ATOM     21  C   UNL     1       0.134  10.504  21.549  0.00  0.00    +0.000 A 
ATOM     22  C   UNL     1      -0.437   9.458  22.432  0.00  0.00    +0.000 C 
ATOM     23  N   UNL     1       0.277  11.734  22.052  0.00  0.00    +0.000 NA
ATOM     24  N   UNL     1       0.792  12.453  21.045  0.00  0.00    +0.000 N 
ATOM     25  C   UNL     1       1.043  13.859  21.257  0.00  0.00    +0.000 C 
ATOM     26  C   UNL     1       1.011  11.719  19.909  0.00  0.00    +0.000 A 
ATOM     27  C   UNL     1       1.593  12.284  18.664  0.00  0.00    +0.000 C 
ENDBRANCH  19  20
ENDBRANCH  18  19
ENDBRANCH   2  18
TORSDOF 7
ENDMDL
MODEL 6
REMARK VINA RESULT:      -7.6      2.279      4.787
REMARK  Name = 
REMARK  11 active torsions:
REMARK  status: ('A' for Active; 'I' for Inactive)
REMARK    1  A    between atoms: C_1  and  C_2
REMARK    2  A    between atoms: C_6  and  C_7
REMARK    3  A    between atoms: C_7  and  N_8
REMARK    4  A    between atoms: N_8  and  C_9
REMARK    5  A    between atoms: C_9  and  C_10
REMARK    6  A    between atoms: C_16  and  C_18
REMARK    7  A    between atoms: C_18  and  C_19
REMARK    8  A    between atoms: C_19  and  C_20
REMARK    9  A    between atoms: C_21  and  C_22
REMARK   10  A    between atoms: N_24  and  C_25
REMARK   11  A    between atoms: C_26  and  C_27
REMARK                            x       y       z     vdW  Elec       q    Type
REMARK                         _______ _______ _______ _____ _____    ______ ____
ROOT
ATOM      1  N   UNL     1       3.452   6.200  18.338  0.00  0.00    +0.000 N 
ATOM      2  C   UNL     1       3.330   7.527  17.896  0.00  0.00    +0.000 C 
ATOM      3  O   UNL     1       4.313   8.245  17.698  0.00  0.00    +0.000 OA
ENDROOT
BRANCH   1   4
ATOM      4  C   UNL     1       4.828   5.678  18.492  0.00  0.00    +0.000 C 
BRANCH   4  10
ATOM      5  C   UNL     1       7.596   7.174  17.417  0.00  0.00    +0.000 C 
ATOM      6  C   UNL     1       6.748   6.154  16.742  0.00  0.00    +0.000 A 
ATOM      7  N   UNL     1       7.213   5.682  15.520  0.00  0.00    +0.000 NA
ATOM      8  C   UNL     1       6.444   4.713  15.087  0.00  0.00    +0.000 A 
ATOM      9  S   UNL     1       5.110   4.320  16.071  0.00  0.00    +0.000 S 
ATOM     10  C   UNL     1       5.573   5.547  17.195  0.00  0.00    +0.000 A 
ENDBRANCH   4  10
ENDBRANCH   1   4
BRANCH   1  11
ATOM     11  C   UNL     1       2.387   5.209  18.118  0.00  0.00    +0.000 C 
BRANCH  11  12
ATOM     12  C   UNL     1       1.955   4.344  19.288  0.00  0.00    +0.000 A 
ATOM     13  C   UNL     1       1.282   3.132  19.038  0.00  0.00    +0.000 A 
ATOM     14  C   UNL     1       1.028   2.219  20.066  0.00  0.00    +0.000 A 
ATOM     15  C   UNL     1       1.444   2.495  21.365  0.00  0.00    +0.000 A 
ATOM     16  C   UNL     1       2.076   3.706  21.634  0.00  0.00    +0.000 A 
ATOM     17  C   UNL     1       2.322   4.620  20.611  0.00  0.00    +0.000 A 
ENDBRANCH  11  12
ENDBRANCH   1  11
BRANCH   2  18
ATOM     18  C   UNL     1       1.919   8.075  17.697  0.00  0.00    +0.000 C 
BRANCH  18  19
ATOM     19  C   UNL     1       1.800   9.569  18.025  0.00  0.00    +0.000 C 
BRANCH  19  20
ATOM     20  C   UNL     1       0.858   9.827  19.169  0.00  0.00    +0.000 A 
ATOM     21  C   UNL     1      -0.223  10.755  19.251  0.00  0.00    +0.000 A 
ATOM     22  C   UNL     1      -0.737  11.723  18.251  0.00  0.00    +0.000 C 
ATOM     23  N   UNL     1      -0.838  10.698  20.436  0.00  0.00    +0.000 NA
ATOM     24  N   UNL     1      -0.162   9.767  21.123  0.00  0.00    +0.000 N 
ATOM     25  C   UNL     1      -0.564   9.481  22.481  0.00  0.00    +0.000 C 
ATOM     26  C   UNL     1       0.859   9.198  20.408  0.00  0.00    +0.000 A 
ATOM     27  C   UNL     1       1.740   8.127  20.943  0.00  0.00    +0.000 C 
ENDBRANCH  19  20
ENDBRANCH  18  19
ENDBRANCH   2  18
TORSDOF 7
ENDMDL
MODEL 7
REMARK VINA RESULT:      -7.6      1.974      4.044
REMARK  Name = 
REMARK  11 active torsions:
REMARK  status: ('A' for Active; 'I' for Inactive)
REMARK    1  A    between atoms: C_1  and  C_2
REMARK    2  A    between atoms: C_6  and  C_7
REMARK    3  A    between atoms: C_7  and  N_8
REMARK    4  A    between atoms: N_8  and  C_9
REMARK    5  A    between atoms: C_9  and  C_10
REMARK    6  A    between atoms: C_16  and  C_18
REMARK    7  A    between atoms: C_18  and  C_19
REMARK    8  A    between atoms: C_19  and  C_20
REMARK    9  A    between atoms: C_21  and  C_22
REMARK   10  A    between atoms: N_24  and  C_25
REMARK   11  A    between atoms: C_26  and  C_27
REMARK                            x       y       z     vdW  Elec       q    Type
REMARK                         _______ _______ _______ _____ _____    ______ ____
ROOT
ATOM      1  N   UNL     1       2.972   7.037  18.714  0.00  0.00    +0.000 N 
ATOM      2  C   UNL     1       2.306   8.193  18.275  0.00  0.00    +0.000 C 
ATOM      3  O   UNL     1       2.357   8.574  17.103  0.00  0.00    +0.000 OA
ENDROOT
BRANCH   1   4
ATOM      4  C   UNL     1       3.687   6.254  17.683  0.00  0.00    +0.000 C 
BRANCH   4  10
ATOM      5  C   UNL     1       5.021   3.613  19.200  0.00  0.00    +0.000 C 
ATOM      6  C   UNL     1       5.686   4.829  18.657  0.00  0.00    +0.000 A 
ATOM      7  N   UNL     1       7.075   4.840  18.705  0.00  0.00    +0.000 NA
ATOM      8  C   UNL     1       7.541   5.904  18.097  0.00  0.00    +0.000 A 
ATOM      9  S   UNL     1       6.375   6.972  17.463  0.00  0.00    +0.000 S 
ATOM     10  C   UNL     1       5.113   5.944  18.040  0.00  0.00    +0.000 A 
ENDBRANCH   4  10
ENDBRANCH   1   4
BRANCH   1  11
ATOM     11  C   UNL     1       2.551   6.312  19.924  0.00  0.00    +0.000 C 
BRANCH  11  12
ATOM     12  C   UNL     1       1.874   4.965  19.758  0.00  0.00    +0.000 A 
ATOM     13  C   UNL     1       1.603   4.484  18.461  0.00  0.00    +0.000 A 
ATOM     14  C   UNL     1       1.151   3.178  18.252  0.00  0.00    +0.000 A 
ATOM     15  C   UNL     1       0.963   2.322  19.334  0.00  0.00    +0.000 A 
ATOM     16  C   UNL     1       1.190   2.795  20.624  0.00  0.00    +0.000 A 
ATOM     17  C   UNL     1       1.633   4.100  20.832  0.00  0.00    +0.000 A 
ENDBRANCH  11  12
ENDBRANCH   1  11
BRANCH   2  18
ATOM     18  C   UNL     1       1.532   8.996  19.317  0.00  0.00    +0.000 C 
BRANCH  18  19
ATOM     19  C   UNL     1       0.901  10.273  18.747  0.00  0.00    +0.000 C 
BRANCH  19  20
ATOM     20  C   UNL     1       1.062  11.449  19.671  0.00  0.00    +0.000 A 
ATOM     21  C   UNL     1       0.516  11.649  20.974  0.00  0.00    +0.000 A 
ATOM     22  C   UNL     1      -0.355  10.774  21.796  0.00  0.00    +0.000 C 
ATOM     23  N   UNL     1       0.881  12.826  21.491  0.00  0.00    +0.000 NA
ATOM     24  N   UNL     1       1.635  13.393  20.540  0.00  0.00    +0.000 N 
ATOM     25  C   UNL     1       2.173  14.713  20.777  0.00  0.00    +0.000 C 
ATOM     26  C   UNL     1       1.792  12.607  19.428  0.00  0.00    +0.000 A 
ATOM     27  C   UNL     1       2.599  13.004  18.247  0.00  0.00    +0.000 C 
ENDBRANCH  19  20
ENDBRANCH  18  19
ENDBRANCH   2  18
TORSDOF 7
ENDMDL
MODEL 8
REMARK VINA RESULT:      -7.5      2.215      4.475
REMARK  Name = 
REMARK  11 active torsions:
REMARK  status: ('A' for Active; 'I' for Inactive)
REMARK    1  A    between atoms: C_1  and  C_2
REMARK    2  A    between atoms: C_6  and  C_7
REMARK    3  A    between atoms: C_7  and  N_8
REMARK    4  A    between atoms: N_8  and  C_9
REMARK    5  A    between atoms: C_9  and  C_10
REMARK    6  A    between atoms: C_16  and  C_18
REMARK    7  A    between atoms: C_18  and  C_19
REMARK    8  A    between atoms: C_19  and  C_20
REMARK    9  A    between atoms: C_21  and  C_22
REMARK   10  A    between atoms: N_24  and  C_25
REMARK   11  A    between atoms: C_26  and  C_27
REMARK                            x       y       z     vdW  Elec       q    Type
REMARK                         _______ _______ _______ _____ _____    ______ ____
ROOT
ATOM      1  N   UNL     1       3.486   6.986  18.431  0.00  0.00    +0.000 N 
ATOM      2  C   UNL     1       2.475   7.923  18.699  0.00  0.00    +0.000 C 
ATOM      3  O   UNL     1       2.000   8.645  17.819  0.00  0.00    +0.000 OA
ENDROOT
BRANCH   1   4
ATOM      4  C   UNL     1       3.910   6.856  17.019  0.00  0.00    +0.000 C 
BRANCH   4  10
ATOM      5  C   UNL     1       7.031   7.830  17.628  0.00  0.00    +0.000 C 
ATOM      6  C   UNL     1       6.528   6.525  17.118  0.00  0.00    +0.000 A 
ATOM      7  N   UNL     1       7.480   5.527  16.946  0.00  0.00    +0.000 NA
ATOM      8  C   UNL     1       6.901   4.402  16.606  0.00  0.00    +0.000 A 
ATOM      9  S   UNL     1       5.207   4.456  16.432  0.00  0.00    +0.000 S 
ATOM     10  C   UNL     1       5.215   6.134  16.844  0.00  0.00    +0.000 A 
ENDBRANCH   4  10
ENDBRANCH   1   4
BRANCH   1  11
ATOM     11  C   UNL     1       3.715   5.823  19.302  0.00  0.00    +0.000 C 
BRANCH  11  12
ATOM     12  C   UNL     1       2.583   4.830  19.491  0.00  0.00    +0.000 A 
ATOM     13  C   UNL     1       2.014   4.209  18.362  0.00  0.00    +0.000 A 
ATOM     14  C   UNL     1       1.100   3.160  18.495  0.00  0.00    +0.000 A 
ATOM     15  C   UNL     1       0.738   2.705  19.761  0.00  0.00    +0.000 A 
ATOM     16  C   UNL     1       1.263   3.334  20.886  0.00  0.00    +0.000 A 
ATOM     17  C   UNL     1       2.169   4.386  20.753  0.00  0.00    +0.000 A 
ENDBRANCH  11  12
ENDBRANCH   1  11
BRANCH   2  18
ATOM     18  C   UNL     1       1.998   8.048  20.143  0.00  0.00    +0.000 C 
BRANCH  18  19
ATOM     19  C   UNL     1       0.470   8.039  20.277  0.00  0.00    +0.000 C 
BRANCH  19  20
ATOM     20  C   UNL     1      -0.077   9.387  20.661  0.00  0.00    +0.000 A 
ATOM     21  C   UNL     1      -0.182   9.977  21.956  0.00  0.00    +0.000 A 
ATOM     22  C   UNL     1       0.211   9.453  23.287  0.00  0.00    +0.000 C 
ATOM     23  N   UNL     1      -0.724  11.198  21.903  0.00  0.00    +0.000 NA
ATOM     24  N   UNL     1      -0.986  11.395  20.603  0.00  0.00    +0.000 N 
ATOM     25  C   UNL     1      -1.615  12.632  20.204  0.00  0.00    +0.000 C 
ATOM     26  C   UNL     1      -0.605  10.346  19.807  0.00  0.00    +0.000 A 
ATOM     27  C   UNL     1      -0.771  10.334  18.330  0.00  0.00    +0.000 C 
ENDBRANCH  19  20
ENDBRANCH  18  19
ENDBRANCH   2  18
TORSDOF 7
ENDMDL
MODEL 9
REMARK VINA RESULT:      -7.5      2.293      4.465
REMARK  Name = 
REMARK  11 active torsions:
REMARK  status: ('A' for Active; 'I' for Inactive)
REMARK    1  A    between atoms: C_1  and  C_2
REMARK    2  A    between atoms: C_6  and  C_7
REMARK    3  A    between atoms: C_7  and  N_8
REMARK    4  A    between atoms: N_8  and  C_9
REMARK    5  A    between atoms: C_9  and  C_10
REMARK    6  A    between atoms: C_16  and  C_18
REMARK    7  A    between atoms: C_18  and  C_19
REMARK    8  A    between atoms: C_19  and  C_20
REMARK    9  A    between atoms: C_21  and  C_22
REMARK   10  A    between atoms: N_24  and  C_25
REMARK   11  A    between atoms: C_26  and  C_27
REMARK                            x       y       z     vdW  Elec       q    Type
REMARK                         _______ _______ _______ _____ _____    ______ ____
ROOT
ATOM      1  N   UNL     1       2.837   6.908  18.775  0.00  0.00    +0.000 N 
ATOM      2  C   UNL     1       2.447   8.139  18.223  0.00  0.00    +0.000 C 
ATOM      3  O   UNL     1       2.611   8.405  17.030  0.00  0.00    +0.000 OA
ENDROOT
BRANCH   1   4
ATOM      4  C   UNL     1       3.397   5.911  17.836  0.00  0.00    +0.000 C 
BRANCH   4  10
ATOM      5  C   UNL     1       4.943   3.355  19.295  0.00  0.00    +0.000 C 
ATOM      6  C   UNL     1       5.519   4.559  18.636  0.00  0.00    +0.000 A 
ATOM      7  N   UNL     1       6.905   4.595  18.530  0.00  0.00    +0.000 NA
ATOM      8  C   UNL     1       7.278   5.641  17.834  0.00  0.00    +0.000 A 
ATOM      9  S   UNL     1       6.028   6.664  17.292  0.00  0.00    +0.000 S 
ATOM     10  C   UNL     1       4.859   5.639  18.045  0.00  0.00    +0.000 A 
ENDBRANCH   4  10
ENDBRANCH   1   4
BRANCH   1  11
ATOM     11  C   UNL     1       2.237   6.389  20.014  0.00  0.00    +0.000 C 
BRANCH  11  12
ATOM     12  C   UNL     1       1.788   4.940  20.044  0.00  0.00    +0.000 A 
ATOM     13  C   UNL     1       1.364   4.323  18.850  0.00  0.00    +0.000 A 
ATOM     14  C   UNL     1       1.117   2.949  18.792  0.00  0.00    +0.000 A 
ATOM     15  C   UNL     1       1.291   2.159  19.925  0.00  0.00    +0.000 A 
ATOM     16  C   UNL     1       1.672   2.760  21.122  0.00  0.00    +0.000 A 
ATOM     17  C   UNL     1       1.911   4.132  21.181  0.00  0.00    +0.000 A 
ENDBRANCH  11  12
ENDBRANCH   1  11
BRANCH   2  18
ATOM     18  C   UNL     1       1.834   9.169  19.168  0.00  0.00    +0.000 C 
BRANCH  18  19
ATOM     19  C   UNL     1       0.444   9.645  18.724  0.00  0.00    +0.000 C 
BRANCH  19  20
ATOM     20  C   UNL     1      -0.213  10.525  19.752  0.00  0.00    +0.000 A 
ATOM     21  C   UNL     1      -0.709  11.855  19.610  0.00  0.00    +0.000 A 
ATOM     22  C   UNL     1      -0.731  12.752  18.429  0.00  0.00    +0.000 C 
ATOM     23  N   UNL     1      -1.229  12.316  20.751  0.00  0.00    +0.000 NA
ATOM     24  N   UNL     1      -1.061  11.316  21.627  0.00  0.00    +0.000 N 
ATOM     25  C   UNL     1      -1.498  11.508  22.990  0.00  0.00    +0.000 C 
ATOM     26  C   UNL     1      -0.468  10.207  21.080  0.00  0.00    +0.000 A 
ATOM     27  C   UNL     1      -0.192   8.962  21.842  0.00  0.00    +0.000 C 
ENDBRANCH  19  20
ENDBRANCH  18  19
ENDBRANCH   2  18
TORSDOF 7
ENDMDL
