MODEL 1
REMARK VINA RESULT:      -8.9      0.000      0.000
REMARK  Name = 
REMARK  7 active torsions:
REMARK  status: ('A' for Active; 'I' for Inactive)
REMARK    1  A    between atoms: C_7  and  N_8
REMARK    2  A    between atoms: N_11  and  C_12
REMARK    3  A    between atoms: C_12  and  C_13
REMARK    4  A    between atoms: C_13  and  C_14
REMARK    5  A    between atoms: C_17  and  C_18
REMARK    6  A    between atoms: C_18  and  O_19
REMARK    7  A    between atoms: O_19  and  C_20
REMARK                            x       y       z     vdW  Elec       q    Type
REMARK                         _______ _______ _______ _____ _____    ______ ____
ROOT
ATOM      1  C   UNL     1       6.708   5.389  18.023  0.00  0.00    +0.000 A 
ATOM      2  C   UNL     1       7.687   5.723  18.965  0.00  0.00    +0.000 A 
ATOM      3  C   UNL     1       8.275   6.989  18.958  0.00  0.00    +0.000 A 
ATOM      4  C   UNL     1       7.889   7.945  18.011  0.00  0.00    +0.000 A 
ATOM      5  C   UNL     1       6.969   7.587  17.019  0.00  0.00    +0.000 A 
ATOM      6  C   UNL     1       6.377   6.320  17.030  0.00  0.00    +0.000 A 
ENDROOT
BRANCH   1   7
ATOM      7  C   UNL     1       5.989   4.063  18.106  0.00  0.00    +0.000 C 
BRANCH   7   8
ATOM      8  C   UNL     1       4.587   4.148  17.471  0.00  0.00    +0.000 C 
BRANCH   8  12
ATOM      9  N   UNL     1       2.463   6.723  18.947  0.00  0.00    +0.000 N 
ATOM     10  C   UNL     1       3.740   6.306  19.544  0.00  0.00    +0.000 C 
ATOM     11  C   UNL     1       3.782   4.763  19.675  0.00  0.00    +0.000 C 
ATOM     12  N   UNL     1       3.477   4.008  18.430  0.00  0.00    +0.000 NA
ATOM     13  C   UNL     1       2.187   4.519  17.908  0.00  0.00    +0.000 C 
ATOM     14  C   UNL     1       2.123   6.045  17.687  0.00  0.00    +0.000 C 
BRANCH   9  21
ATOM     15  F   UNL     1       1.434   7.420  21.539  0.00  0.00    +0.000 F 
ATOM     16  C   UNL     1       1.349   8.279  20.509  0.00  0.00    +0.000 A 
ATOM     17  C   UNL     1       0.698   9.491  20.743  0.00  0.00    +0.000 A 
ATOM     18  C   UNL     1       0.585  10.426  19.716  0.00  0.00    +0.000 A 
ATOM     19  C   UNL     1       1.138  10.148  18.474  0.00  0.00    +0.000 A 
ATOM     20  C   UNL     1       1.789   8.931  18.251  0.00  0.00    +0.000 A 
ATOM     21  C   UNL     1       1.903   7.954  19.258  0.00  0.00    +0.000 A 
ENDBRANCH   9  21
ENDBRANCH   8  12
ENDBRANCH   7   8
ENDBRANCH   1   7
BRANCH   4  22
ATOM     22  C   UNL     1       8.437   9.347  18.091  0.00  0.00    +0.000 C 
BRANCH  22  23
ATOM     23  O   UNL     1       9.110   9.534  19.332  0.00  0.00    +0.000 OA
BRANCH  23  24
ATOM     24  C   UNL     1       9.679  10.771  19.475  0.00  0.00    +0.000 A 
ATOM     25  C   UNL     1       9.858  11.434  20.687  0.00  0.00    +0.000 A 
ATOM     26  C   UNL     1      10.479  12.687  20.709  0.00  0.00    +0.000 A 
ATOM     27  C   UNL     1      10.936  13.292  19.524  0.00  0.00    +0.000 A 
ATOM     28  C   UNL     1      10.771  12.618  18.314  0.00  0.00    +0.000 A 
ATOM     29  C   UNL     1      10.157  11.353  18.305  0.00  0.00    +0.000 A 
ATOM     30  C   UNL     1      11.302  13.158  17.021  0.00  0.00    +0.000 C 
ATOM     31  C   UNL     1      11.625  14.645  16.992  0.00  0.00    +0.000 C 
ATOM     32  C   UNL     1      12.007  15.313  18.306  0.00  0.00    +0.000 C 
ATOM     33  C   UNL     1      11.627  14.619  19.612  0.00  0.00    +0.000 C 
ENDBRANCH  23  24
ENDBRANCH  22  23
ENDBRANCH   4  22
TORSDOF 7
ENDMDL
MODEL 2
REMARK VINA RESULT:      -8.7      5.917      9.688
REMARK  Name = 
REMARK  7 active torsions:
REMARK  status: ('A' for Active; 'I' for Inactive)
REMARK    1  A    between atoms: C_7  and  N_8
REMARK    2  A    between atoms: N_11  and  C_12
REMARK    3  A    between atoms: C_12  and  C_13
REMARK    4  A    between atoms: C_13  and  C_14
REMARK    5  A    between atoms: C_17  and  C_18
REMARK    6  A    between atoms: C_18  and  O_19
REMARK    7  A    between atoms: O_19  and  C_20
REMARK                            x       y       z     vdW  Elec       q    Type
REMARK                         _______ _______ _______ _____ _____    ______ ____
ROOT
ATOM      1  C   UNL     1       1.810   6.470  20.411  0.00  0.00    +0.000 A 
ATOM      2  C   UNL     1       1.209   7.460  21.197  0.00  0.00    +0.000 A 
ATOM      3  C   UNL     1       1.022   8.748  20.694  0.00  0.00    +0.000 A 
ATOM      4  C   UNL     1       1.429   9.068  19.393  0.00  0.00    +0.000 A 
ATOM      5  C   UNL     1       2.103   8.102  18.635  0.00  0.00    +0.000 A 
ATOM      6  C   UNL     1       2.285   6.811  19.138  0.00  0.00    +0.000 A 
ENDROOT
BRANCH   1   7
ATOM      7  C   UNL     1       1.903   5.049  20.914  0.00  0.00    +0.000 C 
BRANCH   7   8
ATOM      8  C   UNL     1       1.421   4.047  19.846  0.00  0.00    +0.000 C 
BRANCH   8  12
ATOM      9  N   UNL     1       4.274   3.757  17.589  0.00  0.00    +0.000 N 
ATOM     10  C   UNL     1       2.901   3.430  17.181  0.00  0.00    +0.000 C 
ATOM     11  C   UNL     1       2.261   2.465  18.211  0.00  0.00    +0.000 C 
ATOM     12  N   UNL     1       2.330   2.908  19.628  0.00  0.00    +0.000 NA
ATOM     13  C   UNL     1       3.747   3.227  19.924  0.00  0.00    +0.000 C 
ATOM     14  C   UNL     1       4.406   4.245  18.970  0.00  0.00    +0.000 C 
BRANCH   9  21
ATOM     15  F   UNL     1       7.012   4.370  18.216  0.00  0.00    +0.000 F 
ATOM     16  C   UNL     1       6.569   4.407  16.947  0.00  0.00    +0.000 A 
ATOM     17  C   UNL     1       7.480   4.804  15.967  0.00  0.00    +0.000 A 
ATOM     18  C   UNL     1       7.082   4.855  14.633  0.00  0.00    +0.000 A 
ATOM     19  C   UNL     1       5.787   4.493  14.290  0.00  0.00    +0.000 A 
ATOM     20  C   UNL     1       4.884   4.096  15.281  0.00  0.00    +0.000 A 
ATOM     21  C   UNL     1       5.244   4.054  16.641  0.00  0.00    +0.000 A 
ENDBRANCH   9  21
ENDBRANCH   8  12
ENDBRANCH   7   8
ENDBRANCH   1   7
BRANCH   4  22
ATOM     22  C   UNL     1       1.110  10.423  18.816  0.00  0.00    +0.000 C 
BRANCH  22  23
ATOM     23  O   UNL     1      -0.033  10.332  17.969  0.00  0.00    +0.000 OA
BRANCH  23  24
ATOM     24  C   UNL     1      -1.155  10.925  18.484  0.00  0.00    +0.000 A 
ATOM     25  C   UNL     1      -1.192  11.691  19.646  0.00  0.00    +0.000 A 
ATOM     26  C   UNL     1      -2.396  12.271  20.058  0.00  0.00    +0.000 A 
ATOM     27  C   UNL     1      -3.577  12.100  19.313  0.00  0.00    +0.000 A 
ATOM     28  C   UNL     1      -3.533  11.346  18.141  0.00  0.00    +0.000 A 
ATOM     29  C   UNL     1      -2.314  10.779  17.729  0.00  0.00    +0.000 A 
ATOM     30  C   UNL     1      -4.726  11.184  17.250  0.00  0.00    +0.000 C 
ATOM     31  C   UNL     1      -6.081  11.485  17.876  0.00  0.00    +0.000 C 
ATOM     32  C   UNL     1      -6.124  12.479  19.028  0.00  0.00    +0.000 C 
ATOM     33  C   UNL     1      -4.829  12.775  19.782  0.00  0.00    +0.000 C 
ENDBRANCH  23  24
ENDBRANCH  22  23
ENDBRANCH   4  22
TORSDOF 7
ENDMDL
MODEL 3
REMARK VINA RESULT:      -8.6      5.557     10.528
REMARK  Name = 
REMARK  7 active torsions:
REMARK  status: ('A' for Active; 'I' for Inactive)
REMARK    1  A    between atoms: C_7  and  N_8
REMARK    2  A    between atoms: N_11  and  C_12
REMARK    3  A    between atoms: C_12  and  C_13
REMARK    4  A    between atoms: C_13  and  C_14
REMARK    5  A    between atoms: C_17  and  C_18
REMARK    6  A    between atoms: C_18  and  O_19
REMARK    7  A    between atoms: O_19  and  C_20
REMARK                            x       y       z     vdW  Elec       q    Type
REMARK                         _______ _______ _______ _____ _____    ______ ____
ROOT
ATOM      1  C   UNL     1       1.953   7.831  19.524  0.00  0.00    +0.000 A 
ATOM      2  C   UNL     1       2.048   8.651  18.394  0.00  0.00    +0.000 A 
ATOM      3  C   UNL     1       1.473   9.922  18.390  0.00  0.00    +0.000 A 
ATOM      4  C   UNL     1       0.797  10.398  19.520  0.00  0.00    +0.000 A 
ATOM      5  C   UNL     1       0.632   9.550  20.621  0.00  0.00    +0.000 A 
ATOM      6  C   UNL     1       1.213   8.278  20.626  0.00  0.00    +0.000 A 
ENDROOT
BRANCH   1   7
ATOM      7  C   UNL     1       2.676   6.505  19.568  0.00  0.00    +0.000 C 
BRANCH   7   8
ATOM      8  C   UNL     1       3.288   6.159  18.196  0.00  0.00    +0.000 C 
BRANCH   8  12
ATOM      9  N   UNL     1       5.495   4.953  15.551  0.00  0.00    +0.000 N 
ATOM     10  C   UNL     1       4.807   4.051  16.486  0.00  0.00    +0.000 C 
ATOM     11  C   UNL     1       5.054   4.515  17.943  0.00  0.00    +0.000 C 
ATOM     12  N   UNL     1       4.746   5.943  18.220  0.00  0.00    +0.000 NA
ATOM     13  C   UNL     1       5.473   6.754  17.214  0.00  0.00    +0.000 C 
ATOM     14  C   UNL     1       5.198   6.380  15.742  0.00  0.00    +0.000 C 
BRANCH   9  21
ATOM     15  F   UNL     1       8.043   5.652  14.419  0.00  0.00    +0.000 F 
ATOM     16  C   UNL     1       7.181   4.870  13.747  0.00  0.00    +0.000 A 
ATOM     17  C   UNL     1       7.557   4.461  12.466  0.00  0.00    +0.000 A 
ATOM     18  C   UNL     1       6.708   3.643  11.724  0.00  0.00    +0.000 A 
ATOM     19  C   UNL     1       5.503   3.227  12.274  0.00  0.00    +0.000 A 
ATOM     20  C   UNL     1       5.138   3.642  13.559  0.00  0.00    +0.000 A 
ATOM     21  C   UNL     1       5.959   4.487  14.329  0.00  0.00    +0.000 A 
ENDBRANCH   9  21
ENDBRANCH   8  12
ENDBRANCH   7   8
ENDBRANCH   1   7
BRANCH   4  22
ATOM     22  C   UNL     1       0.290  11.817  19.552  0.00  0.00    +0.000 C 
BRANCH  22  23
ATOM     23  O   UNL     1      -0.311  12.145  18.302  0.00  0.00    +0.000 OA
BRANCH  23  24
ATOM     24  C   UNL     1      -1.639  11.822  18.222  0.00  0.00    +0.000 A 
ATOM     25  C   UNL     1      -2.203  10.991  17.257  0.00  0.00    +0.000 A 
ATOM     26  C   UNL     1      -3.573  10.712  17.295  0.00  0.00    +0.000 A 
ATOM     27  C   UNL     1      -4.397  11.252  18.299  0.00  0.00    +0.000 A 
ATOM     28  C   UNL     1      -3.826  12.070  19.273  0.00  0.00    +0.000 A 
ATOM     29  C   UNL     1      -2.446  12.333  19.234  0.00  0.00    +0.000 A 
ATOM     30  C   UNL     1      -4.619  12.618  20.420  0.00  0.00    +0.000 C 
ATOM     31  C   UNL     1      -6.132  12.627  20.252  0.00  0.00    +0.000 C 
ATOM     32  C   UNL     1      -6.749  11.580  19.335  0.00  0.00    +0.000 C 
ATOM     33  C   UNL     1      -5.850  10.890  18.311  0.00  0.00    +0.000 C 
ENDBRANCH  23  24
ENDBRANCH  22  23
ENDBRANCH   4  22
TORSDOF 7
ENDMDL
MODEL 4
REMARK VINA RESULT:      -8.5      3.741      9.728
REMARK  Name = 
REMARK  7 active torsions:
REMARK  status: ('A' for Active; 'I' for Inactive)
REMARK    1  A    between atoms: C_7  and  N_8
REMARK    2  A    between atoms: N_11  and  C_12
REMARK    3  A    between atoms: C_12  and  C_13
REMARK    4  A    between atoms: C_13  and  C_14
REMARK    5  A    between atoms: C_17  and  C_18
REMARK    6  A    between atoms: C_18  and  O_19
REMARK    7  A    between atoms: O_19  and  C_20
REMARK                            x       y       z     vdW  Elec       q    Type
REMARK                         _______ _______ _______ _____ _____    ______ ____
ROOT
ATOM      1  C   UNL     1       8.191   7.721  18.569  0.00  0.00    +0.000 A 
ATOM      2  C   UNL     1       8.126   6.430  19.106  0.00  0.00    +0.000 A 
ATOM      3  C   UNL     1       7.562   5.385  18.373  0.00  0.00    +0.000 A 
ATOM      4  C   UNL     1       7.057   5.612  17.087  0.00  0.00    +0.000 A 
ATOM      5  C   UNL     1       7.048   6.918  16.581  0.00  0.00    +0.000 A 
ATOM      6  C   UNL     1       7.618   7.963  17.314  0.00  0.00    +0.000 A 
ENDROOT
BRANCH   1   7
ATOM      7  C   UNL     1       8.907   8.822  19.314  0.00  0.00    +0.000 C 
BRANCH   7   8
ATOM      8  C   UNL     1       9.020  10.096  18.453  0.00  0.00    +0.000 C 
BRANCH   8  12
ATOM      9  N   UNL     1       9.318  13.711  18.849  0.00  0.00    +0.000 N 
ATOM     10  C   UNL     1       9.418  13.043  17.544  0.00  0.00    +0.000 C 
ATOM     11  C   UNL     1      10.439  11.880  17.625  0.00  0.00    +0.000 C 
ATOM     12  N   UNL     1      10.216  10.911  18.730  0.00  0.00    +0.000 NA
ATOM     13  C   UNL     1      10.113  11.691  19.987  0.00  0.00    +0.000 C 
ATOM     14  C   UNL     1       9.053  12.813  19.982  0.00  0.00    +0.000 C 
BRANCH   9  21
ATOM     15  F   UNL     1       6.812  14.843  18.012  0.00  0.00    +0.000 F 
ATOM     16  C   UNL     1       7.802  15.626  18.474  0.00  0.00    +0.000 A 
ATOM     17  C   UNL     1       7.575  17.003  18.478  0.00  0.00    +0.000 A 
ATOM     18  C   UNL     1       8.562  17.864  18.953  0.00  0.00    +0.000 A 
ATOM     19  C   UNL     1       9.755  17.342  19.433  0.00  0.00    +0.000 A 
ATOM     20  C   UNL     1       9.970  15.960  19.425  0.00  0.00    +0.000 A 
ATOM     21  C   UNL     1       9.005  15.061  18.932  0.00  0.00    +0.000 A 
ENDBRANCH   9  21
ENDBRANCH   8  12
ENDBRANCH   7   8
ENDBRANCH   1   7
BRANCH   4  22
ATOM     22  C   UNL     1       6.565   4.455  16.256  0.00  0.00    +0.000 C 
BRANCH  22  23
ATOM     23  O   UNL     1       5.219   4.688  15.850  0.00  0.00    +0.000 OA
BRANCH  23  24
ATOM     24  C   UNL     1       4.335   4.791  16.890  0.00  0.00    +0.000 A 
ATOM     25  C   UNL     1       3.802   5.984  17.371  0.00  0.00    +0.000 A 
ATOM     26  C   UNL     1       2.883   5.961  18.425  0.00  0.00    +0.000 A 
ATOM     27  C   UNL     1       2.478   4.747  19.008  0.00  0.00    +0.000 A 
ATOM     28  C   UNL     1       3.001   3.552  18.514  0.00  0.00    +0.000 A 
ATOM     29  C   UNL     1       3.914   3.586  17.445  0.00  0.00    +0.000 A 
ATOM     30  C   UNL     1       2.560   2.215  19.026  0.00  0.00    +0.000 C 
ATOM     31  C   UNL     1       1.872   2.206  20.383  0.00  0.00    +0.000 C 
ATOM     32  C   UNL     1       1.128   3.464  20.809  0.00  0.00    +0.000 C 
ATOM     33  C   UNL     1       1.463   4.779  20.110  0.00  0.00    +0.000 C 
ENDBRANCH  23  24
ENDBRANCH  22  23
ENDBRANCH   4  22
TORSDOF 7
ENDMDL
MODEL 5
REMARK VINA RESULT:      -8.5      3.203      5.562
REMARK  Name = 
REMARK  7 active torsions:
REMARK  status: ('A' for Active; 'I' for Inactive)
REMARK    1  A    between atoms: C_7  and  N_8
REMARK    2  A    between atoms: N_11  and  C_12
REMARK    3  A    between atoms: C_12  and  C_13
REMARK    4  A    between atoms: C_13  and  C_14
REMARK    5  A    between atoms: C_17  and  C_18
REMARK    6  A    between atoms: C_18  and  O_19
REMARK    7  A    between atoms: O_19  and  C_20
REMARK                            x       y       z     vdW  Elec       q    Type
REMARK                         _______ _______ _______ _____ _____    ______ ____
ROOT
ATOM      1  C   UNL     1       8.332   9.946  18.053  0.00  0.00    +0.000 A 
ATOM      2  C   UNL     1       9.225   9.752  19.112  0.00  0.00    +0.000 A 
ATOM      3  C   UNL     1       9.864  10.840  19.710  0.00  0.00    +0.000 A 
ATOM      4  C   UNL     1       9.616  12.142  19.260  0.00  0.00    +0.000 A 
ATOM      5  C   UNL     1       8.785  12.332  18.149  0.00  0.00    +0.000 A 
ATOM      6  C   UNL     1       8.142  11.242  17.555  0.00  0.00    +0.000 A 
ENDROOT
BRANCH   1   7
ATOM      7  C   UNL     1       7.554   8.782  17.487  0.00  0.00    +0.000 C 
BRANCH   7   8
ATOM      8  C   UNL     1       7.939   7.463  18.185  0.00  0.00    +0.000 C 
BRANCH   8  12
ATOM      9  N   UNL     1       4.983   5.330  18.358  0.00  0.00    +0.000 N 
ATOM     10  C   UNL     1       6.165   5.121  19.206  0.00  0.00    +0.000 C 
ATOM     11  C   UNL     1       7.443   5.093  18.331  0.00  0.00    +0.000 C 
ATOM     12  N   UNL     1       7.614   6.250  17.413  0.00  0.00    +0.000 NA
ATOM     13  C   UNL     1       6.364   6.378  16.625  0.00  0.00    +0.000 C 
ATOM     14  C   UNL     1       5.069   6.488  17.457  0.00  0.00    +0.000 C 
BRANCH   9  21
ATOM     15  F   UNL     1       3.407   3.590  16.698  0.00  0.00    +0.000 F 
ATOM     16  C   UNL     1       2.950   4.005  17.892  0.00  0.00    +0.000 A 
ATOM     17  C   UNL     1       1.667   3.596  18.259  0.00  0.00    +0.000 A 
ATOM     18  C   UNL     1       1.142   3.988  19.489  0.00  0.00    +0.000 A 
ATOM     19  C   UNL     1       1.909   4.766  20.345  0.00  0.00    +0.000 A 
ATOM     20  C   UNL     1       3.194   5.168  19.966  0.00  0.00    +0.000 A 
ATOM     21  C   UNL     1       3.748   4.811  18.723  0.00  0.00    +0.000 A 
ENDBRANCH   9  21
ENDBRANCH   8  12
ENDBRANCH   7   8
ENDBRANCH   1   7
BRANCH   4  22
ATOM     22  C   UNL     1      10.212  13.317  19.992  0.00  0.00    +0.000 C 
BRANCH  22  23
ATOM     23  O   UNL     1      10.423  12.980  21.360  0.00  0.00    +0.000 OA
BRANCH  23  24
ATOM     24  C   UNL     1       9.419  13.393  22.196  0.00  0.00    +0.000 A 
ATOM     25  C   UNL     1       8.974  14.706  22.321  0.00  0.00    +0.000 A 
ATOM     26  C   UNL     1       7.919  15.003  23.190  0.00  0.00    +0.000 A 
ATOM     27  C   UNL     1       7.291  13.993  23.941  0.00  0.00    +0.000 A 
ATOM     28  C   UNL     1       7.729  12.676  23.801  0.00  0.00    +0.000 A 
ATOM     29  C   UNL     1       8.780  12.387  22.914  0.00  0.00    +0.000 A 
ATOM     30  C   UNL     1       7.060  11.534  24.503  0.00  0.00    +0.000 C 
ATOM     31  C   UNL     1       6.192  11.893  25.701  0.00  0.00    +0.000 C 
ATOM     32  C   UNL     1       5.554  13.276  25.724  0.00  0.00    +0.000 C 
ATOM     33  C   UNL     1       6.143  14.364  24.829  0.00  0.00    +0.000 C 
ENDBRANCH  23  24
ENDBRANCH  22  23
ENDBRANCH   4  22
TORSDOF 7
ENDMDL
MODEL 6
REMARK VINA RESULT:      -8.4      3.558      5.719
REMARK  Name = 
REMARK  7 active torsions:
REMARK  status: ('A' for Active; 'I' for Inactive)
REMARK    1  A    between atoms: C_7  and  N_8
REMARK    2  A    between atoms: N_11  and  C_12
REMARK    3  A    between atoms: C_12  and  C_13
REMARK    4  A    between atoms: C_13  and  C_14
REMARK    5  A    between atoms: C_17  and  C_18
REMARK    6  A    between atoms: C_18  and  O_19
REMARK    7  A    between atoms: O_19  and  C_20
REMARK                            x       y       z     vdW  Elec       q    Type
REMARK                         _______ _______ _______ _____ _____    ______ ____
ROOT
ATOM      1  C   UNL     1       8.864   9.749  18.574  0.00  0.00    +0.000 A 
ATOM      2  C   UNL     1       9.505  10.273  19.702  0.00  0.00    +0.000 A 
ATOM      3  C   UNL     1       9.694  11.649  19.834  0.00  0.00    +0.000 A 
ATOM      4  C   UNL     1       9.241  12.526  18.842  0.00  0.00    +0.000 A 
ATOM      5  C   UNL     1       8.672  11.998  17.677  0.00  0.00    +0.000 A 
ATOM      6  C   UNL     1       8.478  10.620  17.547  0.00  0.00    +0.000 A 
ENDROOT
BRANCH   1   7
ATOM      7  C   UNL     1       8.556   8.272  18.489  0.00  0.00    +0.000 C 
BRANCH   7   8
ATOM      8  C   UNL     1       7.391   8.002  17.516  0.00  0.00    +0.000 C 
BRANCH   8  12
ATOM      9  N   UNL     1       4.918   5.417  18.241  0.00  0.00    +0.000 N 
ATOM     10  C   UNL     1       6.113   5.630  19.070  0.00  0.00    +0.000 C 
ATOM     11  C   UNL     1       7.376   5.667  18.174  0.00  0.00    +0.000 C 
ATOM     12  N   UNL     1       7.319   6.613  17.028  0.00  0.00    +0.000 NA
ATOM     13  C   UNL     1       6.074   6.323  16.277  0.00  0.00    +0.000 C 
ATOM     14  C   UNL     1       4.777   6.351  17.114  0.00  0.00    +0.000 C 
BRANCH   9  21
ATOM     15  F   UNL     1       4.014   2.843  17.336  0.00  0.00    +0.000 F 
ATOM     16  C   UNL     1       3.332   3.523  18.274  0.00  0.00    +0.000 A 
ATOM     17  C   UNL     1       2.150   2.949  18.743  0.00  0.00    +0.000 A 
ATOM     18  C   UNL     1       1.405   3.603  19.722  0.00  0.00    +0.000 A 
ATOM     19  C   UNL     1       1.855   4.812  20.232  0.00  0.00    +0.000 A 
ATOM     20  C   UNL     1       3.042   5.377  19.755  0.00  0.00    +0.000 A 
ATOM     21  C   UNL     1       3.809   4.756  18.751  0.00  0.00    +0.000 A 
ENDBRANCH   9  21
ENDBRANCH   8  12
ENDBRANCH   7   8
ENDBRANCH   1   7
BRANCH   4  22
ATOM     22  C   UNL     1       9.337  14.016  19.052  0.00  0.00    +0.000 C 
BRANCH  22  23
ATOM     23  O   UNL     1       8.320  14.677  18.304  0.00  0.00    +0.000 OA
BRANCH  23  24
ATOM     24  C   UNL     1       7.142  14.833  18.984  0.00  0.00    +0.000 A 
ATOM     25  C   UNL     1       7.031  15.005  20.362  0.00  0.00    +0.000 A 
ATOM     26  C   UNL     1       5.771  15.183  20.941  0.00  0.00    +0.000 A 
ATOM     27  C   UNL     1       4.606  15.199  20.153  0.00  0.00    +0.000 A 
ATOM     28  C   UNL     1       4.721  15.044  18.773  0.00  0.00    +0.000 A 
ATOM     29  C   UNL     1       5.994  14.879  18.199  0.00  0.00    +0.000 A 
ATOM     30  C   UNL     1       3.538  15.130  17.858  0.00  0.00    +0.000 C 
ATOM     31  C   UNL     1       2.172  14.947  18.502  0.00  0.00    +0.000 C 
ATOM     32  C   UNL     1       2.024  15.324  19.970  0.00  0.00    +0.000 C 
ATOM     33  C   UNL     1       3.286  15.430  20.824  0.00  0.00    +0.000 C 
ENDBRANCH  23  24
ENDBRANCH  22  23
ENDBRANCH   4  22
TORSDOF 7
ENDMDL
MODEL 7
REMARK VINA RESULT:      -8.3      5.890     10.113
REMARK  Name = 
REMARK  7 active torsions:
REMARK  status: ('A' for Active; 'I' for Inactive)
REMARK    1  A    between atoms: C_7  and  N_8
REMARK    2  A    between atoms: N_11  and  C_12
REMARK    3  A    between atoms: C_12  and  C_13
REMARK    4  A    between atoms: C_13  and  C_14
REMARK    5  A    between atoms: C_17  and  C_18
REMARK    6  A    between atoms: C_18  and  O_19
REMARK    7  A    between atoms: O_19  and  C_20
REMARK                            x       y       z     vdW  Elec       q    Type
REMARK                         _______ _______ _______ _____ _____    ______ ____
ROOT
ATOM      1  C   UNL     1       1.585   7.205  20.413  0.00  0.00    +0.000 A 
ATOM      2  C   UNL     1       1.975   7.857  19.238  0.00  0.00    +0.000 A 
ATOM      3  C   UNL     1       1.615   9.186  19.012  0.00  0.00    +0.000 A 
ATOM      4  C   UNL     1       0.861   9.888  19.960  0.00  0.00    +0.000 A 
ATOM      5  C   UNL     1       0.402   9.214  21.098  0.00  0.00    +0.000 A 
ATOM      6  C   UNL     1       0.768   7.884  21.327  0.00  0.00    +0.000 A 
ENDROOT
BRANCH   1   7
ATOM      7  C   UNL     1       2.076   5.807  20.709  0.00  0.00    +0.000 C 
BRANCH   7   8
ATOM      8  C   UNL     1       2.648   5.138  19.444  0.00  0.00    +0.000 C 
BRANCH   8  12
ATOM      9  N   UNL     1       5.129   4.543  16.835  0.00  0.00    +0.000 N 
ATOM     10  C   UNL     1       4.206   3.502  17.306  0.00  0.00    +0.000 C 
ATOM     11  C   UNL     1       4.252   3.417  18.853  0.00  0.00    +0.000 C 
ATOM     12  N   UNL     1       4.051   4.704  19.569  0.00  0.00    +0.000 NA
ATOM     13  C   UNL     1       5.015   5.679  19.004  0.00  0.00    +0.000 C 
ATOM     14  C   UNL     1       4.953   5.856  17.472  0.00  0.00    +0.000 C 
BRANCH   9  21
ATOM     15  F   UNL     1       7.670   5.719  16.183  0.00  0.00    +0.000 F 
ATOM     16  C   UNL     1       6.957   5.058  15.255  0.00  0.00    +0.000 A 
ATOM     17  C   UNL     1       7.480   5.017  13.961  0.00  0.00    +0.000 A 
ATOM     18  C   UNL     1       6.790   4.340  12.958  0.00  0.00    +0.000 A 
ATOM     19  C   UNL     1       5.596   3.698  13.260  0.00  0.00    +0.000 A 
ATOM     20  C   UNL     1       5.083   3.746  14.560  0.00  0.00    +0.000 A 
ATOM     21  C   UNL     1       5.741   4.439  15.593  0.00  0.00    +0.000 A 
ENDBRANCH   9  21
ENDBRANCH   8  12
ENDBRANCH   7   8
ENDBRANCH   1   7
BRANCH   4  22
ATOM     22  C   UNL     1       0.584  11.357  19.765  0.00  0.00    +0.000 C 
BRANCH  22  23
ATOM     23  O   UNL     1       0.102  11.587  18.444  0.00  0.00    +0.000 OA
BRANCH  23  24
ATOM     24  C   UNL     1      -1.245  11.381  18.301  0.00  0.00    +0.000 A 
ATOM     25  C   UNL     1      -1.825  10.474  17.419  0.00  0.00    +0.000 A 
ATOM     26  C   UNL     1      -3.216  10.332  17.382  0.00  0.00    +0.000 A 
ATOM     27  C   UNL     1      -4.045  11.090  18.228  0.00  0.00    +0.000 A 
ATOM     28  C   UNL     1      -3.460  11.986  19.122  0.00  0.00    +0.000 A 
ATOM     29  C   UNL     1      -2.061  12.110  19.161  0.00  0.00    +0.000 A 
ATOM     30  C   UNL     1      -4.268  12.769  20.111  0.00  0.00    +0.000 C 
ATOM     31  C   UNL     1      -5.757  12.895  19.819  0.00  0.00    +0.000 C 
ATOM     32  C   UNL     1      -6.416  11.786  19.010  0.00  0.00    +0.000 C 
ATOM     33  C   UNL     1      -5.526  10.870  18.171  0.00  0.00    +0.000 C 
ENDBRANCH  23  24
ENDBRANCH  22  23
ENDBRANCH   4  22
TORSDOF 7
ENDMDL
MODEL 8
REMARK VINA RESULT:      -8.3      2.953      5.332
REMARK  Name = 
REMARK  7 active torsions:
REMARK  status: ('A' for Active; 'I' for Inactive)
REMARK    1  A    between atoms: C_7  and  N_8
REMARK    2  A    between atoms: N_11  and  C_12
REMARK    3  A    between atoms: C_12  and  C_13
REMARK    4  A    between atoms: C_13  and  C_14
REMARK    5  A    between atoms: C_17  and  C_18
REMARK    6  A    between atoms: C_18  and  O_19
REMARK    7  A    between atoms: O_19  and  C_20
REMARK                            x       y       z     vdW  Elec       q    Type
REMARK                         _______ _______ _______ _____ _____    ______ ____
ROOT
ATOM      1  C   UNL     1       8.859   9.883  18.310  0.00  0.00    +0.000 A 
ATOM      2  C   UNL     1      10.029  10.317  18.942  0.00  0.00    +0.000 A 
ATOM      3  C   UNL     1      10.348  11.675  18.987  0.00  0.00    +0.000 A 
ATOM      4  C   UNL     1       9.499  12.623  18.404  0.00  0.00    +0.000 A 
ATOM      5  C   UNL     1       8.370  12.184  17.702  0.00  0.00    +0.000 A 
ATOM      6  C   UNL     1       8.048  10.824  17.662  0.00  0.00    +0.000 A 
ENDROOT
BRANCH   1   7
ATOM      7  C   UNL     1       8.457   8.428  18.365  0.00  0.00    +0.000 C 
BRANCH   7   8
ATOM      8  C   UNL     1       7.159   8.178  17.572  0.00  0.00    +0.000 C 
BRANCH   8  12
ATOM      9  N   UNL     1       4.650   5.602  18.194  0.00  0.00    +0.000 N 
ATOM     10  C   UNL     1       5.866   5.741  19.008  0.00  0.00    +0.000 C 
ATOM     11  C   UNL     1       7.110   5.808  18.087  0.00  0.00    +0.000 C 
ATOM     12  N   UNL     1       7.048   6.823  17.002  0.00  0.00    +0.000 NA
ATOM     13  C   UNL     1       5.782   6.603  16.263  0.00  0.00    +0.000 C 
ATOM     14  C   UNL     1       4.504   6.605  17.129  0.00  0.00    +0.000 C 
BRANCH   9  21
ATOM     15  F   UNL     1       3.183   3.608  16.733  0.00  0.00    +0.000 F 
ATOM     16  C   UNL     1       2.786   3.998  17.957  0.00  0.00    +0.000 A 
ATOM     17  C   UNL     1       1.612   3.431  18.455  0.00  0.00    +0.000 A 
ATOM     18  C   UNL     1       1.155   3.789  19.722  0.00  0.00    +0.000 A 
ATOM     19  C   UNL     1       1.883   4.694  20.482  0.00  0.00    +0.000 A 
ATOM     20  C   UNL     1       3.058   5.254  19.972  0.00  0.00    +0.000 A 
ATOM     21  C   UNL     1       3.538   4.933  18.688  0.00  0.00    +0.000 A 
ENDBRANCH   9  21
ENDBRANCH   8  12
ENDBRANCH   7   8
ENDBRANCH   1   7
BRANCH   4  22
ATOM     22  C   UNL     1       9.788  14.094  18.567  0.00  0.00    +0.000 C 
BRANCH  22  23
ATOM     23  O   UNL     1      10.065  14.384  19.934  0.00  0.00    +0.000 OA
BRANCH  23  24
ATOM     24  C   UNL     1       8.995  14.203  20.769  0.00  0.00    +0.000 A 
ATOM     25  C   UNL     1       7.746  14.797  20.609  0.00  0.00    +0.000 A 
ATOM     26  C   UNL     1       6.719  14.513  21.515  0.00  0.00    +0.000 A 
ATOM     27  C   UNL     1       6.923  13.627  22.588  0.00  0.00    +0.000 A 
ATOM     28  C   UNL     1       8.169  13.020  22.736  0.00  0.00    +0.000 A 
ATOM     29  C   UNL     1       9.191  13.302  21.812  0.00  0.00    +0.000 A 
ATOM     30  C   UNL     1       8.441  12.005  23.804  0.00  0.00    +0.000 C 
ATOM     31  C   UNL     1       7.474  11.985  24.979  0.00  0.00    +0.000 C 
ATOM     32  C   UNL     1       6.050  12.463  24.732  0.00  0.00    +0.000 C 
ATOM     33  C   UNL     1       5.776  13.331  23.506  0.00  0.00    +0.000 C 
ENDBRANCH  23  24
ENDBRANCH  22  23
ENDBRANCH   4  22
TORSDOF 7
ENDMDL
MODEL 9
REMARK VINA RESULT:      -8.3      5.463      9.147
REMARK  Name = 
REMARK  7 active torsions:
REMARK  status: ('A' for Active; 'I' for Inactive)
REMARK    1  A    between atoms: C_7  and  N_8
REMARK    2  A    between atoms: N_11  and  C_12
REMARK    3  A    between atoms: C_12  and  C_13
REMARK    4  A    between atoms: C_13  and  C_14
REMARK    5  A    between atoms: C_17  and  C_18
REMARK    6  A    between atoms: C_18  and  O_19
REMARK    7  A    between atoms: O_19  and  C_20
REMARK                            x       y       z     vdW  Elec       q    Type
REMARK                         _______ _______ _______ _____ _____    ______ ____
ROOT
ATOM      1  C   UNL     1       1.900   5.720  20.401  0.00  0.00    +0.000 A 
ATOM      2  C   UNL     1       1.519   6.737  21.284  0.00  0.00    +0.000 A 
ATOM      3  C   UNL     1       1.442   8.061  20.849  0.00  0.00    +0.000 A 
ATOM      4  C   UNL     1       1.740   8.390  19.521  0.00  0.00    +0.000 A 
ATOM      5  C   UNL     1       2.198   7.387  18.658  0.00  0.00    +0.000 A 
ATOM      6  C   UNL     1       2.269   6.060  19.093  0.00  0.00    +0.000 A 
ENDROOT
BRANCH   1   7
ATOM      7  C   UNL     1       1.867   4.275  20.842  0.00  0.00    +0.000 C 
BRANCH   7   8
ATOM      8  C   UNL     1       1.326   3.363  19.723  0.00  0.00    +0.000 C 
BRANCH   8  12
ATOM      9  N   UNL     1       4.292   3.555  17.605  0.00  0.00    +0.000 N 
ATOM     10  C   UNL     1       2.944   3.330  17.066  0.00  0.00    +0.000 C 
ATOM     11  C   UNL     1       2.259   2.168  17.830  0.00  0.00    +0.000 C 
ATOM     12  N   UNL     1       2.253   2.293  19.311  0.00  0.00    +0.000 NA
ATOM     13  C   UNL     1       3.651   2.535  19.740  0.00  0.00    +0.000 C 
ATOM     14  C   UNL     1       4.351   3.733  19.064  0.00  0.00    +0.000 C 
BRANCH   9  21
ATOM     15  F   UNL     1       5.953   5.804  18.277  0.00  0.00    +0.000 F 
ATOM     16  C   UNL     1       6.084   5.178  17.095  0.00  0.00    +0.000 A 
ATOM     17  C   UNL     1       7.019   5.699  16.199  0.00  0.00    +0.000 A 
ATOM     18  C   UNL     1       7.206   5.088  14.961  0.00  0.00    +0.000 A 
ATOM     19  C   UNL     1       6.472   3.955  14.638  0.00  0.00    +0.000 A 
ATOM     20  C   UNL     1       5.539   3.442  15.544  0.00  0.00    +0.000 A 
ATOM     21  C   UNL     1       5.307   4.045  16.794  0.00  0.00    +0.000 A 
ENDBRANCH   9  21
ENDBRANCH   8  12
ENDBRANCH   7   8
ENDBRANCH   1   7
BRANCH   4  22
ATOM     22  C   UNL     1       1.533   9.800  19.030  0.00  0.00    +0.000 C 
BRANCH  22  23
ATOM     23  O   UNL     1       0.799  10.546  19.997  0.00  0.00    +0.000 OA
BRANCH  23  24
ATOM     24  C   UNL     1      -0.450  10.919  19.579  0.00  0.00    +0.000 A 
ATOM     25  C   UNL     1      -1.306  11.767  20.277  0.00  0.00    +0.000 A 
ATOM     26  C   UNL     1      -2.551  12.099  19.734  0.00  0.00    +0.000 A 
ATOM     27  C   UNL     1      -2.956  11.595  18.485  0.00  0.00    +0.000 A 
ATOM     28  C   UNL     1      -2.091  10.759  17.781  0.00  0.00    +0.000 A 
ATOM     29  C   UNL     1      -0.835  10.443  18.330  0.00  0.00    +0.000 A 
ATOM     30  C   UNL     1      -2.414  10.246  16.411  0.00  0.00    +0.000 C 
ATOM     31  C   UNL     1      -3.878  10.294  16.000  0.00  0.00    +0.000 C 
ATOM     32  C   UNL     1      -4.758  11.361  16.638  0.00  0.00    +0.000 C 
ATOM     33  C   UNL     1      -4.286  12.013  17.936  0.00  0.00    +0.000 C 
ENDBRANCH  23  24
ENDBRANCH  22  23
ENDBRANCH   4  22
TORSDOF 7
ENDMDL
