MODEL 1
REMARK VINA RESULT:      -8.2      0.000      0.000
REMARK  Name = 
REMARK  9 active torsions:
REMARK  status: ('A' for Active; 'I' for Inactive)
REMARK    1  A    between atoms: C_1  and  C_2
REMARK    2  A    between atoms: C_2  and  C_3
REMARK    3  A    between atoms: C_3  and  C_4
REMARK    4  A    between atoms: C_4  and  C_5
REMARK    5  A    between atoms: C_5  and  C_6
REMARK    6  A    between atoms: C_6  and  O_7
REMARK    7  A    between atoms: C_6  and  C_8
REMARK    8  A    between atoms: C_10  and  O_11
REMARK    9  A    between atoms: C_14  and  O_15
REMARK                            x       y       z     vdW  Elec       q    Type
REMARK                         _______ _______ _______ _____ _____    ______ ____
ROOT
ATOM      1  C   UNL     1       5.871   4.785  15.374  0.00  0.00    +0.000 A 
ATOM      2  C   UNL     1       5.558   6.117  15.676  0.00  0.00    +0.000 A 
ATOM      3  C   UNL     1       4.683   6.424  16.722  0.00  0.00    +0.000 A 
ATOM      4  C   UNL     1       4.102   5.409  17.499  0.00  0.00    +0.000 A 
ATOM      5  C   UNL     1       4.417   4.076  17.212  0.00  0.00    +0.000 A 
ATOM      6  C   UNL     1       5.290   3.771  16.151  0.00  0.00    +0.000 A 
ATOM      7  C   UNL     1       3.829   2.980  18.009  0.00  0.00    +0.000 C 
ATOM      8  O   UNL     1       4.164   1.817  17.787  0.00  0.00    +0.000 OA
ATOM      9  C   UNL     1       2.844   3.281  19.055  0.00  0.00    +0.000 A 
ATOM     10  C   UNL     1       2.237   2.237  19.764  0.00  0.00    +0.000 A 
ATOM     11  C   UNL     1       1.292   2.522  20.749  0.00  0.00    +0.000 A 
ATOM     12  C   UNL     1       0.950   3.845  21.025  0.00  0.00    +0.000 A 
ATOM     13  C   UNL     1       1.559   4.884  20.322  0.00  0.00    +0.000 A 
ATOM     14  C   UNL     1       2.512   4.603  19.333  0.00  0.00    +0.000 A 
ATOM     15  C   UNL     1       3.156   5.713  18.605  0.00  0.00    +0.000 C 
ATOM     16  O   UNL     1       2.883   6.858  18.946  0.00  0.00    +0.000 OA
ENDROOT
BRANCH   3  17
ATOM     17  O   UNL     1       4.403   7.738  16.960  0.00  0.00    +0.000 OA
ATOM     18  H   UNL     1       4.709   8.300  16.231  0.00  0.00    +0.000 HD
ENDBRANCH   3  17
BRANCH   6  19
ATOM     19  O   UNL     1       5.589   2.474  15.808  0.00  0.00    +0.000 OA
ATOM     20  H   UNL     1       6.198   2.487  15.031  0.00  0.00    +0.000 HD
ENDBRANCH   6  19
BRANCH   1  21
ATOM     21  C   UNL     1       6.811   4.485  14.225  0.00  0.00    +0.000 C 
BRANCH  21  22
ATOM     22  O   UNL     1       7.792   5.516  14.148  0.00  0.00    +0.000 OA
ATOM     23  H   UNL     1       8.002   5.747  15.074  0.00  0.00    +0.000 HD
ENDBRANCH  21  22
BRANCH  21  24
ATOM     24  C   UNL     1       6.069   4.346  12.891  0.00  0.00    +0.000 C 
BRANCH  24  25
ATOM     25  C   UNL     1       6.501   3.101  12.119  0.00  0.00    +0.000 C 
BRANCH  25  26
ATOM     26  C   UNL     1       5.291   2.440  11.466  0.00  0.00    +0.000 C 
BRANCH  26  28
ATOM     27  C   UNL     1       3.427   3.594  10.249  0.00  0.00    +0.000 C 
ATOM     28  C   UNL     1       4.049   3.313  11.605  0.00  0.00    +0.000 C 
ENDBRANCH  26  28
ENDBRANCH  25  26
ENDBRANCH  24  25
ENDBRANCH  21  24
ENDBRANCH   1  21
TORSDOF 8
ENDMDL
MODEL 2
REMARK VINA RESULT:      -8.2      1.993      3.543
REMARK  Name = 
REMARK  9 active torsions:
REMARK  status: ('A' for Active; 'I' for Inactive)
REMARK    1  A    between atoms: C_1  and  C_2
REMARK    2  A    between atoms: C_2  and  C_3
REMARK    3  A    between atoms: C_3  and  C_4
REMARK    4  A    between atoms: C_4  and  C_5
REMARK    5  A    between atoms: C_5  and  C_6
REMARK    6  A    between atoms: C_6  and  O_7
REMARK    7  A    between atoms: C_6  and  C_8
REMARK    8  A    between atoms: C_10  and  O_11
REMARK    9  A    between atoms: C_14  and  O_15
REMARK                            x       y       z     vdW  Elec       q    Type
REMARK                         _______ _______ _______ _____ _____    ______ ____
ROOT
ATOM      1  C   UNL     1       5.481   4.817  16.534  0.00  0.00    +0.000 A 
ATOM      2  C   UNL     1       5.329   3.887  17.570  0.00  0.00    +0.000 A 
ATOM      3  C   UNL     1       4.477   4.150  18.646  0.00  0.00    +0.000 A 
ATOM      4  C   UNL     1       3.748   5.349  18.713  0.00  0.00    +0.000 A 
ATOM      5  C   UNL     1       3.885   6.280  17.677  0.00  0.00    +0.000 A 
ATOM      6  C   UNL     1       4.753   6.015  16.602  0.00  0.00    +0.000 A 
ATOM      7  C   UNL     1       3.132   7.550  17.710  0.00  0.00    +0.000 C 
ATOM      8  O   UNL     1       3.213   8.331  16.763  0.00  0.00    +0.000 OA
ATOM      9  C   UNL     1       2.299   7.879  18.873  0.00  0.00    +0.000 A 
ATOM     10  C   UNL     1       1.639   9.113  18.933  0.00  0.00    +0.000 A 
ATOM     11  C   UNL     1       0.857   9.431  20.043  0.00  0.00    +0.000 A 
ATOM     12  C   UNL     1       0.735   8.522  21.093  0.00  0.00    +0.000 A 
ATOM     13  C   UNL     1       1.388   7.291  21.030  0.00  0.00    +0.000 A 
ATOM     14  C   UNL     1       2.172   6.966  19.915  0.00  0.00    +0.000 A 
ATOM     15  C   UNL     1       2.848   5.656  19.857  0.00  0.00    +0.000 C 
ATOM     16  O   UNL     1       2.639   4.861  20.765  0.00  0.00    +0.000 OA
ENDROOT
BRANCH   3  17
ATOM     17  O   UNL     1       4.381   3.214  19.634  0.00  0.00    +0.000 OA
ATOM     18  H   UNL     1       3.458   2.956  19.784  0.00  0.00    +0.000 HD
ENDBRANCH   3  17
BRANCH   6  19
ATOM     19  O   UNL     1       4.950   6.923  15.589  0.00  0.00    +0.000 OA
ATOM     20  H   UNL     1       4.548   6.563  14.762  0.00  0.00    +0.000 HD
ENDBRANCH   6  19
BRANCH   1  21
ATOM     21  C   UNL     1       6.424   4.508  15.390  0.00  0.00    +0.000 C 
BRANCH  21  22
ATOM     22  O   UNL     1       7.325   5.600  15.225  0.00  0.00    +0.000 OA
ATOM     23  H   UNL     1       7.903   5.351  14.477  0.00  0.00    +0.000 HD
ENDBRANCH  21  22
BRANCH  21  24
ATOM     24  C   UNL     1       5.677   4.222  14.083  0.00  0.00    +0.000 C 
BRANCH  24  25
ATOM     25  C   UNL     1       6.625   3.829  12.952  0.00  0.00    +0.000 C 
BRANCH  25  26
ATOM     26  C   UNL     1       5.873   3.036  11.887  0.00  0.00    +0.000 C 
BRANCH  26  28
ATOM     27  C   UNL     1       3.775   3.471  10.584  0.00  0.00    +0.000 C 
ATOM     28  C   UNL     1       4.373   3.295  11.968  0.00  0.00    +0.000 C 
ENDBRANCH  26  28
ENDBRANCH  25  26
ENDBRANCH  24  25
ENDBRANCH  21  24
ENDBRANCH   1  21
TORSDOF 8
ENDMDL
MODEL 3
REMARK VINA RESULT:      -7.9      0.778      1.233
REMARK  Name = 
REMARK  9 active torsions:
REMARK  status: ('A' for Active; 'I' for Inactive)
REMARK    1  A    between atoms: C_1  and  C_2
REMARK    2  A    between atoms: C_2  and  C_3
REMARK    3  A    between atoms: C_3  and  C_4
REMARK    4  A    between atoms: C_4  and  C_5
REMARK    5  A    between atoms: C_5  and  C_6
REMARK    6  A    between atoms: C_6  and  O_7
REMARK    7  A    between atoms: C_6  and  C_8
REMARK    8  A    between atoms: C_10  and  O_11
REMARK    9  A    between atoms: C_14  and  O_15
REMARK                            x       y       z     vdW  Elec       q    Type
REMARK                         _______ _______ _______ _____ _____    ______ ____
ROOT
ATOM      1  C   UNL     1       5.777   4.717  15.425  0.00  0.00    +0.000 A 
ATOM      2  C   UNL     1       5.490   6.050  15.746  0.00  0.00    +0.000 A 
ATOM      3  C   UNL     1       4.662   6.361  16.829  0.00  0.00    +0.000 A 
ATOM      4  C   UNL     1       4.104   5.348  17.625  0.00  0.00    +0.000 A 
ATOM      5  C   UNL     1       4.394   4.013  17.318  0.00  0.00    +0.000 A 
ATOM      6  C   UNL     1       5.219   3.705  16.221  0.00  0.00    +0.000 A 
ATOM      7  C   UNL     1       3.828   2.920  18.135  0.00  0.00    +0.000 C 
ATOM      8  O   UNL     1       4.142   1.754  17.894  0.00  0.00    +0.000 OA
ATOM      9  C   UNL     1       2.890   3.225  19.222  0.00  0.00    +0.000 A 
ATOM     10  C   UNL     1       2.303   2.184  19.951  0.00  0.00    +0.000 A 
ATOM     11  C   UNL     1       1.403   2.473  20.976  0.00  0.00    +0.000 A 
ATOM     12  C   UNL     1       1.086   3.798  21.272  0.00  0.00    +0.000 A 
ATOM     13  C   UNL     1       1.676   4.834  20.549  0.00  0.00    +0.000 A 
ATOM     14  C   UNL     1       2.584   4.549  19.520  0.00  0.00    +0.000 A 
ATOM     15  C   UNL     1       3.208   5.656  18.771  0.00  0.00    +0.000 C 
ATOM     16  O   UNL     1       2.961   6.802  19.128  0.00  0.00    +0.000 OA
ENDROOT
BRANCH   3  17
ATOM     17  O   UNL     1       4.405   7.677  17.084  0.00  0.00    +0.000 OA
ATOM     18  H   UNL     1       3.842   7.778  17.868  0.00  0.00    +0.000 HD
ENDBRANCH   3  17
BRANCH   6  19
ATOM     19  O   UNL     1       5.490   2.407  15.860  0.00  0.00    +0.000 OA
ATOM     20  H   UNL     1       5.784   2.398  14.918  0.00  0.00    +0.000 HD
ENDBRANCH   6  19
BRANCH   1  21
ATOM     21  C   UNL     1       6.665   4.414  14.237  0.00  0.00    +0.000 C 
BRANCH  21  22
ATOM     22  O   UNL     1       7.552   5.510  14.029  0.00  0.00    +0.000 OA
ATOM     23  H   UNL     1       7.000   6.312  14.113  0.00  0.00    +0.000 HD
ENDBRANCH  21  22
BRANCH  21  24
ATOM     24  C   UNL     1       5.856   4.126  12.967  0.00  0.00    +0.000 C 
BRANCH  24  25
ATOM     25  C   UNL     1       6.626   3.251  11.980  0.00  0.00    +0.000 C 
BRANCH  25  26
ATOM     26  C   UNL     1       5.764   2.070  11.540  0.00  0.00    +0.000 C 
BRANCH  26  28
ATOM     27  C   UNL     1       6.074  -0.410  11.336  0.00  0.00    +0.000 C 
ATOM     28  C   UNL     1       6.622   0.954  10.956  0.00  0.00    +0.000 C 
ENDBRANCH  26  28
ENDBRANCH  25  26
ENDBRANCH  24  25
ENDBRANCH  21  24
ENDBRANCH   1  21
TORSDOF 8
ENDMDL
MODEL 4
REMARK VINA RESULT:      -7.7      2.785      5.270
REMARK  Name = 
REMARK  9 active torsions:
REMARK  status: ('A' for Active; 'I' for Inactive)
REMARK    1  A    between atoms: C_1  and  C_2
REMARK    2  A    between atoms: C_2  and  C_3
REMARK    3  A    between atoms: C_3  and  C_4
REMARK    4  A    between atoms: C_4  and  C_5
REMARK    5  A    between atoms: C_5  and  C_6
REMARK    6  A    between atoms: C_6  and  O_7
REMARK    7  A    between atoms: C_6  and  C_8
REMARK    8  A    between atoms: C_10  and  O_11
REMARK    9  A    between atoms: C_14  and  O_15
REMARK                            x       y       z     vdW  Elec       q    Type
REMARK                         _______ _______ _______ _____ _____    ______ ____
ROOT
ATOM      1  C   UNL     1       4.814   4.980  17.211  0.00  0.00    +0.000 A 
ATOM      2  C   UNL     1       4.513   4.074  18.236  0.00  0.00    +0.000 A 
ATOM      3  C   UNL     1       3.607   4.413  19.244  0.00  0.00    +0.000 A 
ATOM      4  C   UNL     1       2.972   5.665  19.252  0.00  0.00    +0.000 A 
ATOM      5  C   UNL     1       3.258   6.573  18.227  0.00  0.00    +0.000 A 
ATOM      6  C   UNL     1       4.179   6.231  17.220  0.00  0.00    +0.000 A 
ATOM      7  C   UNL     1       2.607   7.899  18.199  0.00  0.00    +0.000 C 
ATOM      8  O   UNL     1       2.819   8.663  17.258  0.00  0.00    +0.000 OA
ATOM      9  C   UNL     1       1.719   8.303  19.296  0.00  0.00    +0.000 A 
ATOM     10  C   UNL     1       1.156   9.586  19.302  0.00  0.00    +0.000 A 
ATOM     11  C   UNL     1       0.321   9.974  20.350  0.00  0.00    +0.000 A 
ATOM     12  C   UNL     1       0.051   9.087  21.391  0.00  0.00    +0.000 A 
ATOM     13  C   UNL     1       0.608   7.809  21.381  0.00  0.00    +0.000 A 
ATOM     14  C   UNL     1       1.444   7.412  20.328  0.00  0.00    +0.000 A 
ATOM     15  C   UNL     1       2.017   6.053  20.325  0.00  0.00    +0.000 C 
ATOM     16  O   UNL     1       1.679   5.285  21.218  0.00  0.00    +0.000 OA
ENDROOT
BRANCH   3  17
ATOM     17  O   UNL     1       3.365   3.496  20.226  0.00  0.00    +0.000 OA
ATOM     18  H   UNL     1       3.543   3.867  21.104  0.00  0.00    +0.000 HD
ENDBRANCH   3  17
BRANCH   6  19
ATOM     19  O   UNL     1       4.522   7.111  16.221  0.00  0.00    +0.000 OA
ATOM     20  H   UNL     1       4.239   6.729  15.356  0.00  0.00    +0.000 HD
ENDBRANCH   6  19
BRANCH   1  21
ATOM     21  C   UNL     1       5.812   4.587  16.141  0.00  0.00    +0.000 C 
BRANCH  21  22
ATOM     22  O   UNL     1       5.833   3.167  16.027  0.00  0.00    +0.000 OA
ATOM     23  H   UNL     1       5.960   2.833  16.936  0.00  0.00    +0.000 HD
ENDBRANCH  21  22
BRANCH  21  24
ATOM     24  C   UNL     1       7.217   5.126  16.433  0.00  0.00    +0.000 C 
BRANCH  24  25
ATOM     25  C   UNL     1       7.595   4.980  17.905  0.00  0.00    +0.000 C 
BRANCH  25  26
ATOM     26  C   UNL     1       7.854   6.352  18.521  0.00  0.00    +0.000 C 
BRANCH  26  28
ATOM     27  C   UNL     1       8.198   8.782  18.005  0.00  0.00    +0.000 C 
ATOM     28  C   UNL     1       7.656   7.460  17.493  0.00  0.00    +0.000 C 
ENDBRANCH  26  28
ENDBRANCH  25  26
ENDBRANCH  24  25
ENDBRANCH  21  24
ENDBRANCH   1  21
TORSDOF 8
ENDMDL
MODEL 5
REMARK VINA RESULT:      -7.4      4.731      7.613
REMARK  Name = 
REMARK  9 active torsions:
REMARK  status: ('A' for Active; 'I' for Inactive)
REMARK    1  A    between atoms: C_1  and  C_2
REMARK    2  A    between atoms: C_2  and  C_3
REMARK    3  A    between atoms: C_3  and  C_4
REMARK    4  A    between atoms: C_4  and  C_5
REMARK    5  A    between atoms: C_5  and  C_6
REMARK    6  A    between atoms: C_6  and  O_7
REMARK    7  A    between atoms: C_6  and  C_8
REMARK    8  A    between atoms: C_10  and  O_11
REMARK    9  A    between atoms: C_14  and  O_15
REMARK                            x       y       z     vdW  Elec       q    Type
REMARK                         _______ _______ _______ _____ _____    ______ ____
ROOT
ATOM      1  C   UNL     1       2.416   7.271  19.104  0.00  0.00    +0.000 A 
ATOM      2  C   UNL     1       2.530   8.223  18.082  0.00  0.00    +0.000 A 
ATOM      3  C   UNL     1       1.949   9.487  18.219  0.00  0.00    +0.000 A 
ATOM      4  C   UNL     1       1.245   9.836  19.382  0.00  0.00    +0.000 A 
ATOM      5  C   UNL     1       1.135   8.895  20.412  0.00  0.00    +0.000 A 
ATOM      6  C   UNL     1       1.711   7.620  20.266  0.00  0.00    +0.000 A 
ATOM      7  C   UNL     1       0.404   9.227  21.652  0.00  0.00    +0.000 C 
ATOM      8  O   UNL     1       0.370   8.413  22.575  0.00  0.00    +0.000 OA
ATOM      9  C   UNL     1      -0.282  10.518  21.776  0.00  0.00    +0.000 A 
ATOM     10  C   UNL     1      -1.031  10.804  22.925  0.00  0.00    +0.000 A 
ATOM     11  C   UNL     1      -1.693  12.026  23.038  0.00  0.00    +0.000 A 
ATOM     12  C   UNL     1      -1.612  12.961  22.007  0.00  0.00    +0.000 A 
ATOM     13  C   UNL     1      -0.863  12.677  20.866  0.00  0.00    +0.000 A 
ATOM     14  C   UNL     1      -0.192  11.452  20.749  0.00  0.00    +0.000 A 
ATOM     15  C   UNL     1       0.606  11.170  19.541  0.00  0.00    +0.000 C 
ATOM     16  O   UNL     1       0.713  12.059  18.704  0.00  0.00    +0.000 OA
ENDROOT
BRANCH   3  17
ATOM     17  O   UNL     1       2.079  10.369  17.185  0.00  0.00    +0.000 OA
ATOM     18  H   UNL     1       2.355  11.243  17.503  0.00  0.00    +0.000 HD
ENDBRANCH   3  17
BRANCH   6  19
ATOM     19  O   UNL     1       1.587   6.653  21.234  0.00  0.00    +0.000 OA
ATOM     20  H   UNL     1       2.469   6.234  21.374  0.00  0.00    +0.000 HD
ENDBRANCH   6  19
BRANCH   1  21
ATOM     21  C   UNL     1       3.043   5.905  18.918  0.00  0.00    +0.000 C 
BRANCH  21  22
ATOM     22  O   UNL     1       4.296   6.056  18.257  0.00  0.00    +0.000 OA
ATOM     23  H   UNL     1       4.203   5.581  17.408  0.00  0.00    +0.000 HD
ENDBRANCH  21  22
BRANCH  21  24
ATOM     24  C   UNL     1       2.133   4.950  18.138  0.00  0.00    +0.000 C 
BRANCH  24  25
ATOM     25  C   UNL     1       2.004   3.590  18.821  0.00  0.00    +0.000 C 
BRANCH  25  26
ATOM     26  C   UNL     1       0.848   3.609  19.818  0.00  0.00    +0.000 C 
BRANCH  26  28
ATOM     27  C   UNL     1       2.765   2.786  21.210  0.00  0.00    +0.000 C 
ATOM     28  C   UNL     1       1.261   2.989  21.147  0.00  0.00    +0.000 C 
ENDBRANCH  26  28
ENDBRANCH  25  26
ENDBRANCH  24  25
ENDBRANCH  21  24
ENDBRANCH   1  21
TORSDOF 8
ENDMDL
MODEL 6
REMARK VINA RESULT:      -7.4      4.905      7.373
REMARK  Name = 
REMARK  9 active torsions:
REMARK  status: ('A' for Active; 'I' for Inactive)
REMARK    1  A    between atoms: C_1  and  C_2
REMARK    2  A    between atoms: C_2  and  C_3
REMARK    3  A    between atoms: C_3  and  C_4
REMARK    4  A    between atoms: C_4  and  C_5
REMARK    5  A    between atoms: C_5  and  C_6
REMARK    6  A    between atoms: C_6  and  O_7
REMARK    7  A    between atoms: C_6  and  C_8
REMARK    8  A    between atoms: C_10  and  O_11
REMARK    9  A    between atoms: C_14  and  O_15
REMARK                            x       y       z     vdW  Elec       q    Type
REMARK                         _______ _______ _______ _____ _____    ______ ____
ROOT
ATOM      1  C   UNL     1       2.378   7.427  19.047  0.00  0.00    +0.000 A 
ATOM      2  C   UNL     1       2.496   8.406  18.052  0.00  0.00    +0.000 A 
ATOM      3  C   UNL     1       1.915   9.666  18.220  0.00  0.00    +0.000 A 
ATOM      4  C   UNL     1       1.207   9.984  19.390  0.00  0.00    +0.000 A 
ATOM      5  C   UNL     1       1.093   9.016  20.394  0.00  0.00    +0.000 A 
ATOM      6  C   UNL     1       1.670   7.745  20.216  0.00  0.00    +0.000 A 
ATOM      7  C   UNL     1       0.359   9.315  21.640  0.00  0.00    +0.000 C 
ATOM      8  O   UNL     1       0.321   8.477  22.541  0.00  0.00    +0.000 OA
ATOM      9  C   UNL     1      -0.328  10.603  21.796  0.00  0.00    +0.000 A 
ATOM     10  C   UNL     1      -1.080  10.858  22.950  0.00  0.00    +0.000 A 
ATOM     11  C   UNL     1      -1.743  12.076  23.094  0.00  0.00    +0.000 A 
ATOM     12  C   UNL     1      -1.659  13.038  22.088  0.00  0.00    +0.000 A 
ATOM     13  C   UNL     1      -0.906  12.785  20.942  0.00  0.00    +0.000 A 
ATOM     14  C   UNL     1      -0.235  11.563  20.794  0.00  0.00    +0.000 A 
ATOM     15  C   UNL     1       0.567  11.313  19.582  0.00  0.00    +0.000 C 
ATOM     16  O   UNL     1       0.677  12.224  18.769  0.00  0.00    +0.000 OA
ENDROOT
BRANCH   3  17
ATOM     17  O   UNL     1       2.048  10.575  17.211  0.00  0.00    +0.000 OA
ATOM     18  H   UNL     1       1.433  11.316  17.323  0.00  0.00    +0.000 HD
ENDBRANCH   3  17
BRANCH   6  19
ATOM     19  O   UNL     1       1.542   6.752  21.158  0.00  0.00    +0.000 OA
ATOM     20  H   UNL     1       2.442   6.511  21.484  0.00  0.00    +0.000 HD
ENDBRANCH   6  19
BRANCH   1  21
ATOM     21  C   UNL     1       3.006   6.066  18.827  0.00  0.00    +0.000 C 
BRANCH  21  22
ATOM     22  O   UNL     1       3.797   5.732  19.965  0.00  0.00    +0.000 OA
ATOM     23  H   UNL     1       3.333   4.988  20.396  0.00  0.00    +0.000 HD
ENDBRANCH  21  22
BRANCH  21  24
ATOM     24  C   UNL     1       3.850   6.016  17.549  0.00  0.00    +0.000 C 
BRANCH  24  25
ATOM     25  C   UNL     1       5.340   5.870  17.849  0.00  0.00    +0.000 C 
BRANCH  25  26
ATOM     26  C   UNL     1       6.143   6.878  17.031  0.00  0.00    +0.000 C 
BRANCH  26  28
ATOM     27  C   UNL     1       7.793   6.169  18.782  0.00  0.00    +0.000 C 
ATOM     28  C   UNL     1       7.477   7.188  17.702  0.00  0.00    +0.000 C 
ENDBRANCH  26  28
ENDBRANCH  25  26
ENDBRANCH  24  25
ENDBRANCH  21  24
ENDBRANCH   1  21
TORSDOF 8
ENDMDL
MODEL 7
REMARK VINA RESULT:      -7.3      3.397      6.039
REMARK  Name = 
REMARK  9 active torsions:
REMARK  status: ('A' for Active; 'I' for Inactive)
REMARK    1  A    between atoms: C_1  and  C_2
REMARK    2  A    between atoms: C_2  and  C_3
REMARK    3  A    between atoms: C_3  and  C_4
REMARK    4  A    between atoms: C_4  and  C_5
REMARK    5  A    between atoms: C_5  and  C_6
REMARK    6  A    between atoms: C_6  and  O_7
REMARK    7  A    between atoms: C_6  and  C_8
REMARK    8  A    between atoms: C_10  and  O_11
REMARK    9  A    between atoms: C_14  and  O_15
REMARK                            x       y       z     vdW  Elec       q    Type
REMARK                         _______ _______ _______ _____ _____    ______ ____
ROOT
ATOM      1  C   UNL     1       4.219   5.311  18.207  0.00  0.00    +0.000 A 
ATOM      2  C   UNL     1       3.765   4.790  19.426  0.00  0.00    +0.000 A 
ATOM      3  C   UNL     1       2.846   5.498  20.205  0.00  0.00    +0.000 A 
ATOM      4  C   UNL     1       2.351   6.744  19.785  0.00  0.00    +0.000 A 
ATOM      5  C   UNL     1       2.791   7.267  18.564  0.00  0.00    +0.000 A 
ATOM      6  C   UNL     1       3.724   6.555  17.788  0.00  0.00    +0.000 A 
ATOM      7  C   UNL     1       2.290   8.572  18.087  0.00  0.00    +0.000 C 
ATOM      8  O   UNL     1       2.636   8.990  16.982  0.00  0.00    +0.000 OA
ATOM      9  C   UNL     1       1.391   9.367  18.933  0.00  0.00    +0.000 A 
ATOM     10  C   UNL     1       0.971  10.634  18.508  0.00  0.00    +0.000 A 
ATOM     11  C   UNL     1       0.127  11.394  19.316  0.00  0.00    +0.000 A 
ATOM     12  C   UNL     1      -0.296  10.894  20.547  0.00  0.00    +0.000 A 
ATOM     13  C   UNL     1       0.118   9.630  20.966  0.00  0.00    +0.000 A 
ATOM     14  C   UNL     1       0.965   8.861  20.156  0.00  0.00    +0.000 A 
ATOM     15  C   UNL     1       1.386   7.521  20.607  0.00  0.00    +0.000 C 
ATOM     16  O   UNL     1       0.917   7.095  21.656  0.00  0.00    +0.000 OA
ENDROOT
BRANCH   3  17
ATOM     17  O   UNL     1       2.451   4.949  21.391  0.00  0.00    +0.000 OA
ATOM     18  H   UNL     1       2.075   5.622  21.980  0.00  0.00    +0.000 HD
ENDBRANCH   3  17
BRANCH   6  19
ATOM     19  O   UNL     1       4.215   7.055  16.606  0.00  0.00    +0.000 OA
ATOM     20  H   UNL     1       5.040   7.562  16.798  0.00  0.00    +0.000 HD
ENDBRANCH   6  19
BRANCH   1  21
ATOM     21  C   UNL     1       5.226   4.525  17.393  0.00  0.00    +0.000 C 
BRANCH  21  22
ATOM     22  O   UNL     1       4.884   3.143  17.442  0.00  0.00    +0.000 OA
ATOM     23  H   UNL     1       3.924   3.117  17.622  0.00  0.00    +0.000 HD
ENDBRANCH  21  22
BRANCH  21  24
ATOM     24  C   UNL     1       6.662   4.743  17.882  0.00  0.00    +0.000 C 
BRANCH  24  25
ATOM     25  C   UNL     1       7.333   5.927  17.188  0.00  0.00    +0.000 C 
BRANCH  25  26
ATOM     26  C   UNL     1       7.707   6.995  18.213  0.00  0.00    +0.000 C 
BRANCH  26  28
ATOM     27  C   UNL     1       8.590   9.333  18.413  0.00  0.00    +0.000 C 
ATOM     28  C   UNL     1       7.773   8.374  17.566  0.00  0.00    +0.000 C 
ENDBRANCH  26  28
ENDBRANCH  25  26
ENDBRANCH  24  25
ENDBRANCH  21  24
ENDBRANCH   1  21
TORSDOF 8
ENDMDL
MODEL 8
REMARK VINA RESULT:      -7.2      4.927      7.364
REMARK  Name = 
REMARK  9 active torsions:
REMARK  status: ('A' for Active; 'I' for Inactive)
REMARK    1  A    between atoms: C_1  and  C_2
REMARK    2  A    between atoms: C_2  and  C_3
REMARK    3  A    between atoms: C_3  and  C_4
REMARK    4  A    between atoms: C_4  and  C_5
REMARK    5  A    between atoms: C_5  and  C_6
REMARK    6  A    between atoms: C_6  and  O_7
REMARK    7  A    between atoms: C_6  and  C_8
REMARK    8  A    between atoms: C_10  and  O_11
REMARK    9  A    between atoms: C_14  and  O_15
REMARK                            x       y       z     vdW  Elec       q    Type
REMARK                         _______ _______ _______ _____ _____    ______ ____
ROOT
ATOM      1  C   UNL     1       2.247   7.396  19.214  0.00  0.00    +0.000 A 
ATOM      2  C   UNL     1       2.400   8.313  18.166  0.00  0.00    +0.000 A 
ATOM      3  C   UNL     1       1.875   9.604  18.266  0.00  0.00    +0.000 A 
ATOM      4  C   UNL     1       1.188  10.017  19.420  0.00  0.00    +0.000 A 
ATOM      5  C   UNL     1       1.040   9.111  20.476  0.00  0.00    +0.000 A 
ATOM      6  C   UNL     1       1.561   7.809  20.366  0.00  0.00    +0.000 A 
ATOM      7  C   UNL     1       0.327   9.510  21.707  0.00  0.00    +0.000 C 
ATOM      8  O   UNL     1       0.259   8.725  22.653  0.00  0.00    +0.000 OA
ATOM      9  C   UNL     1      -0.303  10.832  21.794  0.00  0.00    +0.000 A 
ATOM     10  C   UNL     1      -1.036  11.183  22.935  0.00  0.00    +0.000 A 
ATOM     11  C   UNL     1      -1.645  12.435  23.013  0.00  0.00    +0.000 A 
ATOM     12  C   UNL     1      -1.526  13.335  21.956  0.00  0.00    +0.000 A 
ATOM     13  C   UNL     1      -0.792  12.987  20.822  0.00  0.00    +0.000 A 
ATOM     14  C   UNL     1      -0.175  11.731  20.740  0.00  0.00    +0.000 A 
ATOM     15  C   UNL     1       0.607  11.381  19.540  0.00  0.00    +0.000 C 
ATOM     16  O   UNL     1       0.751  12.239  18.678  0.00  0.00    +0.000 OA
ENDROOT
BRANCH   3  17
ATOM     17  O   UNL     1       2.040  10.449  17.207  0.00  0.00    +0.000 OA
ATOM     18  H   UNL     1       1.207  10.889  16.976  0.00  0.00    +0.000 HD
ENDBRANCH   3  17
BRANCH   6  19
ATOM     19  O   UNL     1       1.397   6.876  21.362  0.00  0.00    +0.000 OA
ATOM     20  H   UNL     1       1.647   7.289  22.223  0.00  0.00    +0.000 HD
ENDBRANCH   6  19
BRANCH   1  21
ATOM     21  C   UNL     1       2.815   5.999  19.068  0.00  0.00    +0.000 C 
BRANCH  21  22
ATOM     22  O   UNL     1       3.691   5.739  20.161  0.00  0.00    +0.000 OA
ATOM     23  H   UNL     1       4.464   5.284  19.773  0.00  0.00    +0.000 HD
ENDBRANCH  21  22
BRANCH  21  24
ATOM     24  C   UNL     1       3.544   5.806  17.734  0.00  0.00    +0.000 C 
BRANCH  24  25
ATOM     25  C   UNL     1       3.533   4.349  17.278  0.00  0.00    +0.000 C 
BRANCH  25  26
ATOM     26  C   UNL     1       2.146   3.745  17.475  0.00  0.00    +0.000 C 
BRANCH  26  28
ATOM     27  C   UNL     1       3.474   1.711  18.094  0.00  0.00    +0.000 C 
ATOM     28  C   UNL     1       2.209   2.506  18.360  0.00  0.00    +0.000 C 
ENDBRANCH  26  28
ENDBRANCH  25  26
ENDBRANCH  24  25
ENDBRANCH  21  24
ENDBRANCH   1  21
TORSDOF 8
ENDMDL
MODEL 9
REMARK VINA RESULT:      -7.2      4.742      6.940
REMARK  Name = 
REMARK  9 active torsions:
REMARK  status: ('A' for Active; 'I' for Inactive)
REMARK    1  A    between atoms: C_1  and  C_2
REMARK    2  A    between atoms: C_2  and  C_3
REMARK    3  A    between atoms: C_3  and  C_4
REMARK    4  A    between atoms: C_4  and  C_5
REMARK    5  A    between atoms: C_5  and  C_6
REMARK    6  A    between atoms: C_6  and  O_7
REMARK    7  A    between atoms: C_6  and  C_8
REMARK    8  A    between atoms: C_10  and  O_11
REMARK    9  A    between atoms: C_14  and  O_15
REMARK                            x       y       z     vdW  Elec       q    Type
REMARK                         _______ _______ _______ _____ _____    ______ ____
ROOT
ATOM      1  C   UNL     1       2.363   7.266  19.126  0.00  0.00    +0.000 A 
ATOM      2  C   UNL     1       2.499   8.207  18.097  0.00  0.00    +0.000 A 
ATOM      3  C   UNL     1       1.941   9.483  18.220  0.00  0.00    +0.000 A 
ATOM      4  C   UNL     1       1.238   9.855  19.377  0.00  0.00    +0.000 A 
ATOM      5  C   UNL     1       1.106   8.925  20.415  0.00  0.00    +0.000 A 
ATOM      6  C   UNL     1       1.660   7.639  20.282  0.00  0.00    +0.000 A 
ATOM      7  C   UNL     1       0.377   9.281  21.649  0.00  0.00    +0.000 C 
ATOM      8  O   UNL     1       0.323   8.476  22.579  0.00  0.00    +0.000 OA
ATOM      9  C   UNL     1      -0.287  10.586  21.758  0.00  0.00    +0.000 A 
ATOM     10  C   UNL     1      -1.035  10.895  22.901  0.00  0.00    +0.000 A 
ATOM     11  C   UNL     1      -1.676  12.129  23.000  0.00  0.00    +0.000 A 
ATOM     12  C   UNL     1      -1.574  13.053  21.961  0.00  0.00    +0.000 A 
ATOM     13  C   UNL     1      -0.825  12.746  20.826  0.00  0.00    +0.000 A 
ATOM     14  C   UNL     1      -0.176  11.508  20.723  0.00  0.00    +0.000 A 
ATOM     15  C   UNL     1       0.622  11.201  19.521  0.00  0.00    +0.000 C 
ATOM     16  O   UNL     1       0.749  12.080  18.677  0.00  0.00    +0.000 OA
ENDROOT
BRANCH   3  17
ATOM     17  O   UNL     1       2.091  10.353  17.179  0.00  0.00    +0.000 OA
ATOM     18  H   UNL     1       2.369  11.228  17.492  0.00  0.00    +0.000 HD
ENDBRANCH   3  17
BRANCH   6  19
ATOM     19  O   UNL     1       1.514   6.682  21.258  0.00  0.00    +0.000 OA
ATOM     20  H   UNL     1       1.145   5.866  20.845  0.00  0.00    +0.000 HD
ENDBRANCH   6  19
BRANCH   1  21
ATOM     21  C   UNL     1       2.967   5.887  18.956  0.00  0.00    +0.000 C 
BRANCH  21  22
ATOM     22  O   UNL     1       3.851   5.631  20.043  0.00  0.00    +0.000 OA
ATOM     23  H   UNL     1       4.726   5.474  19.638  0.00  0.00    +0.000 HD
ENDBRANCH  21  22
BRANCH  21  24
ATOM     24  C   UNL     1       3.699   5.736  17.618  0.00  0.00    +0.000 C 
BRANCH  24  25
ATOM     25  C   UNL     1       3.826   4.274  17.194  0.00  0.00    +0.000 C 
BRANCH  25  26
ATOM     26  C   UNL     1       5.148   4.051  16.464  0.00  0.00    +0.000 C 
BRANCH  26  28
ATOM     27  C   UNL     1       6.435   4.788  14.442  0.00  0.00    +0.000 C 
ATOM     28  C   UNL     1       5.456   5.210  15.523  0.00  0.00    +0.000 C 
ENDBRANCH  26  28
ENDBRANCH  25  26
ENDBRANCH  24  25
ENDBRANCH  21  24
ENDBRANCH   1  21
TORSDOF 8
ENDMDL
