MODEL 1
REMARK VINA RESULT:      -7.2      0.000      0.000
REMARK  Name = 
REMARK  3 active torsions:
REMARK  status: ('A' for Active; 'I' for Inactive)
REMARK    1  A    between atoms: C_2  and  C_12
REMARK    2  A    between atoms: N_3  and  C_4
REMARK    3  A    between atoms: C_12  and  C_13
REMARK                            x       y       z     vdW  Elec       q    Type
REMARK                         _______ _______ _______ _____ _____    ______ ____
ROOT
ATOM      1  C   UNL     1       3.449   3.649  18.806  0.00  0.00    +0.000 C 
ATOM      2  C   UNL     1       2.842   2.343  19.354  0.00  0.00    +0.000 C 
ATOM      3  C   UNL     1       3.322   2.387  17.948  0.00  0.00    +0.000 C 
ENDROOT
BRANCH   1   4
ATOM      4  C   UNL     1       4.831   4.050  19.200  0.00  0.00    +0.000 C 
ATOM      5  O   UNL     1       5.123   3.906  20.389  0.00  0.00    +0.000 OA
ATOM      6  N   UNL     1       5.707   4.659  18.288  0.00  0.00    +0.000 N 
ATOM      7  C   UNL     1       6.964   5.184  18.841  0.00  0.00    +0.000 C 
ATOM      8  C   UNL     1       8.139   4.439  18.231  0.00  0.00    +0.000 C 
ATOM      9  N   UNL     1       8.177   4.719  16.798  0.00  0.00    +0.000 N 
ATOM     10  C   UNL     1       6.931   4.544  16.152  0.00  0.00    +0.000 A 
ATOM     11  C   UNL     1       6.944   4.425  14.750  0.00  0.00    +0.000 A 
ATOM     12  C   UNL     1       5.763   4.285  14.031  0.00  0.00    +0.000 A 
ATOM     13  C   UNL     1       4.548   4.343  14.697  0.00  0.00    +0.000 A 
ATOM     14  C   UNL     1       4.513   4.527  16.082  0.00  0.00    +0.000 A 
ATOM     15  C   UNL     1       5.683   4.588  16.848  0.00  0.00    +0.000 A 
ATOM     16  H   UNL     1       8.937   4.260  16.307  0.00  0.00    +0.000 HD
ENDBRANCH   1   4
BRANCH   1  18
ATOM     17  O   UNL     1       1.433   4.664  18.095  0.00  0.00    +0.000 OA
ATOM     18  C   UNL     1       2.438   4.775  18.789  0.00  0.00    +0.000 C 
ATOM     19  N   UNL     1       2.768   5.837  19.605  0.00  0.00    +0.000 N 
ATOM     20  H   UNL     1       3.636   5.770  20.138  0.00  0.00    +0.000 HD
BRANCH  19  21
ATOM     21  C   UNL     1       2.090   7.071  19.741  0.00  0.00    +0.000 A 
ATOM     22  C   UNL     1       1.291   7.381  20.847  0.00  0.00    +0.000 A 
ATOM     23  C   UNL     1       0.646   8.617  20.928  0.00  0.00    +0.000 A 
ATOM     24 CL   UNL     1      -0.316   8.985  22.310  0.00  0.00    +0.000 Cl
ATOM     25  C   UNL     1       0.775   9.558  19.914  0.00  0.00    +0.000 A 
ATOM     26  C   UNL     1       1.565   9.265  18.800  0.00  0.00    +0.000 A 
ATOM     27  C   UNL     1       2.222   8.035  18.720  0.00  0.00    +0.000 A 
ATOM     28 CL   UNL     1       3.179   7.716  17.312  0.00  0.00    +0.000 Cl
ENDBRANCH  19  21
ENDBRANCH   1  18
TORSDOF 3
ENDMDL
MODEL 2
REMARK VINA RESULT:      -7.0      1.313      2.638
REMARK  Name = 
REMARK  3 active torsions:
REMARK  status: ('A' for Active; 'I' for Inactive)
REMARK    1  A    between atoms: C_2  and  C_12
REMARK    2  A    between atoms: N_3  and  C_4
REMARK    3  A    between atoms: C_12  and  C_13
REMARK                            x       y       z     vdW  Elec       q    Type
REMARK                         _______ _______ _______ _____ _____    ______ ____
ROOT
ATOM      1  C   UNL     1       3.419   3.529  19.051  0.00  0.00    +0.000 C 
ATOM      2  C   UNL     1       4.486   2.774  19.867  0.00  0.00    +0.000 C 
ATOM      3  C   UNL     1       3.210   2.089  19.530  0.00  0.00    +0.000 C 
ENDROOT
BRANCH   1   4
ATOM      4  C   UNL     1       3.604   3.721  17.583  0.00  0.00    +0.000 C 
ATOM      5  O   UNL     1       2.654   3.399  16.866  0.00  0.00    +0.000 OA
ATOM      6  N   UNL     1       4.830   4.141  17.047  0.00  0.00    +0.000 N 
ATOM      7  C   UNL     1       4.949   4.106  15.582  0.00  0.00    +0.000 C 
ATOM      8  C   UNL     1       5.159   5.514  15.054  0.00  0.00    +0.000 C 
ATOM      9  N   UNL     1       6.437   6.015  15.553  0.00  0.00    +0.000 N 
ATOM     10  C   UNL     1       6.608   5.845  16.947  0.00  0.00    +0.000 A 
ATOM     11  C   UNL     1       7.611   6.611  17.569  0.00  0.00    +0.000 A 
ATOM     12  C   UNL     1       7.872   6.482  18.929  0.00  0.00    +0.000 A 
ATOM     13  C   UNL     1       7.187   5.528  19.667  0.00  0.00    +0.000 A 
ATOM     14  C   UNL     1       6.233   4.713  19.051  0.00  0.00    +0.000 A 
ATOM     15  C   UNL     1       5.886   4.871  17.704  0.00  0.00    +0.000 A 
ATOM     16  H   UNL     1       6.660   6.957  15.246  0.00  0.00    +0.000 HD
ENDBRANCH   1   4
BRANCH   1  18
ATOM     17  O   UNL     1       2.682   4.655  20.997  0.00  0.00    +0.000 OA
ATOM     18  C   UNL     1       2.895   4.738  19.792  0.00  0.00    +0.000 C 
ATOM     19  N   UNL     1       2.726   5.853  18.997  0.00  0.00    +0.000 N 
ATOM     20  H   UNL     1       2.967   5.769  18.009  0.00  0.00    +0.000 HD
BRANCH  19  21
ATOM     21  C   UNL     1       2.171   7.103  19.360  0.00  0.00    +0.000 A 
ATOM     22  C   UNL     1       1.504   7.315  20.572  0.00  0.00    +0.000 A 
ATOM     23  C   UNL     1       0.977   8.572  20.878  0.00  0.00    +0.000 A 
ATOM     24 CL   UNL     1       0.179   8.815  22.386  0.00  0.00    +0.000 Cl
ATOM     25  C   UNL     1       1.093   9.631  19.986  0.00  0.00    +0.000 A 
ATOM     26  C   UNL     1       1.751   9.437  18.769  0.00  0.00    +0.000 A 
ATOM     27  C   UNL     1       2.291   8.186  18.464  0.00  0.00    +0.000 A 
ATOM     28 CL   UNL     1       3.085   7.994  16.937  0.00  0.00    +0.000 Cl
ENDBRANCH  19  21
ENDBRANCH   1  18
TORSDOF 3
ENDMDL
MODEL 3
REMARK VINA RESULT:      -6.8      3.796      8.169
REMARK  Name = 
REMARK  3 active torsions:
REMARK  status: ('A' for Active; 'I' for Inactive)
REMARK    1  A    between atoms: C_2  and  C_12
REMARK    2  A    between atoms: N_3  and  C_4
REMARK    3  A    between atoms: C_12  and  C_13
REMARK                            x       y       z     vdW  Elec       q    Type
REMARK                         _______ _______ _______ _____ _____    ______ ____
ROOT
ATOM      1  C   UNL     1       0.885   9.582  20.858  0.00  0.00    +0.000 C 
ATOM      2  C   UNL     1      -0.379   8.869  21.374  0.00  0.00    +0.000 C 
ATOM      3  C   UNL     1       0.797   9.003  22.273  0.00  0.00    +0.000 C 
ENDROOT
BRANCH   1   4
ATOM      4  C   UNL     1       0.908  11.070  20.748  0.00  0.00    +0.000 C 
ATOM      5  O   UNL     1       1.813  11.648  21.352  0.00  0.00    +0.000 OA
ATOM      6  N   UNL     1      -0.109  11.772  20.084  0.00  0.00    +0.000 N 
ATOM      7  C   UNL     1      -0.081  13.237  20.210  0.00  0.00    +0.000 C 
ATOM      8  C   UNL     1       0.130  13.862  18.842  0.00  0.00    +0.000 C 
ATOM      9  N   UNL     1      -1.022  13.549  18.001  0.00  0.00    +0.000 N 
ATOM     10  C   UNL     1      -1.374  12.178  18.007  0.00  0.00    +0.000 A 
ATOM     11  C   UNL     1      -2.207  11.724  16.969  0.00  0.00    +0.000 A 
ATOM     12  C   UNL     1      -2.631  10.401  16.917  0.00  0.00    +0.000 A 
ATOM     13  C   UNL     1      -2.292   9.535  17.946  0.00  0.00    +0.000 A 
ATOM     14  C   UNL     1      -1.519   9.986  19.019  0.00  0.00    +0.000 A 
ATOM     15  C   UNL     1      -1.005  11.288  19.063  0.00  0.00    +0.000 A 
ATOM     16  H   UNL     1      -0.965  13.931  17.063  0.00  0.00    +0.000 HD
ENDBRANCH   1   4
BRANCH   1  18
ATOM     17  O   UNL     1       1.506   9.370  18.584  0.00  0.00    +0.000 OA
ATOM     18  C   UNL     1       1.510   8.846  19.693  0.00  0.00    +0.000 C 
ATOM     19  N   UNL     1       2.052   7.623  20.028  0.00  0.00    +0.000 N 
ATOM     20  H   UNL     1       1.992   7.332  21.005  0.00  0.00    +0.000 HD
BRANCH  19  21
ATOM     21  C   UNL     1       2.619   6.658  19.163  0.00  0.00    +0.000 A 
ATOM     22  C   UNL     1       3.488   6.990  18.119  0.00  0.00    +0.000 A 
ATOM     23  C   UNL     1       4.020   5.994  17.297  0.00  0.00    +0.000 A 
ATOM     24 CL   UNL     1       5.105   6.426  16.030  0.00  0.00    +0.000 Cl
ATOM     25  C   UNL     1       3.691   4.658  17.491  0.00  0.00    +0.000 A 
ATOM     26  C   UNL     1       2.821   4.306  18.526  0.00  0.00    +0.000 A 
ATOM     27  C   UNL     1       2.298   5.298  19.359  0.00  0.00    +0.000 A 
ATOM     28 CL   UNL     1       1.214   4.811  20.619  0.00  0.00    +0.000 Cl
ENDBRANCH  19  21
ENDBRANCH   1  18
TORSDOF 3
ENDMDL
MODEL 4
REMARK VINA RESULT:      -6.7      6.781      9.884
REMARK  Name = 
REMARK  3 active torsions:
REMARK  status: ('A' for Active; 'I' for Inactive)
REMARK    1  A    between atoms: C_2  and  C_12
REMARK    2  A    between atoms: N_3  and  C_4
REMARK    3  A    between atoms: C_12  and  C_13
REMARK                            x       y       z     vdW  Elec       q    Type
REMARK                         _______ _______ _______ _____ _____    ______ ____
ROOT
ATOM      1  C   UNL     1      -1.271  13.537  20.157  0.00  0.00    +0.000 C 
ATOM      2  C   UNL     1      -0.935  15.039  20.087  0.00  0.00    +0.000 C 
ATOM      3  C   UNL     1      -0.267  14.192  21.110  0.00  0.00    +0.000 C 
ENDROOT
BRANCH   1   4
ATOM      4  C   UNL     1      -0.710  12.601  19.139  0.00  0.00    +0.000 C 
ATOM      5  O   UNL     1      -0.534  13.064  18.010  0.00  0.00    +0.000 OA
ATOM      6  N   UNL     1      -0.500  11.244  19.428  0.00  0.00    +0.000 N 
ATOM      7  C   UNL     1      -0.130  10.385  18.293  0.00  0.00    +0.000 C 
ATOM      8  C   UNL     1       1.259   9.814  18.519  0.00  0.00    +0.000 C 
ATOM      9  N   UNL     1       1.222   8.944  19.691  0.00  0.00    +0.000 N 
ATOM     10  C   UNL     1       0.606   9.536  20.819  0.00  0.00    +0.000 A 
ATOM     11  C   UNL     1       0.850   8.943  22.070  0.00  0.00    +0.000 A 
ATOM     12  C   UNL     1       0.257   9.438  23.227  0.00  0.00    +0.000 A 
ATOM     13  C   UNL     1      -0.649  10.484  23.135  0.00  0.00    +0.000 A 
ATOM     14  C   UNL     1      -0.953  11.044  21.890  0.00  0.00    +0.000 A 
ATOM     15  C   UNL     1      -0.313  10.626  20.717  0.00  0.00    +0.000 A 
ATOM     16  H   UNL     1       2.114   8.515  19.916  0.00  0.00    +0.000 HD
ENDBRANCH   1   4
BRANCH   1  18
ATOM     17  O   UNL     1      -3.134  13.644  21.612  0.00  0.00    +0.000 OA
ATOM     18  C   UNL     1      -2.723  13.302  20.508  0.00  0.00    +0.000 C 
ATOM     19  N   UNL     1      -3.458  12.720  19.496  0.00  0.00    +0.000 N 
ATOM     20  H   UNL     1      -2.974  12.510  18.622  0.00  0.00    +0.000 HD
BRANCH  19  21
ATOM     21  C   UNL     1      -4.804  12.288  19.537  0.00  0.00    +0.000 A 
ATOM     22  C   UNL     1      -5.576  12.314  20.704  0.00  0.00    +0.000 A 
ATOM     23  C   UNL     1      -6.901  11.876  20.685  0.00  0.00    +0.000 A 
ATOM     24 CL   UNL     1      -7.838  11.938  22.131  0.00  0.00    +0.000 Cl
ATOM     25  C   UNL     1      -7.479  11.397  19.516  0.00  0.00    +0.000 A 
ATOM     26  C   UNL     1      -6.723  11.359  18.341  0.00  0.00    +0.000 A 
ATOM     27  C   UNL     1      -5.401  11.809  18.352  0.00  0.00    +0.000 A 
ATOM     28 CL   UNL     1      -4.504  11.728  16.873  0.00  0.00    +0.000 Cl
ENDBRANCH  19  21
ENDBRANCH   1  18
TORSDOF 3
ENDMDL
MODEL 5
REMARK VINA RESULT:      -6.7      7.073     10.302
REMARK  Name = 
REMARK  3 active torsions:
REMARK  status: ('A' for Active; 'I' for Inactive)
REMARK    1  A    between atoms: C_2  and  C_12
REMARK    2  A    between atoms: N_3  and  C_4
REMARK    3  A    between atoms: C_12  and  C_13
REMARK                            x       y       z     vdW  Elec       q    Type
REMARK                         _______ _______ _______ _____ _____    ______ ____
ROOT
ATOM      1  C   UNL     1       0.148  10.714  19.994  0.00  0.00    +0.000 C 
ATOM      2  C   UNL     1       0.836   9.412  20.448  0.00  0.00    +0.000 C 
ATOM      3  C   UNL     1      -0.331   9.921  21.214  0.00  0.00    +0.000 C 
ENDROOT
BRANCH   1   4
ATOM      4  C   UNL     1      -0.748  10.705  18.801  0.00  0.00    +0.000 C 
ATOM      5  O   UNL     1      -0.410   9.971  17.870  0.00  0.00    +0.000 OA
ATOM      6  N   UNL     1      -1.851  11.567  18.705  0.00  0.00    +0.000 N 
ATOM      7  C   UNL     1      -2.540  11.605  17.407  0.00  0.00    +0.000 C 
ATOM      8  C   UNL     1      -3.966  11.112  17.572  0.00  0.00    +0.000 C 
ATOM      9  N   UNL     1      -4.685  12.041  18.440  0.00  0.00    +0.000 N 
ATOM     10  C   UNL     1      -3.995  12.351  19.635  0.00  0.00    +0.000 A 
ATOM     11  C   UNL     1      -4.744  12.922  20.680  0.00  0.00    +0.000 A 
ATOM     12  C   UNL     1      -4.140  13.290  21.877  0.00  0.00    +0.000 A 
ATOM     13  C   UNL     1      -2.765  13.165  22.014  0.00  0.00    +0.000 A 
ATOM     14  C   UNL     1      -1.996  12.661  20.962  0.00  0.00    +0.000 A 
ATOM     15  C   UNL     1      -2.580  12.203  19.774  0.00  0.00    +0.000 A 
ATOM     16  H   UNL     1      -5.654  11.787  18.605  0.00  0.00    +0.000 HD
ENDBRANCH   1   4
BRANCH   1  18
ATOM     17  O   UNL     1       1.521  12.232  21.180  0.00  0.00    +0.000 OA
ATOM     18  C   UNL     1       1.078  11.903  20.085  0.00  0.00    +0.000 C 
ATOM     19  N   UNL     1       1.349  12.497  18.870  0.00  0.00    +0.000 N 
ATOM     20  H   UNL     1       0.915  12.092  18.039  0.00  0.00    +0.000 HD
BRANCH  19  21
ATOM     21  C   UNL     1       2.097  13.673  18.625  0.00  0.00    +0.000 A 
ATOM     22  C   UNL     1       3.469  13.657  18.354  0.00  0.00    +0.000 A 
ATOM     23  C   UNL     1       4.157  14.849  18.118  0.00  0.00    +0.000 A 
ATOM     24 CL   UNL     1       5.843  14.803  17.764  0.00  0.00    +0.000 Cl
ATOM     25  C   UNL     1       3.499  16.073  18.157  0.00  0.00    +0.000 A 
ATOM     26  C   UNL     1       2.129  16.109  18.431  0.00  0.00    +0.000 A 
ATOM     27  C   UNL     1       1.435  14.918  18.655  0.00  0.00    +0.000 A 
ATOM     28 CL   UNL     1      -0.258  15.019  19.003  0.00  0.00    +0.000 Cl
ENDBRANCH  19  21
ENDBRANCH   1  18
TORSDOF 3
ENDMDL
MODEL 6
REMARK VINA RESULT:      -6.4      5.525      8.566
REMARK  Name = 
REMARK  3 active torsions:
REMARK  status: ('A' for Active; 'I' for Inactive)
REMARK    1  A    between atoms: C_2  and  C_12
REMARK    2  A    between atoms: N_3  and  C_4
REMARK    3  A    between atoms: C_12  and  C_13
REMARK                            x       y       z     vdW  Elec       q    Type
REMARK                         _______ _______ _______ _____ _____    ______ ____
ROOT
ATOM      1  C   UNL     1      -1.594  11.574  19.009  0.00  0.00    +0.000 C 
ATOM      2  C   UNL     1      -3.083  11.524  18.617  0.00  0.00    +0.000 C 
ATOM      3  C   UNL     1      -2.188  10.408  18.213  0.00  0.00    +0.000 C 
ENDROOT
BRANCH   1   4
ATOM      4  C   UNL     1      -1.185  11.281  20.414  0.00  0.00    +0.000 C 
ATOM      5  O   UNL     1      -1.913  11.733  21.300  0.00  0.00    +0.000 OA
ATOM      6  N   UNL     1       0.019  10.623  20.705  0.00  0.00    +0.000 N 
ATOM      7  C   UNL     1       0.406  10.566  22.123  0.00  0.00    +0.000 C 
ATOM      8  C   UNL     1       0.444   9.119  22.582  0.00  0.00    +0.000 C 
ATOM      9  N   UNL     1       1.495   8.421  21.847  0.00  0.00    +0.000 N 
ATOM     10  C   UNL     1       1.439   8.625  20.447  0.00  0.00    +0.000 A 
ATOM     11  C   UNL     1       2.153   7.722  19.638  0.00  0.00    +0.000 A 
ATOM     12  C   UNL     1       2.183   7.868  18.256  0.00  0.00    +0.000 A 
ATOM     13  C   UNL     1       1.564   8.963  17.672  0.00  0.00    +0.000 A 
ATOM     14  C   UNL     1       0.905   9.906  18.466  0.00  0.00    +0.000 A 
ATOM     15  C   UNL     1       0.785   9.747  19.853  0.00  0.00    +0.000 A 
ATOM     16  H   UNL     1       1.592   7.441  22.093  0.00  0.00    +0.000 HD
ENDBRANCH   1   4
BRANCH   1  18
ATOM     17  O   UNL     1      -0.757  12.773  17.148  0.00  0.00    +0.000 OA
ATOM     18  C   UNL     1      -0.883  12.745  18.368  0.00  0.00    +0.000 C 
ATOM     19  N   UNL     1      -0.453  13.700  19.266  0.00  0.00    +0.000 N 
ATOM     20  H   UNL     1      -0.651  13.541  20.255  0.00  0.00    +0.000 HD
BRANCH  19  21
ATOM     21  C   UNL     1       0.318  14.856  19.002  0.00  0.00    +0.000 A 
ATOM     22  C   UNL     1      -0.240  16.052  18.536  0.00  0.00    +0.000 A 
ATOM     23  C   UNL     1       0.571  17.162  18.294  0.00  0.00    +0.000 A 
ATOM     24 CL   UNL     1      -0.142  18.631  17.739  0.00  0.00    +0.000 Cl
ATOM     25  C   UNL     1       1.944  17.104  18.500  0.00  0.00    +0.000 A 
ATOM     26  C   UNL     1       2.520  15.917  18.962  0.00  0.00    +0.000 A 
ATOM     27  C   UNL     1       1.712  14.808  19.218  0.00  0.00    +0.000 A 
ATOM     28 CL   UNL     1       2.476  13.357  19.775  0.00  0.00    +0.000 Cl
ENDBRANCH  19  21
ENDBRANCH   1  18
TORSDOF 3
ENDMDL
MODEL 7
REMARK VINA RESULT:      -6.4      5.215      9.973
REMARK  Name = 
REMARK  3 active torsions:
REMARK  status: ('A' for Active; 'I' for Inactive)
REMARK    1  A    between atoms: C_2  and  C_12
REMARK    2  A    between atoms: N_3  and  C_4
REMARK    3  A    between atoms: C_12  and  C_13
REMARK                            x       y       z     vdW  Elec       q    Type
REMARK                         _______ _______ _______ _____ _____    ______ ____
ROOT
ATOM      1  C   UNL     1      -0.232  12.873  19.640  0.00  0.00    +0.000 C 
ATOM      2  C   UNL     1       0.630  14.067  19.184  0.00  0.00    +0.000 C 
ATOM      3  C   UNL     1      -0.257  13.394  18.200  0.00  0.00    +0.000 C 
ENDROOT
BRANCH   1   4
ATOM      4  C   UNL     1      -1.459  13.110  20.455  0.00  0.00    +0.000 C 
ATOM      5  O   UNL     1      -1.326  13.836  21.443  0.00  0.00    +0.000 OA
ATOM      6  N   UNL     1      -2.666  12.453  20.172  0.00  0.00    +0.000 N 
ATOM      7  C   UNL     1      -3.745  12.616  21.157  0.00  0.00    +0.000 C 
ATOM      8  C   UNL     1      -4.920  13.330  20.512  0.00  0.00    +0.000 C 
ATOM      9  N   UNL     1      -5.461  12.480  19.455  0.00  0.00    +0.000 N 
ATOM     10  C   UNL     1      -4.477  11.982  18.568  0.00  0.00    +0.000 A 
ATOM     11  C   UNL     1      -4.922  11.478  17.332  0.00  0.00    +0.000 A 
ATOM     12  C   UNL     1      -4.028  10.937  16.415  0.00  0.00    +0.000 A 
ATOM     13  C   UNL     1      -2.689  10.820  16.755  0.00  0.00    +0.000 A 
ATOM     14  C   UNL     1      -2.240  11.255  18.005  0.00  0.00    +0.000 A 
ATOM     15  C   UNL     1      -3.096  11.881  18.920  0.00  0.00    +0.000 A 
ATOM     16  H   UNL     1      -6.256  12.882  18.968  0.00  0.00    +0.000 HD
ENDBRANCH   1   4
BRANCH   1  18
ATOM     17  O   UNL     1       1.428  11.869  20.996  0.00  0.00    +0.000 OA
ATOM     18  C   UNL     1       0.618  11.705  20.089  0.00  0.00    +0.000 C 
ATOM     19  N   UNL     1       0.363  10.532  19.410  0.00  0.00    +0.000 N 
ATOM     20  H   UNL     1      -0.360  10.552  18.689  0.00  0.00    +0.000 HD
BRANCH  19  21
ATOM     21  C   UNL     1       1.042   9.297  19.524  0.00  0.00    +0.000 A 
ATOM     22  C   UNL     1       1.928   8.824  18.549  0.00  0.00    +0.000 A 
ATOM     23  C   UNL     1       2.573   7.597  18.716  0.00  0.00    +0.000 A 
ATOM     24 CL   UNL     1       3.675   7.045  17.512  0.00  0.00    +0.000 Cl
ATOM     25  C   UNL     1       2.343   6.816  19.843  0.00  0.00    +0.000 A 
ATOM     26  C   UNL     1       1.459   7.270  20.825  0.00  0.00    +0.000 A 
ATOM     27  C   UNL     1       0.822   8.502  20.669  0.00  0.00    +0.000 A 
ATOM     28 CL   UNL     1      -0.275   9.012  21.908  0.00  0.00    +0.000 Cl
ENDBRANCH  19  21
ENDBRANCH   1  18
TORSDOF 3
ENDMDL
MODEL 8
REMARK VINA RESULT:      -6.3      3.220      6.926
REMARK  Name = 
REMARK  3 active torsions:
REMARK  status: ('A' for Active; 'I' for Inactive)
REMARK    1  A    between atoms: C_2  and  C_12
REMARK    2  A    between atoms: N_3  and  C_4
REMARK    3  A    between atoms: C_12  and  C_13
REMARK                            x       y       z     vdW  Elec       q    Type
REMARK                         _______ _______ _______ _____ _____    ______ ____
ROOT
ATOM      1  C   UNL     1       5.874   4.735  17.850  0.00  0.00    +0.000 C 
ATOM      2  C   UNL     1       7.398   4.778  18.078  0.00  0.00    +0.000 C 
ATOM      3  C   UNL     1       6.612   6.035  18.185  0.00  0.00    +0.000 C 
ENDROOT
BRANCH   1   4
ATOM      4  C   UNL     1       4.979   4.186  18.909  0.00  0.00    +0.000 C 
ATOM      5  O   UNL     1       5.389   3.190  19.509  0.00  0.00    +0.000 OA
ATOM      6  N   UNL     1       3.696   4.711  19.130  0.00  0.00    +0.000 N 
ATOM      7  C   UNL     1       2.837   3.965  20.062  0.00  0.00    +0.000 C 
ATOM      8  C   UNL     1       2.518   4.834  21.266  0.00  0.00    +0.000 C 
ATOM      9  N   UNL     1       1.733   5.982  20.820  0.00  0.00    +0.000 N 
ATOM     10  C   UNL     1       2.289   6.651  19.704  0.00  0.00    +0.000 A 
ATOM     11  C   UNL     1       1.826   7.953  19.440  0.00  0.00    +0.000 A 
ATOM     12  C   UNL     1       2.292   8.670  18.344  0.00  0.00    +0.000 A 
ATOM     13  C   UNL     1       3.167   8.065  17.454  0.00  0.00    +0.000 A 
ATOM     14  C   UNL     1       3.587   6.749  17.665  0.00  0.00    +0.000 A 
ATOM     15  C   UNL     1       3.203   6.025  18.802  0.00  0.00    +0.000 A 
ATOM     16  H   UNL     1       1.472   6.619  21.565  0.00  0.00    +0.000 HD
ENDBRANCH   1   4
BRANCH   1  18
ATOM     17  O   UNL     1       4.525   3.633  16.248  0.00  0.00    +0.000 OA
ATOM     18  C   UNL     1       5.529   4.311  16.439  0.00  0.00    +0.000 C 
ATOM     19  N   UNL     1       6.412   4.770  15.484  0.00  0.00    +0.000 N 
ATOM     20  H   UNL     1       7.195   5.344  15.802  0.00  0.00    +0.000 HD
BRANCH  19  21
ATOM     21  C   UNL     1       6.426   4.476  14.101  0.00  0.00    +0.000 A 
ATOM     22  C   UNL     1       5.426   3.724  13.473  0.00  0.00    +0.000 A 
ATOM     23  C   UNL     1       5.491   3.467  12.103  0.00  0.00    +0.000 A 
ATOM     24 CL   UNL     1       4.237   2.556  11.349  0.00  0.00    +0.000 Cl
ATOM     25  C   UNL     1       6.549   3.940  11.336  0.00  0.00    +0.000 A 
ATOM     26  C   UNL     1       7.559   4.689  11.945  0.00  0.00    +0.000 A 
ATOM     27  C   UNL     1       7.492   4.960  13.313  0.00  0.00    +0.000 A 
ATOM     28 CL   UNL     1       8.776   5.882  14.022  0.00  0.00    +0.000 Cl
ENDBRANCH  19  21
ENDBRANCH   1  18
TORSDOF 3
ENDMDL
MODEL 9
REMARK VINA RESULT:      -6.3      3.430      7.151
REMARK  Name = 
REMARK  3 active torsions:
REMARK  status: ('A' for Active; 'I' for Inactive)
REMARK    1  A    between atoms: C_2  and  C_12
REMARK    2  A    between atoms: N_3  and  C_4
REMARK    3  A    between atoms: C_12  and  C_13
REMARK                            x       y       z     vdW  Elec       q    Type
REMARK                         _______ _______ _______ _____ _____    ______ ____
ROOT
ATOM      1  C   UNL     1       6.080   6.152  17.192  0.00  0.00    +0.000 C 
ATOM      2  C   UNL     1       7.512   6.628  17.506  0.00  0.00    +0.000 C 
ATOM      3  C   UNL     1       6.360   7.484  17.895  0.00  0.00    +0.000 C 
ENDROOT
BRANCH   1   4
ATOM      4  C   UNL     1       5.453   5.081  18.021  0.00  0.00    +0.000 C 
ATOM      5  O   UNL     1       6.148   4.087  18.245  0.00  0.00    +0.000 OA
ATOM      6  N   UNL     1       4.113   5.158  18.428  0.00  0.00    +0.000 N 
ATOM      7  C   UNL     1       3.555   3.959  19.071  0.00  0.00    +0.000 C 
ATOM      8  C   UNL     1       3.164   4.283  20.502  0.00  0.00    +0.000 C 
ATOM      9  N   UNL     1       2.088   5.269  20.481  0.00  0.00    +0.000 N 
ATOM     10  C   UNL     1       2.351   6.380  19.645  0.00  0.00    +0.000 A 
ATOM     11  C   UNL     1       1.569   7.533  19.841  0.00  0.00    +0.000 A 
ATOM     12  C   UNL     1       1.736   8.658  19.041  0.00  0.00    +0.000 A 
ATOM     13  C   UNL     1       2.634   8.616  17.985  0.00  0.00    +0.000 A 
ATOM     14  C   UNL     1       3.373   7.457  17.734  0.00  0.00    +0.000 A 
ATOM     15  C   UNL     1       3.291   6.334  18.568  0.00  0.00    +0.000 A 
ATOM     16  H   UNL     1       1.761   5.545  21.401  0.00  0.00    +0.000 HD
ENDBRANCH   1   4
BRANCH   1  18
ATOM     17  O   UNL     1       5.179   6.885  15.131  0.00  0.00    +0.000 OA
ATOM     18  C   UNL     1       5.842   6.028  15.704  0.00  0.00    +0.000 C 
ATOM     19  N   UNL     1       6.440   4.924  15.131  0.00  0.00    +0.000 N 
ATOM     20  H   UNL     1       6.980   4.309  15.742  0.00  0.00    +0.000 HD
BRANCH  19  21
ATOM     21  C   UNL     1       6.334   4.475  13.794  0.00  0.00    +0.000 A 
ATOM     22  C   UNL     1       5.215   3.788  13.309  0.00  0.00    +0.000 A 
ATOM     23  C   UNL     1       5.164   3.370  11.978  0.00  0.00    +0.000 A 
ATOM     24 CL   UNL     1       3.766   2.544  11.399  0.00  0.00    +0.000 Cl
ATOM     25  C   UNL     1       6.222   3.615  11.111  0.00  0.00    +0.000 A 
ATOM     26  C   UNL     1       7.350   4.295  11.578  0.00  0.00    +0.000 A 
ATOM     27  C   UNL     1       7.400   4.727  12.904  0.00  0.00    +0.000 A 
ATOM     28 CL   UNL     1       8.826   5.554  13.436  0.00  0.00    +0.000 Cl
ENDBRANCH  19  21
ENDBRANCH   1  18
TORSDOF 3
ENDMDL
