MODEL 1
REMARK VINA RESULT:      -7.7      0.000      0.000
REMARK  Name = 
REMARK  10 active torsions:
REMARK  status: ('A' for Active; 'I' for Inactive)
REMARK    1  A    between atoms: N_9  and  C_10
REMARK    2  A    between atoms: C_10  and  C_11
REMARK    3  A    between atoms: C_11  and  C_12
REMARK    4  A    between atoms: C_11  and  C_14
REMARK    5  A    between atoms: C_12  and  O_13
REMARK    6  A    between atoms: C_14  and  C_15
REMARK    7  A    between atoms: C_15  and  C_16
REMARK    8  A    between atoms: C_15  and  P_22
REMARK    9  A    between atoms: P_22  and  O_24
REMARK   10  A    between atoms: P_22  and  O_25
REMARK                            x       y       z     vdW  Elec       q    Type
REMARK                         _______ _______ _______ _____ _____    ______ ____
ROOT
ATOM      1  C   UNL     1       3.639   5.581  17.043  0.00  0.00    +0.000 C 
ENDROOT
BRANCH   1   2
ATOM      2  C   UNL     1       3.400   4.050  17.076  0.00  0.00    +0.000 C 
BRANCH   2  11
ATOM      3  N   UNL     1       5.451   1.290  21.223  0.00  0.00    +0.000 N 
ATOM      4  C   UNL     1       4.281   1.938  20.861  0.00  0.00    +0.000 A 
ATOM      5  N   UNL     1       3.321   1.977  21.799  0.00  0.00    +0.000 NA
ATOM      6  C   UNL     1       2.127   2.538  21.493  0.00  0.00    +0.000 A 
ATOM      7  N   UNL     1       1.156   2.604  22.485  0.00  0.00    +0.000 N 
ATOM      8  C   UNL     1       1.928   3.017  20.191  0.00  0.00    +0.000 A 
ATOM      9  N   UNL     1       0.819   3.531  19.551  0.00  0.00    +0.000 NA
ATOM     10  C   UNL     1       1.250   3.833  18.345  0.00  0.00    +0.000 A 
ATOM     11  N   UNL     1       2.598   3.617  18.206  0.00  0.00    +0.000 N 
ATOM     12  C   UNL     1       3.026   2.991  19.349  0.00  0.00    +0.000 A 
ATOM     13  N   UNL     1       4.247   2.493  19.634  0.00  0.00    +0.000 NA
ATOM     14  H   UNL     1       5.517   1.247  22.229  0.00  0.00    +0.000 HD
ATOM     15  H   UNL     1       6.241   1.640  20.705  0.00  0.00    +0.000 HD
ATOM     16  H   UNL     1       1.299   1.924  23.218  0.00  0.00    +0.000 HD
ATOM     17  H   UNL     1       0.216   2.734  22.126  0.00  0.00    +0.000 HD
ENDBRANCH   2  11
ENDBRANCH   1   2
BRANCH   1  18
ATOM     18  C   UNL     1       3.576   6.137  18.478  0.00  0.00    +0.000 C 
BRANCH  18  19
ATOM     19  O   UNL     1       2.950   7.410  18.502  0.00  0.00    +0.000 OA
ATOM     20  H   UNL     1       3.642   8.083  18.616  0.00  0.00    +0.000 HD
ENDBRANCH  18  19
ENDBRANCH   1  18
BRANCH   1  21
ATOM     21  C   UNL     1       4.979   5.991  16.360  0.00  0.00    +0.000 C 
BRANCH  21  22
ATOM     22  C   UNL     1       6.035   4.873  16.242  0.00  0.00    +0.000 C 
BRANCH  22  23
ATOM     23  C   UNL     1       6.517   4.656  14.814  0.00  0.00    +0.000 A 
ATOM     24  C   UNL     1       7.580   5.368  14.243  0.00  0.00    +0.000 A 
ATOM     25  C   UNL     1       7.891   5.207  12.886  0.00  0.00    +0.000 A 
ATOM     26  C   UNL     1       7.157   4.326  12.093  0.00  0.00    +0.000 A 
ATOM     27  C   UNL     1       6.132   3.578  12.658  0.00  0.00    +0.000 A 
ATOM     28  C   UNL     1       5.822   3.734  14.009  0.00  0.00    +0.000 A 
ENDBRANCH  22  23
BRANCH  22  29
ATOM     29  P   UNL     1       7.229   4.859  17.588  0.00  0.00    +0.000 P 
ATOM     30  O   UNL     1       8.479   4.079  17.337  0.00  0.00    +0.000 OA
BRANCH  29  31
ATOM     31  O   UNL     1       7.594   6.404  17.808  0.00  0.00    +0.000 OA
ATOM     32  H   UNL     1       8.194   6.737  17.114  0.00  0.00    +0.000 HD
ENDBRANCH  29  31
BRANCH  29  33
ATOM     33  O   UNL     1       6.567   4.454  18.987  0.00  0.00    +0.000 OA
ATOM     34  H   UNL     1       6.576   3.487  19.128  0.00  0.00    +0.000 HD
ENDBRANCH  29  33
ENDBRANCH  22  29
ENDBRANCH  21  22
ENDBRANCH   1  21
TORSDOF 10
ENDMDL
MODEL 2
REMARK VINA RESULT:      -7.7      4.051      5.781
REMARK  Name = 
REMARK  10 active torsions:
REMARK  status: ('A' for Active; 'I' for Inactive)
REMARK    1  A    between atoms: N_9  and  C_10
REMARK    2  A    between atoms: C_10  and  C_11
REMARK    3  A    between atoms: C_11  and  C_12
REMARK    4  A    between atoms: C_11  and  C_14
REMARK    5  A    between atoms: C_12  and  O_13
REMARK    6  A    between atoms: C_14  and  C_15
REMARK    7  A    between atoms: C_15  and  C_16
REMARK    8  A    between atoms: C_15  and  P_22
REMARK    9  A    between atoms: P_22  and  O_24
REMARK   10  A    between atoms: P_22  and  O_25
REMARK                            x       y       z     vdW  Elec       q    Type
REMARK                         _______ _______ _______ _____ _____    ______ ____
ROOT
ATOM      1  C   UNL     1       2.454   4.849  19.585  0.00  0.00    +0.000 C 
ENDROOT
BRANCH   1   2
ATOM      2  C   UNL     1       3.120   6.220  19.866  0.00  0.00    +0.000 C 
BRANCH   2  11
ATOM      3  N   UNL     1      -0.397   9.424  22.393  0.00  0.00    +0.000 N 
ATOM      4  C   UNL     1       0.294   9.352  21.194  0.00  0.00    +0.000 A 
ATOM      5  N   UNL     1       0.126  10.392  20.360  0.00  0.00    +0.000 NA
ATOM      6  C   UNL     1       0.719  10.359  19.143  0.00  0.00    +0.000 A 
ATOM      7  N   UNL     1       0.566  11.457  18.306  0.00  0.00    +0.000 N 
ATOM      8  C   UNL     1       1.450   9.218  18.787  0.00  0.00    +0.000 A 
ATOM      9  N   UNL     1       2.067   8.842  17.612  0.00  0.00    +0.000 NA
ATOM     10  C   UNL     1       2.615   7.678  17.890  0.00  0.00    +0.000 A 
ATOM     11  N   UNL     1       2.453   7.330  19.208  0.00  0.00    +0.000 N 
ATOM     12  C   UNL     1       1.614   8.257  19.770  0.00  0.00    +0.000 A 
ATOM     13  N   UNL     1       1.087   8.279  21.012  0.00  0.00    +0.000 NA
ATOM     14  H   UNL     1      -0.642  10.384  22.585  0.00  0.00    +0.000 HD
ATOM     15  H   UNL     1       0.064   8.894  23.115  0.00  0.00    +0.000 HD
ATOM     16  H   UNL     1      -0.248  12.012  18.532  0.00  0.00    +0.000 HD
ATOM     17  H   UNL     1       0.752  11.254  17.329  0.00  0.00    +0.000 HD
ENDBRANCH   2  11
ENDBRANCH   1   2
BRANCH   1  18
ATOM     18  C   UNL     1       1.026   4.849  20.164  0.00  0.00    +0.000 C 
BRANCH  18  19
ATOM     19  O   UNL     1       0.573   3.524  20.397  0.00  0.00    +0.000 OA
ATOM     20  H   UNL     1       1.354   2.954  20.498  0.00  0.00    +0.000 HD
ENDBRANCH  18  19
ENDBRANCH   1  18
BRANCH   1  21
ATOM     21  C   UNL     1       2.427   4.464  18.075  0.00  0.00    +0.000 C 
BRANCH  21  22
ATOM     22  C   UNL     1       3.443   3.385  17.645  0.00  0.00    +0.000 C 
BRANCH  22  23
ATOM     23  C   UNL     1       4.745   3.969  17.116  0.00  0.00    +0.000 A 
ATOM     24  C   UNL     1       5.017   4.134  15.751  0.00  0.00    +0.000 A 
ATOM     25  C   UNL     1       6.284   4.562  15.330  0.00  0.00    +0.000 A 
ATOM     26  C   UNL     1       7.282   4.842  16.263  0.00  0.00    +0.000 A 
ATOM     27  C   UNL     1       7.009   4.730  17.620  0.00  0.00    +0.000 A 
ATOM     28  C   UNL     1       5.749   4.307  18.042  0.00  0.00    +0.000 A 
ENDBRANCH  22  23
BRANCH  22  29
ATOM     29  P   UNL     1       3.495   1.962  18.744  0.00  0.00    +0.000 P 
ATOM     30  O   UNL     1       3.970   2.235  20.134  0.00  0.00    +0.000 OA
BRANCH  29  31
ATOM     31  O   UNL     1       1.980   1.439  18.786  0.00  0.00    +0.000 OA
ATOM     32  H   UNL     1       1.934   0.465  18.829  0.00  0.00    +0.000 HD
ENDBRANCH  29  31
BRANCH  29  33
ATOM     33  O   UNL     1       4.274   0.722  18.101  0.00  0.00    +0.000 OA
ATOM     34  H   UNL     1       3.905   0.471  17.231  0.00  0.00    +0.000 HD
ENDBRANCH  29  33
ENDBRANCH  22  29
ENDBRANCH  21  22
ENDBRANCH   1  21
TORSDOF 10
ENDMDL
MODEL 3
REMARK VINA RESULT:      -7.5      3.913      6.562
REMARK  Name = 
REMARK  10 active torsions:
REMARK  status: ('A' for Active; 'I' for Inactive)
REMARK    1  A    between atoms: N_9  and  C_10
REMARK    2  A    between atoms: C_10  and  C_11
REMARK    3  A    between atoms: C_11  and  C_12
REMARK    4  A    between atoms: C_11  and  C_14
REMARK    5  A    between atoms: C_12  and  O_13
REMARK    6  A    between atoms: C_14  and  C_15
REMARK    7  A    between atoms: C_15  and  C_16
REMARK    8  A    between atoms: C_15  and  P_22
REMARK    9  A    between atoms: P_22  and  O_24
REMARK   10  A    between atoms: P_22  and  O_25
REMARK                            x       y       z     vdW  Elec       q    Type
REMARK                         _______ _______ _______ _____ _____    ______ ____
ROOT
ATOM      1  C   UNL     1       4.122   3.021  17.609  0.00  0.00    +0.000 C 
ENDROOT
BRANCH   1   2
ATOM      2  C   UNL     1       5.171   3.469  16.560  0.00  0.00    +0.000 C 
BRANCH   2  11
ATOM      3  N   UNL     1       8.535   5.242  20.376  0.00  0.00    +0.000 N 
ATOM      4  C   UNL     1       7.911   5.694  19.224  0.00  0.00    +0.000 A 
ATOM      5  N   UNL     1       8.226   6.943  18.843  0.00  0.00    +0.000 NA
ATOM      6  C   UNL     1       7.605   7.475  17.763  0.00  0.00    +0.000 A 
ATOM      7  N   UNL     1       7.968   8.754  17.359  0.00  0.00    +0.000 N 
ATOM      8  C   UNL     1       6.626   6.712  17.112  0.00  0.00    +0.000 A 
ATOM      9  N   UNL     1       5.761   7.002  16.078  0.00  0.00    +0.000 NA
ATOM     10  C   UNL     1       5.097   5.883  15.886  0.00  0.00    +0.000 A 
ATOM     11  N   UNL     1       5.551   4.865  16.687  0.00  0.00    +0.000 N 
ATOM     12  C   UNL     1       6.460   5.412  17.556  0.00  0.00    +0.000 A 
ATOM     13  N   UNL     1       7.098   4.827  18.591  0.00  0.00    +0.000 NA
ATOM     14  H   UNL     1       9.364   5.790  20.550  0.00  0.00    +0.000 HD
ATOM     15  H   UNL     1       8.615   4.237  20.380  0.00  0.00    +0.000 HD
ATOM     16  H   UNL     1       8.390   9.294  18.100  0.00  0.00    +0.000 HD
ATOM     17  H   UNL     1       7.276   9.206  16.769  0.00  0.00    +0.000 HD
ENDBRANCH   2  11
ENDBRANCH   1   2
BRANCH   1  18
ATOM     18  C   UNL     1       4.805   2.875  18.982  0.00  0.00    +0.000 C 
BRANCH  18  19
ATOM     19  O   UNL     1       4.726   1.537  19.449  0.00  0.00    +0.000 OA
ATOM     20  H   UNL     1       3.983   1.105  18.996  0.00  0.00    +0.000 HD
ENDBRANCH  18  19
ENDBRANCH   1  18
BRANCH   1  21
ATOM     21  C   UNL     1       2.894   3.974  17.713  0.00  0.00    +0.000 C 
BRANCH  21  22
ATOM     22  C   UNL     1       2.578   4.502  19.129  0.00  0.00    +0.000 C 
BRANCH  22  23
ATOM     23  C   UNL     1       2.244   5.987  19.152  0.00  0.00    +0.000 A 
ATOM     24  C   UNL     1       2.355   6.818  18.029  0.00  0.00    +0.000 A 
ATOM     25  C   UNL     1       2.150   8.199  18.151  0.00  0.00    +0.000 A 
ATOM     26  C   UNL     1       1.819   8.759  19.384  0.00  0.00    +0.000 A 
ATOM     27  C   UNL     1       1.658   7.939  20.494  0.00  0.00    +0.000 A 
ATOM     28  C   UNL     1       1.858   6.565  20.376  0.00  0.00    +0.000 A 
ENDBRANCH  22  23
BRANCH  22  29
ATOM     29  P   UNL     1       1.605   3.362  20.124  0.00  0.00    +0.000 P 
ATOM     30  O   UNL     1       1.665   1.927  19.710  0.00  0.00    +0.000 OA
BRANCH  29  31
ATOM     31  O   UNL     1       2.201   3.521  21.603  0.00  0.00    +0.000 OA
ATOM     32  H   UNL     1       2.078   4.425  21.949  0.00  0.00    +0.000 HD
ENDBRANCH  29  31
BRANCH  29  33
ATOM     33  O   UNL     1       0.091   3.847  20.304  0.00  0.00    +0.000 OA
ATOM     34  H   UNL     1      -0.527   3.325  19.756  0.00  0.00    +0.000 HD
ENDBRANCH  29  33
ENDBRANCH  22  29
ENDBRANCH  21  22
ENDBRANCH   1  21
TORSDOF 10
ENDMDL
MODEL 4
REMARK VINA RESULT:      -7.5      3.889      6.569
REMARK  Name = 
REMARK  10 active torsions:
REMARK  status: ('A' for Active; 'I' for Inactive)
REMARK    1  A    between atoms: N_9  and  C_10
REMARK    2  A    between atoms: C_10  and  C_11
REMARK    3  A    between atoms: C_11  and  C_12
REMARK    4  A    between atoms: C_11  and  C_14
REMARK    5  A    between atoms: C_12  and  O_13
REMARK    6  A    between atoms: C_14  and  C_15
REMARK    7  A    between atoms: C_15  and  C_16
REMARK    8  A    between atoms: C_15  and  P_22
REMARK    9  A    between atoms: P_22  and  O_24
REMARK   10  A    between atoms: P_22  and  O_25
REMARK                            x       y       z     vdW  Elec       q    Type
REMARK                         _______ _______ _______ _____ _____    ______ ____
ROOT
ATOM      1  C   UNL     1       4.113   3.007  17.790  0.00  0.00    +0.000 C 
ENDROOT
BRANCH   1   2
ATOM      2  C   UNL     1       5.089   3.433  16.663  0.00  0.00    +0.000 C 
BRANCH   2  11
ATOM      3  N   UNL     1       8.499   5.260  20.412  0.00  0.00    +0.000 N 
ATOM      4  C   UNL     1       7.878   5.689  19.250  0.00  0.00    +0.000 A 
ATOM      5  N   UNL     1       8.211   6.921  18.832  0.00  0.00    +0.000 NA
ATOM      6  C   UNL     1       7.593   7.432  17.740  0.00  0.00    +0.000 A 
ATOM      7  N   UNL     1       7.974   8.693  17.297  0.00  0.00    +0.000 N 
ATOM      8  C   UNL     1       6.599   6.667  17.116  0.00  0.00    +0.000 A 
ATOM      9  N   UNL     1       5.734   6.940  16.077  0.00  0.00    +0.000 NA
ATOM     10  C   UNL     1       5.051   5.827  15.920  0.00  0.00    +0.000 A 
ATOM     11  N   UNL     1       5.492   4.826  16.748  0.00  0.00    +0.000 N 
ATOM     12  C   UNL     1       6.414   5.383  17.598  0.00  0.00    +0.000 A 
ATOM     13  N   UNL     1       7.047   4.818  18.646  0.00  0.00    +0.000 NA
ATOM     14  H   UNL     1       9.338   5.799  20.566  0.00  0.00    +0.000 HD
ATOM     15  H   UNL     1       8.563   4.255  20.445  0.00  0.00    +0.000 HD
ATOM     16  H   UNL     1       8.409   9.247  18.021  0.00  0.00    +0.000 HD
ATOM     17  H   UNL     1       7.287   9.139  16.698  0.00  0.00    +0.000 HD
ENDBRANCH   2  11
ENDBRANCH   1   2
BRANCH   1  18
ATOM     18  C   UNL     1       4.877   2.935  19.125  0.00  0.00    +0.000 C 
BRANCH  18  19
ATOM     19  O   UNL     1       4.892   1.608  19.631  0.00  0.00    +0.000 OA
ATOM     20  H   UNL     1       5.735   1.200  19.375  0.00  0.00    +0.000 HD
ENDBRANCH  18  19
ENDBRANCH   1  18
BRANCH   1  21
ATOM     21  C   UNL     1       2.870   3.937  17.925  0.00  0.00    +0.000 C 
BRANCH  21  22
ATOM     22  C   UNL     1       2.627   4.523  19.331  0.00  0.00    +0.000 C 
BRANCH  22  23
ATOM     23  C   UNL     1       2.396   6.028  19.319  0.00  0.00    +0.000 A 
ATOM     24  C   UNL     1       1.970   6.751  20.441  0.00  0.00    +0.000 A 
ATOM     25  C   UNL     1       1.657   8.113  20.327  0.00  0.00    +0.000 A 
ATOM     26  C   UNL     1       1.781   8.766  19.101  0.00  0.00    +0.000 A 
ATOM     27  C   UNL     1       2.250   8.072  17.993  0.00  0.00    +0.000 A 
ATOM     28  C   UNL     1       2.564   6.718  18.104  0.00  0.00    +0.000 A 
ENDBRANCH  22  23
BRANCH  22  29
ATOM     29  P   UNL     1       1.604   3.481  20.383  0.00  0.00    +0.000 P 
ATOM     30  O   UNL     1       0.139   3.776  20.357  0.00  0.00    +0.000 OA
BRANCH  29  31
ATOM     31  O   UNL     1       1.864   1.996  19.840  0.00  0.00    +0.000 OA
ATOM     32  H   UNL     1       2.372   1.461  20.479  0.00  0.00    +0.000 HD
ENDBRANCH  29  31
BRANCH  29  33
ATOM     33  O   UNL     1       2.151   3.405  21.884  0.00  0.00    +0.000 OA
ATOM     34  H   UNL     1       2.767   4.137  22.086  0.00  0.00    +0.000 HD
ENDBRANCH  29  33
ENDBRANCH  22  29
ENDBRANCH  21  22
ENDBRANCH   1  21
TORSDOF 10
ENDMDL
MODEL 5
REMARK VINA RESULT:      -7.3      3.976      6.518
REMARK  Name = 
REMARK  10 active torsions:
REMARK  status: ('A' for Active; 'I' for Inactive)
REMARK    1  A    between atoms: N_9  and  C_10
REMARK    2  A    between atoms: C_10  and  C_11
REMARK    3  A    between atoms: C_11  and  C_12
REMARK    4  A    between atoms: C_11  and  C_14
REMARK    5  A    between atoms: C_12  and  O_13
REMARK    6  A    between atoms: C_14  and  C_15
REMARK    7  A    between atoms: C_15  and  C_16
REMARK    8  A    between atoms: C_15  and  P_22
REMARK    9  A    between atoms: P_22  and  O_24
REMARK   10  A    between atoms: P_22  and  O_25
REMARK                            x       y       z     vdW  Elec       q    Type
REMARK                         _______ _______ _______ _____ _____    ______ ____
ROOT
ATOM      1  C   UNL     1       2.872   3.422  17.152  0.00  0.00    +0.000 C 
ENDROOT
BRANCH   1   2
ATOM      2  C   UNL     1       4.350   3.487  17.614  0.00  0.00    +0.000 C 
BRANCH   2  11
ATOM      3  N   UNL     1       8.353   5.365  20.691  0.00  0.00    +0.000 N 
ATOM      4  C   UNL     1       7.689   5.677  19.515  0.00  0.00    +0.000 A 
ATOM      5  N   UNL     1       8.158   6.742  18.845  0.00  0.00    +0.000 NA
ATOM      6  C   UNL     1       7.517   7.144  17.722  0.00  0.00    +0.000 A 
ATOM      7  N   UNL     1       8.035   8.225  17.019  0.00  0.00    +0.000 N 
ATOM      8  C   UNL     1       6.362   6.455  17.328  0.00  0.00    +0.000 A 
ATOM      9  N   UNL     1       5.448   6.677  16.320  0.00  0.00    +0.000 NA
ATOM     10  C   UNL     1       4.594   5.682  16.428  0.00  0.00    +0.000 A 
ATOM     11  N   UNL     1       4.963   4.786  17.401  0.00  0.00    +0.000 N 
ATOM     12  C   UNL     1       6.037   5.326  18.060  0.00  0.00    +0.000 A 
ATOM     13  N   UNL     1       6.681   4.861  19.150  0.00  0.00    +0.000 NA
ATOM     14  H   UNL     1       9.273   5.778  20.679  0.00  0.00    +0.000 HD
ATOM     15  H   UNL     1       8.269   4.386  20.912  0.00  0.00    +0.000 HD
ATOM     16  H   UNL     1       8.618   8.820  17.590  0.00  0.00    +0.000 HD
ATOM     17  H   UNL     1       7.366   8.664  16.395  0.00  0.00    +0.000 HD
ENDBRANCH   2  11
ENDBRANCH   1   2
BRANCH   1  18
ATOM     18  C   UNL     1       2.337   1.992  17.353  0.00  0.00    +0.000 C 
BRANCH  18  19
ATOM     19  O   UNL     1       3.242   1.216  18.124  0.00  0.00    +0.000 OA
ATOM     20  H   UNL     1       3.808   1.825  18.625  0.00  0.00    +0.000 HD
ENDBRANCH  18  19
ENDBRANCH   1  18
BRANCH   1  21
ATOM     21  C   UNL     1       1.947   4.452  17.868  0.00  0.00    +0.000 C 
BRANCH  21  22
ATOM     22  C   UNL     1       2.463   4.982  19.222  0.00  0.00    +0.000 C 
BRANCH  22  23
ATOM     23  C   UNL     1       2.170   6.461  19.436  0.00  0.00    +0.000 A 
ATOM     24  C   UNL     1       1.661   6.979  20.634  0.00  0.00    +0.000 A 
ATOM     25  C   UNL     1       1.297   8.330  20.721  0.00  0.00    +0.000 A 
ATOM     26  C   UNL     1       1.452   9.176  19.623  0.00  0.00    +0.000 A 
ATOM     27  C   UNL     1       2.001   8.685  18.445  0.00  0.00    +0.000 A 
ATOM     28  C   UNL     1       2.366   7.342  18.357  0.00  0.00    +0.000 A 
ENDBRANCH  22  23
BRANCH  22  29
ATOM     29  P   UNL     1       2.233   3.830  20.585  0.00  0.00    +0.000 P 
ATOM     30  O   UNL     1       3.131   2.635  20.581  0.00  0.00    +0.000 OA
BRANCH  29  31
ATOM     31  O   UNL     1       2.511   4.708  21.896  0.00  0.00    +0.000 OA
ATOM     32  H   UNL     1       1.933   5.493  21.935  0.00  0.00    +0.000 HD
ENDBRANCH  29  31
BRANCH  29  33
ATOM     33  O   UNL     1       0.703   3.401  20.769  0.00  0.00    +0.000 OA
ATOM     34  H   UNL     1       0.258   3.927  21.463  0.00  0.00    +0.000 HD
ENDBRANCH  29  33
ENDBRANCH  22  29
ENDBRANCH  21  22
ENDBRANCH   1  21
TORSDOF 10
ENDMDL
MODEL 6
REMARK VINA RESULT:      -7.2      3.730      5.070
REMARK  Name = 
REMARK  10 active torsions:
REMARK  status: ('A' for Active; 'I' for Inactive)
REMARK    1  A    between atoms: N_9  and  C_10
REMARK    2  A    between atoms: C_10  and  C_11
REMARK    3  A    between atoms: C_11  and  C_12
REMARK    4  A    between atoms: C_11  and  C_14
REMARK    5  A    between atoms: C_12  and  O_13
REMARK    6  A    between atoms: C_14  and  C_15
REMARK    7  A    between atoms: C_15  and  C_16
REMARK    8  A    between atoms: C_15  and  P_22
REMARK    9  A    between atoms: P_22  and  O_24
REMARK   10  A    between atoms: P_22  and  O_25
REMARK                            x       y       z     vdW  Elec       q    Type
REMARK                         _______ _______ _______ _____ _____    ______ ____
ROOT
ATOM      1  C   UNL     1       3.803   6.149  17.742  0.00  0.00    +0.000 C 
ENDROOT
BRANCH   1   2
ATOM      2  C   UNL     1       2.688   7.215  17.586  0.00  0.00    +0.000 C 
BRANCH   2  11
ATOM      3  N   UNL     1       0.932  12.271  18.196  0.00  0.00    +0.000 N 
ATOM      4  C   UNL     1       0.973  11.075  18.895  0.00  0.00    +0.000 A 
ATOM      5  N   UNL     1       0.366  11.080  20.093  0.00  0.00    +0.000 NA
ATOM      6  C   UNL     1       0.423   9.965  20.860  0.00  0.00    +0.000 A 
ATOM      7  N   UNL     1      -0.241   9.971  22.081  0.00  0.00    +0.000 N 
ATOM      8  C   UNL     1       1.152   8.865  20.389  0.00  0.00    +0.000 A 
ATOM      9  N   UNL     1       1.481   7.656  20.964  0.00  0.00    +0.000 NA
ATOM     10  C   UNL     1       2.158   7.024  20.029  0.00  0.00    +0.000 A 
ATOM     11  N   UNL     1       2.206   7.733  18.854  0.00  0.00    +0.000 N 
ATOM     12  C   UNL     1       1.657   8.965  19.104  0.00  0.00    +0.000 A 
ATOM     13  N   UNL     1       1.574  10.035  18.287  0.00  0.00    +0.000 NA
ATOM     14  H   UNL     1       0.176  12.841  18.544  0.00  0.00    +0.000 HD
ATOM     15  H   UNL     1       0.997  12.118  17.202  0.00  0.00    +0.000 HD
ATOM     16  H   UNL     1      -0.400  10.904  22.436  0.00  0.00    +0.000 HD
ATOM     17  H   UNL     1       0.088   9.261  22.727  0.00  0.00    +0.000 HD
ENDBRANCH   2  11
ENDBRANCH   1   2
BRANCH   1  18
ATOM     18  C   UNL     1       3.178   4.743  17.666  0.00  0.00    +0.000 C 
BRANCH  18  19
ATOM     19  O   UNL     1       3.472   3.993  18.834  0.00  0.00    +0.000 OA
ATOM     20  H   UNL     1       3.466   4.602  19.591  0.00  0.00    +0.000 HD
ENDBRANCH  18  19
ENDBRANCH   1  18
BRANCH   1  21
ATOM     21  C   UNL     1       4.953   6.289  16.700  0.00  0.00    +0.000 C 
BRANCH  21  22
ATOM     22  C   UNL     1       5.927   5.095  16.619  0.00  0.00    +0.000 C 
BRANCH  22  23
ATOM     23  C   UNL     1       6.332   4.751  15.192  0.00  0.00    +0.000 A 
ATOM     24  C   UNL     1       7.441   5.315  14.549  0.00  0.00    +0.000 A 
ATOM     25  C   UNL     1       7.684   5.048  13.195  0.00  0.00    +0.000 A 
ATOM     26  C   UNL     1       6.835   4.206  12.477  0.00  0.00    +0.000 A 
ATOM     27  C   UNL     1       5.760   3.602  13.116  0.00  0.00    +0.000 A 
ATOM     28  C   UNL     1       5.517   3.864  14.464  0.00  0.00    +0.000 A 
ENDBRANCH  22  23
BRANCH  22  29
ATOM     29  P   UNL     1       7.174   5.090  17.916  0.00  0.00    +0.000 P 
ATOM     30  O   UNL     1       7.768   6.421  18.248  0.00  0.00    +0.000 OA
BRANCH  29  31
ATOM     31  O   UNL     1       6.409   4.507  19.198  0.00  0.00    +0.000 OA
ATOM     32  H   UNL     1       5.992   3.645  19.010  0.00  0.00    +0.000 HD
ENDBRANCH  29  31
BRANCH  29  33
ATOM     33  O   UNL     1       8.314   3.997  17.663  0.00  0.00    +0.000 OA
ATOM     34  H   UNL     1       8.242   3.244  18.284  0.00  0.00    +0.000 HD
ENDBRANCH  29  33
ENDBRANCH  22  29
ENDBRANCH  21  22
ENDBRANCH   1  21
TORSDOF 10
ENDMDL
MODEL 7
REMARK VINA RESULT:      -7.1      1.304      2.025
REMARK  Name = 
REMARK  10 active torsions:
REMARK  status: ('A' for Active; 'I' for Inactive)
REMARK    1  A    between atoms: N_9  and  C_10
REMARK    2  A    between atoms: C_10  and  C_11
REMARK    3  A    between atoms: C_11  and  C_12
REMARK    4  A    between atoms: C_11  and  C_14
REMARK    5  A    between atoms: C_12  and  O_13
REMARK    6  A    between atoms: C_14  and  C_15
REMARK    7  A    between atoms: C_15  and  C_16
REMARK    8  A    between atoms: C_15  and  P_22
REMARK    9  A    between atoms: P_22  and  O_24
REMARK   10  A    between atoms: P_22  and  O_25
REMARK                            x       y       z     vdW  Elec       q    Type
REMARK                         _______ _______ _______ _____ _____    ______ ____
ROOT
ATOM      1  C   UNL     1       3.857   6.540  17.287  0.00  0.00    +0.000 C 
ENDROOT
BRANCH   1   2
ATOM      2  C   UNL     1       4.109   6.505  18.816  0.00  0.00    +0.000 C 
BRANCH   2  11
ATOM      3  N   UNL     1       3.711   1.146  18.442  0.00  0.00    +0.000 N 
ATOM      4  C   UNL     1       3.207   2.192  19.197  0.00  0.00    +0.000 A 
ATOM      5  N   UNL     1       2.389   1.843  20.204  0.00  0.00    +0.000 NA
ATOM      6  C   UNL     1       1.808   2.817  20.943  0.00  0.00    +0.000 A 
ATOM      7  N   UNL     1       0.993   2.442  22.005  0.00  0.00    +0.000 N 
ATOM      8  C   UNL     1       2.051   4.154  20.598  0.00  0.00    +0.000 A 
ATOM      9  N   UNL     1       1.538   5.342  21.074  0.00  0.00    +0.000 NA
ATOM     10  C   UNL     1       2.165   6.268  20.380  0.00  0.00    +0.000 A 
ATOM     11  N   UNL     1       3.115   5.737  19.544  0.00  0.00    +0.000 N 
ATOM     12  C   UNL     1       2.978   4.373  19.594  0.00  0.00    +0.000 A 
ATOM     13  N   UNL     1       3.620   3.432  18.872  0.00  0.00    +0.000 NA
ATOM     14  H   UNL     1       3.651   0.288  18.969  0.00  0.00    +0.000 HD
ATOM     15  H   UNL     1       4.593   1.388  18.020  0.00  0.00    +0.000 HD
ATOM     16  H   UNL     1       0.632   1.503  21.908  0.00  0.00    +0.000 HD
ATOM     17  H   UNL     1       0.357   3.172  22.309  0.00  0.00    +0.000 HD
ENDBRANCH   2  11
ENDBRANCH   1   2
BRANCH   1  18
ATOM     18  C   UNL     1       2.970   7.752  16.945  0.00  0.00    +0.000 C 
BRANCH  18  19
ATOM     19  O   UNL     1       2.930   8.673  18.024  0.00  0.00    +0.000 OA
ATOM     20  H   UNL     1       3.551   8.365  18.704  0.00  0.00    +0.000 HD
ENDBRANCH  18  19
ENDBRANCH   1  18
BRANCH   1  21
ATOM     21  C   UNL     1       5.164   6.568  16.438  0.00  0.00    +0.000 C 
BRANCH  21  22
ATOM     22  C   UNL     1       5.895   5.216  16.298  0.00  0.00    +0.000 C 
BRANCH  22  23
ATOM     23  C   UNL     1       6.206   4.853  14.853  0.00  0.00    +0.000 A 
ATOM     24  C   UNL     1       5.463   3.921  14.116  0.00  0.00    +0.000 A 
ATOM     25  C   UNL     1       5.878   3.543  12.832  0.00  0.00    +0.000 A 
ATOM     26  C   UNL     1       7.026   4.099  12.268  0.00  0.00    +0.000 A 
ATOM     27  C   UNL     1       7.744   5.060  12.969  0.00  0.00    +0.000 A 
ATOM     28  C   UNL     1       7.331   5.440  14.245  0.00  0.00    +0.000 A 
ENDBRANCH  22  23
BRANCH  22  29
ATOM     29  P   UNL     1       7.139   4.932  17.567  0.00  0.00    +0.000 P 
ATOM     30  O   UNL     1       7.663   6.157  18.245  0.00  0.00    +0.000 OA
BRANCH  29  31
ATOM     31  O   UNL     1       6.402   3.997  18.640  0.00  0.00    +0.000 OA
ATOM     32  H   UNL     1       5.847   3.319  18.209  0.00  0.00    +0.000 HD
ENDBRANCH  29  31
BRANCH  29  33
ATOM     33  O   UNL     1       8.334   4.001  17.054  0.00  0.00    +0.000 OA
ATOM     34  H   UNL     1       9.205   4.326  17.357  0.00  0.00    +0.000 HD
ENDBRANCH  29  33
ENDBRANCH  22  29
ENDBRANCH  21  22
ENDBRANCH   1  21
TORSDOF 10
ENDMDL
MODEL 8
REMARK VINA RESULT:      -7.1      0.506      1.363
REMARK  Name = 
REMARK  10 active torsions:
REMARK  status: ('A' for Active; 'I' for Inactive)
REMARK    1  A    between atoms: N_9  and  C_10
REMARK    2  A    between atoms: C_10  and  C_11
REMARK    3  A    between atoms: C_11  and  C_12
REMARK    4  A    between atoms: C_11  and  C_14
REMARK    5  A    between atoms: C_12  and  O_13
REMARK    6  A    between atoms: C_14  and  C_15
REMARK    7  A    between atoms: C_15  and  C_16
REMARK    8  A    between atoms: C_15  and  P_22
REMARK    9  A    between atoms: P_22  and  O_24
REMARK   10  A    between atoms: P_22  and  O_25
REMARK                            x       y       z     vdW  Elec       q    Type
REMARK                         _______ _______ _______ _____ _____    ______ ____
ROOT
ATOM      1  C   UNL     1       3.437   5.654  17.165  0.00  0.00    +0.000 C 
ENDROOT
BRANCH   1   2
ATOM      2  C   UNL     1       3.238   4.117  17.136  0.00  0.00    +0.000 C 
BRANCH   2  11
ATOM      3  N   UNL     1       5.399   1.418  21.266  0.00  0.00    +0.000 N 
ATOM      4  C   UNL     1       4.197   2.001  20.899  0.00  0.00    +0.000 A 
ATOM      5  N   UNL     1       3.225   1.967  21.825  0.00  0.00    +0.000 NA
ATOM      6  C   UNL     1       2.003   2.460  21.511  0.00  0.00    +0.000 A 
ATOM      7  N   UNL     1       1.018   2.452  22.491  0.00  0.00    +0.000 N 
ATOM      8  C   UNL     1       1.792   2.947  20.214  0.00  0.00    +0.000 A 
ATOM      9  N   UNL     1       0.662   3.405  19.568  0.00  0.00    +0.000 NA
ATOM     10  C   UNL     1       1.089   3.751  18.372  0.00  0.00    +0.000 A 
ATOM     11  N   UNL     1       2.449   3.619  18.248  0.00  0.00    +0.000 N 
ATOM     12  C   UNL     1       2.900   3.001  19.387  0.00  0.00    +0.000 A 
ATOM     13  N   UNL     1       4.145   2.573  19.680  0.00  0.00    +0.000 NA
ATOM     14  H   UNL     1       5.455   1.364  22.272  0.00  0.00    +0.000 HD
ATOM     15  H   UNL     1       6.173   1.824  20.765  0.00  0.00    +0.000 HD
ATOM     16  H   UNL     1       1.192   1.769  23.215  0.00  0.00    +0.000 HD
ATOM     17  H   UNL     1       0.076   2.531  22.122  0.00  0.00    +0.000 HD
ENDBRANCH   2  11
ENDBRANCH   1   2
BRANCH   1  18
ATOM     18  C   UNL     1       3.237   6.167  18.603  0.00  0.00    +0.000 C 
BRANCH  18  19
ATOM     19  O   UNL     1       4.360   5.856  19.414  0.00  0.00    +0.000 OA
ATOM     20  H   UNL     1       4.031   5.493  20.254  0.00  0.00    +0.000 HD
ENDBRANCH  18  19
ENDBRANCH   1  18
BRANCH   1  21
ATOM     21  C   UNL     1       4.819   6.117  16.611  0.00  0.00    +0.000 C 
BRANCH  21  22
ATOM     22  C   UNL     1       5.865   5.000  16.415  0.00  0.00    +0.000 C 
BRANCH  22  23
ATOM     23  C   UNL     1       6.201   4.748  14.951  0.00  0.00    +0.000 A 
ATOM     24  C   UNL     1       5.501   3.840  14.146  0.00  0.00    +0.000 A 
ATOM     25  C   UNL     1       5.941   3.566  12.844  0.00  0.00    +0.000 A 
ATOM     26  C   UNL     1       7.070   4.204  12.330  0.00  0.00    +0.000 A 
ATOM     27  C   UNL     1       7.744   5.143  13.102  0.00  0.00    +0.000 A 
ATOM     28  C   UNL     1       7.306   5.419  14.396  0.00  0.00    +0.000 A 
ENDBRANCH  22  23
BRANCH  22  29
ATOM     29  P   UNL     1       7.189   5.026  17.633  0.00  0.00    +0.000 P 
ATOM     30  O   UNL     1       6.802   4.617  19.018  0.00  0.00    +0.000 OA
BRANCH  29  31
ATOM     31  O   UNL     1       8.279   4.003  17.055  0.00  0.00    +0.000 OA
ATOM     32  H   UNL     1       8.871   4.432  16.408  0.00  0.00    +0.000 HD
ENDBRANCH  29  31
BRANCH  29  33
ATOM     33  O   UNL     1       7.983   6.414  17.642  0.00  0.00    +0.000 OA
ATOM     34  H   UNL     1       8.303   6.657  16.751  0.00  0.00    +0.000 HD
ENDBRANCH  29  33
ENDBRANCH  22  29
ENDBRANCH  21  22
ENDBRANCH   1  21
TORSDOF 10
ENDMDL
MODEL 9
REMARK VINA RESULT:      -7.1      4.026      6.617
REMARK  Name = 
REMARK  10 active torsions:
REMARK  status: ('A' for Active; 'I' for Inactive)
REMARK    1  A    between atoms: N_9  and  C_10
REMARK    2  A    between atoms: C_10  and  C_11
REMARK    3  A    between atoms: C_11  and  C_12
REMARK    4  A    between atoms: C_11  and  C_14
REMARK    5  A    between atoms: C_12  and  O_13
REMARK    6  A    between atoms: C_14  and  C_15
REMARK    7  A    between atoms: C_15  and  C_16
REMARK    8  A    between atoms: C_15  and  P_22
REMARK    9  A    between atoms: P_22  and  O_24
REMARK   10  A    between atoms: P_22  and  O_25
REMARK                            x       y       z     vdW  Elec       q    Type
REMARK                         _______ _______ _______ _____ _____    ______ ____
ROOT
ATOM      1  C   UNL     1       3.661   3.422  17.778  0.00  0.00    +0.000 C 
ENDROOT
BRANCH   1   2
ATOM      2  C   UNL     1       4.848   3.656  16.809  0.00  0.00    +0.000 C 
BRANCH   2  11
ATOM      3  N   UNL     1       8.439   5.265  20.488  0.00  0.00    +0.000 N 
ATOM      4  C   UNL     1       7.846   5.720  19.320  0.00  0.00    +0.000 A 
ATOM      5  N   UNL     1       8.281   6.908  18.870  0.00  0.00    +0.000 NA
ATOM      6  C   UNL     1       7.700   7.445  17.771  0.00  0.00    +0.000 A 
ATOM      7  N   UNL     1       8.185   8.657  17.295  0.00  0.00    +0.000 N 
ATOM      8  C   UNL     1       6.637   6.755  17.172  0.00  0.00    +0.000 A 
ATOM      9  N   UNL     1       5.790   7.079  16.134  0.00  0.00    +0.000 NA
ATOM     10  C   UNL     1       5.011   6.026  16.008  0.00  0.00    +0.000 A 
ATOM     11  N   UNL     1       5.372   5.010  16.857  0.00  0.00    +0.000 N 
ATOM     12  C   UNL     1       6.346   5.504  17.686  0.00  0.00    +0.000 A 
ATOM     13  N   UNL     1       6.938   4.910  18.744  0.00  0.00    +0.000 NA
ATOM     14  H   UNL     1       9.323   5.733  20.623  0.00  0.00    +0.000 HD
ATOM     15  H   UNL     1       8.416   4.260  20.544  0.00  0.00    +0.000 HD
ATOM     16  H   UNL     1       8.673   9.188  18.002  0.00  0.00    +0.000 HD
ATOM     17  H   UNL     1       7.533   9.147  16.691  0.00  0.00    +0.000 HD
ENDBRANCH   2  11
ENDBRANCH   1   2
BRANCH   1  18
ATOM     18  C   UNL     1       3.051   2.033  17.509  0.00  0.00    +0.000 C 
BRANCH  18  19
ATOM     19  O   UNL     1       3.780   1.019  18.182  0.00  0.00    +0.000 OA
ATOM     20  H   UNL     1       3.298   0.792  18.994  0.00  0.00    +0.000 HD
ENDBRANCH  18  19
ENDBRANCH   1  18
BRANCH   1  21
ATOM     21  C   UNL     1       4.044   3.564  19.282  0.00  0.00    +0.000 C 
BRANCH  21  22
ATOM     22  C   UNL     1       2.948   4.152  20.195  0.00  0.00    +0.000 C 
BRANCH  22  23
ATOM     23  C   UNL     1       2.616   5.602  19.872  0.00  0.00    +0.000 A 
ATOM     24  C   UNL     1       2.091   6.499  20.812  0.00  0.00    +0.000 A 
ATOM     25  C   UNL     1       1.694   7.784  20.416  0.00  0.00    +0.000 A 
ATOM     26  C   UNL     1       1.830   8.188  19.088  0.00  0.00    +0.000 A 
ATOM     27  C   UNL     1       2.395   7.325  18.158  0.00  0.00    +0.000 A 
ATOM     28  C   UNL     1       2.794   6.048  18.549  0.00  0.00    +0.000 A 
ENDBRANCH  22  23
BRANCH  22  29
ATOM     29  P   UNL     1       1.614   3.000  20.557  0.00  0.00    +0.000 P 
ATOM     30  O   UNL     1       1.793   1.614  20.026  0.00  0.00    +0.000 OA
BRANCH  29  31
ATOM     31  O   UNL     1       1.550   2.959  22.157  0.00  0.00    +0.000 OA
ATOM     32  H   UNL     1       2.357   2.568  22.542  0.00  0.00    +0.000 HD
ENDBRANCH  29  31
BRANCH  29  33
ATOM     33  O   UNL     1       0.178   3.586  20.165  0.00  0.00    +0.000 OA
ATOM     34  H   UNL     1       0.249   4.439  19.691  0.00  0.00    +0.000 HD
ENDBRANCH  29  33
ENDBRANCH  22  29
ENDBRANCH  21  22
ENDBRANCH   1  21
TORSDOF 10
ENDMDL
