MODEL 1
REMARK VINA RESULT:      -6.7      0.000      0.000
REMARK  Name = 
REMARK  7 active torsions:
REMARK  status: ('A' for Active; 'I' for Inactive)
REMARK    1  A    between atoms: C_1  and  C_2
REMARK    2  A    between atoms: C_2  and  C_3
REMARK    3  A    between atoms: C_2  and  C_4
REMARK    4  A    between atoms: C_6  and  C_7
REMARK    5  A    between atoms: N_9  and  N_10
REMARK    6  A    between atoms: C_11  and  S_12
REMARK    7  A    between atoms: N_13  and  C_14
REMARK                            x       y       z     vdW  Elec       q    Type
REMARK                         _______ _______ _______ _____ _____    ______ ____
ROOT
ATOM      1  C   UNL     1       1.535   9.725  17.904  0.00  0.00    +0.000 C 
ATOM      2  O   UNL     1       2.476  10.477  17.670  0.00  0.00    +0.000 OA
ATOM      3  N   UNL     1       1.603   8.338  17.854  0.00  0.00    +0.000 N 
ATOM      4  H   UNL     1       0.795   7.794  18.089  0.00  0.00    +0.000 HD
ENDROOT
BRANCH   1   7
ATOM      5  C   UNL     1      -2.130  10.639  18.239  0.00  0.00    +0.000 A 
ATOM      6  C   UNL     1      -1.066   9.993  17.637  0.00  0.00    +0.000 A 
ATOM      7  C   UNL     1       0.203  10.245  18.271  0.00  0.00    +0.000 A 
ATOM      8  C   UNL     1       0.022  11.103  19.344  0.00  0.00    +0.000 A 
ATOM      9  S   UNL     1      -1.607  11.563  19.579  0.00  0.00    +0.000 S 
BRANCH   5  11
ATOM     10  C   UNL     1      -4.362  11.727  18.547  0.00  0.00    +0.000 C 
ATOM     11  C   UNL     1      -3.590  10.606  17.847  0.00  0.00    +0.000 C 
ATOM     12  C   UNL     1      -3.750  10.714  16.328  0.00  0.00    +0.000 C 
ENDBRANCH   5  11
ENDBRANCH   1   7
BRANCH   3  13
ATOM     13  N   UNL     1       2.761   7.698  17.525  0.00  0.00    +0.000 NA
ATOM     14  C   UNL     1       3.232   6.726  18.251  0.00  0.00    +0.000 C 
ATOM     15  N   UNL     1       4.393   6.059  17.959  0.00  0.00    +0.000 N 
ATOM     16  H   UNL     1       4.668   5.379  18.657  0.00  0.00    +0.000 HD
BRANCH  15  17
ATOM     17  C   UNL     1       5.484   6.661  17.203  0.00  0.00    +0.000 C 
ATOM     18  C   UNL     1       6.833   6.168  17.749  0.00  0.00    +0.000 C 
ATOM     19  C   UNL     1       7.162   4.729  17.350  0.00  0.00    +0.000 C 
ATOM     20  C   UNL     1       7.074   4.536  15.841  0.00  0.00    +0.000 C 
ATOM     21  C   UNL     1       5.696   4.924  15.319  0.00  0.00    +0.000 C 
ATOM     22  C   UNL     1       5.320   6.353  15.708  0.00  0.00    +0.000 C 
ENDBRANCH  15  17
BRANCH  14  23
ATOM     23  S   UNL     1       2.510   6.071  19.715  0.00  0.00    +0.000 S 
ATOM     24  H   UNL     1       1.214   6.188  19.447  0.00  0.00    +0.000 HD
ENDBRANCH  14  23
ENDBRANCH   3  13
TORSDOF 5
ENDMDL
MODEL 2
REMARK VINA RESULT:      -6.6      1.490      2.509
REMARK  Name = 
REMARK  7 active torsions:
REMARK  status: ('A' for Active; 'I' for Inactive)
REMARK    1  A    between atoms: C_1  and  C_2
REMARK    2  A    between atoms: C_2  and  C_3
REMARK    3  A    between atoms: C_2  and  C_4
REMARK    4  A    between atoms: C_6  and  C_7
REMARK    5  A    between atoms: N_9  and  N_10
REMARK    6  A    between atoms: C_11  and  S_12
REMARK    7  A    between atoms: N_13  and  C_14
REMARK                            x       y       z     vdW  Elec       q    Type
REMARK                         _______ _______ _______ _____ _____    ______ ____
ROOT
ATOM      1  C   UNL     1       1.709   9.956  18.256  0.00  0.00    +0.000 C 
ATOM      2  O   UNL     1       2.473  10.662  17.605  0.00  0.00    +0.000 OA
ATOM      3  N   UNL     1       1.841   8.580  18.404  0.00  0.00    +0.000 N 
ATOM      4  H   UNL     1       1.190   8.080  18.978  0.00  0.00    +0.000 HD
ENDROOT
BRANCH   1   7
ATOM      5  C   UNL     1      -0.834  11.356  20.695  0.00  0.00    +0.000 A 
ATOM      6  C   UNL     1       0.398  10.825  20.361  0.00  0.00    +0.000 A 
ATOM      7  C   UNL     1       0.543  10.523  18.961  0.00  0.00    +0.000 A 
ATOM      8  C   UNL     1      -0.630  10.842  18.295  0.00  0.00    +0.000 A 
ATOM      9  S   UNL     1      -1.835  11.492  19.317  0.00  0.00    +0.000 S 
BRANCH   5  11
ATOM     10  C   UNL     1      -1.094  10.681  23.091  0.00  0.00    +0.000 C 
ATOM     11  C   UNL     1      -1.332  11.785  22.057  0.00  0.00    +0.000 C 
ATOM     12  C   UNL     1      -0.658  13.086  22.500  0.00  0.00    +0.000 C 
ENDBRANCH   5  11
ENDBRANCH   1   7
BRANCH   3  13
ATOM     13  N   UNL     1       2.862   7.899  17.811  0.00  0.00    +0.000 NA
ATOM     14  C   UNL     1       3.249   6.736  18.247  0.00  0.00    +0.000 C 
ATOM     15  N   UNL     1       4.272   6.020  17.682  0.00  0.00    +0.000 N 
ATOM     16  H   UNL     1       4.505   5.168  18.178  0.00  0.00    +0.000 HD
BRANCH  15  17
ATOM     17  C   UNL     1       5.370   6.645  16.955  0.00  0.00    +0.000 C 
ATOM     18  C   UNL     1       6.714   6.145  17.506  0.00  0.00    +0.000 C 
ATOM     19  C   UNL     1       7.056   4.717  17.077  0.00  0.00    +0.000 C 
ATOM     20  C   UNL     1       6.987   4.561  15.563  0.00  0.00    +0.000 C 
ATOM     21  C   UNL     1       5.614   4.955  15.032  0.00  0.00    +0.000 C 
ATOM     22  C   UNL     1       5.227   6.373  15.451  0.00  0.00    +0.000 C 
ENDBRANCH  15  17
BRANCH  14  23
ATOM     23  S   UNL     1       2.568   5.850  19.605  0.00  0.00    +0.000 S 
ATOM     24  H   UNL     1       1.406   5.447  19.103  0.00  0.00    +0.000 HD
ENDBRANCH  14  23
ENDBRANCH   3  13
TORSDOF 5
ENDMDL
MODEL 3
REMARK VINA RESULT:      -6.5      3.433      4.352
REMARK  Name = 
REMARK  7 active torsions:
REMARK  status: ('A' for Active; 'I' for Inactive)
REMARK    1  A    between atoms: C_1  and  C_2
REMARK    2  A    between atoms: C_2  and  C_3
REMARK    3  A    between atoms: C_2  and  C_4
REMARK    4  A    between atoms: C_6  and  C_7
REMARK    5  A    between atoms: N_9  and  N_10
REMARK    6  A    between atoms: C_11  and  S_12
REMARK    7  A    between atoms: N_13  and  C_14
REMARK                            x       y       z     vdW  Elec       q    Type
REMARK                         _______ _______ _______ _____ _____    ______ ____
ROOT
ATOM      1  C   UNL     1       0.859   9.511  21.786  0.00  0.00    +0.000 C 
ATOM      2  O   UNL     1       1.670   9.339  22.691  0.00  0.00    +0.000 OA
ATOM      3  N   UNL     1       0.792   8.740  20.632  0.00  0.00    +0.000 N 
ATOM      4  H   UNL     1       0.080   8.926  19.953  0.00  0.00    +0.000 HD
ENDROOT
BRANCH   1   7
ATOM      5  C   UNL     1      -1.824  12.040  22.668  0.00  0.00    +0.000 A 
ATOM      6  C   UNL     1      -0.982  10.981  22.951  0.00  0.00    +0.000 A 
ATOM      7  C   UNL     1      -0.149  10.587  21.844  0.00  0.00    +0.000 A 
ATOM      8  C   UNL     1      -0.426  11.389  20.748  0.00  0.00    +0.000 A 
ATOM      9  S   UNL     1      -1.622  12.570  21.055  0.00  0.00    +0.000 S 
BRANCH   5  11
ATOM     10  C   UNL     1      -2.332  14.098  23.999  0.00  0.00    +0.000 C 
ATOM     11  C   UNL     1      -2.826  12.710  23.581  0.00  0.00    +0.000 C 
ATOM     12  C   UNL     1      -4.197  12.812  22.907  0.00  0.00    +0.000 C 
ENDBRANCH   5  11
ENDBRANCH   1   7
BRANCH   3  13
ATOM     13  N   UNL     1       1.658   7.708  20.420  0.00  0.00    +0.000 NA
ATOM     14  C   UNL     1       2.281   7.564  19.286  0.00  0.00    +0.000 C 
ATOM     15  N   UNL     1       3.156   6.540  19.031  0.00  0.00    +0.000 N 
ATOM     16  H   UNL     1       3.504   6.520  18.080  0.00  0.00    +0.000 HD
BRANCH  15  17
ATOM     17  C   UNL     1       3.081   5.248  19.701  0.00  0.00    +0.000 C 
ATOM     18  C   UNL     1       1.752   4.557  19.358  0.00  0.00    +0.000 C 
ATOM     19  C   UNL     1       1.711   3.984  17.941  0.00  0.00    +0.000 C 
ATOM     20  C   UNL     1       2.896   3.062  17.679  0.00  0.00    +0.000 C 
ATOM     21  C   UNL     1       4.216   3.785  17.916  0.00  0.00    +0.000 C 
ATOM     22  C   UNL     1       4.294   4.387  19.318  0.00  0.00    +0.000 C 
ENDBRANCH  15  17
BRANCH  14  23
ATOM     23  S   UNL     1       2.152   8.614  17.882  0.00  0.00    +0.000 S 
ATOM     24  H   UNL     1       1.324   9.552  18.327  0.00  0.00    +0.000 HD
ENDBRANCH  14  23
ENDBRANCH   3  13
TORSDOF 5
ENDMDL
MODEL 4
REMARK VINA RESULT:      -6.5      2.417      2.825
REMARK  Name = 
REMARK  7 active torsions:
REMARK  status: ('A' for Active; 'I' for Inactive)
REMARK    1  A    between atoms: C_1  and  C_2
REMARK    2  A    between atoms: C_2  and  C_3
REMARK    3  A    between atoms: C_2  and  C_4
REMARK    4  A    between atoms: C_6  and  C_7
REMARK    5  A    between atoms: N_9  and  N_10
REMARK    6  A    between atoms: C_11  and  S_12
REMARK    7  A    between atoms: N_13  and  C_14
REMARK                            x       y       z     vdW  Elec       q    Type
REMARK                         _______ _______ _______ _____ _____    ______ ____
ROOT
ATOM      1  C   UNL     1       1.327   9.048  19.138  0.00  0.00    +0.000 C 
ATOM      2  O   UNL     1       1.180   9.554  18.031  0.00  0.00    +0.000 OA
ATOM      3  N   UNL     1       2.149   7.960  19.405  0.00  0.00    +0.000 N 
ATOM      4  H   UNL     1       2.237   7.624  20.344  0.00  0.00    +0.000 HD
ENDROOT
BRANCH   1   7
ATOM      5  C   UNL     1      -0.549  11.028  21.772  0.00  0.00    +0.000 A 
ATOM      6  C   UNL     1       0.053  10.872  20.537  0.00  0.00    +0.000 A 
ATOM      7  C   UNL     1       0.620   9.565  20.326  0.00  0.00    +0.000 A 
ATOM      8  C   UNL     1       0.418   8.785  21.454  0.00  0.00    +0.000 A 
ATOM      9  S   UNL     1      -0.432   9.595  22.696  0.00  0.00    +0.000 S 
BRANCH   5  11
ATOM     10  C   UNL     1      -1.751  13.148  21.199  0.00  0.00    +0.000 C 
ATOM     11  C   UNL     1      -1.237  12.253  22.331  0.00  0.00    +0.000 C 
ATOM     12  C   UNL     1      -2.386  11.857  23.262  0.00  0.00    +0.000 C 
ENDBRANCH   5  11
ENDBRANCH   1   7
BRANCH   3  13
ATOM     13  N   UNL     1       2.870   7.358  18.415  0.00  0.00    +0.000 NA
ATOM     14  C   UNL     1       3.129   6.083  18.440  0.00  0.00    +0.000 C 
ATOM     15  N   UNL     1       3.851   5.441  17.468  0.00  0.00    +0.000 N 
ATOM     16  H   UNL     1       4.033   4.464  17.664  0.00  0.00    +0.000 HD
BRANCH  15  17
ATOM     17  C   UNL     1       4.850   6.114  16.647  0.00  0.00    +0.000 C 
ATOM     18  C   UNL     1       6.067   6.488  17.506  0.00  0.00    +0.000 C 
ATOM     19  C   UNL     1       6.956   5.294  17.857  0.00  0.00    +0.000 C 
ATOM     20  C   UNL     1       7.375   4.527  16.609  0.00  0.00    +0.000 C 
ATOM     21  C   UNL     1       6.160   4.063  15.816  0.00  0.00    +0.000 C 
ATOM     22  C   UNL     1       5.236   5.226  15.456  0.00  0.00    +0.000 C 
ENDBRANCH  15  17
BRANCH  14  23
ATOM     23  S   UNL     1       2.626   4.939  19.676  0.00  0.00    +0.000 S 
ATOM     24  H   UNL     1       2.326   3.872  18.945  0.00  0.00    +0.000 HD
ENDBRANCH  14  23
ENDBRANCH   3  13
TORSDOF 5
ENDMDL
MODEL 5
REMARK VINA RESULT:      -6.4      3.888      4.560
REMARK  Name = 
REMARK  7 active torsions:
REMARK  status: ('A' for Active; 'I' for Inactive)
REMARK    1  A    between atoms: C_1  and  C_2
REMARK    2  A    between atoms: C_2  and  C_3
REMARK    3  A    between atoms: C_2  and  C_4
REMARK    4  A    between atoms: C_6  and  C_7
REMARK    5  A    between atoms: N_9  and  N_10
REMARK    6  A    between atoms: C_11  and  S_12
REMARK    7  A    between atoms: N_13  and  C_14
REMARK                            x       y       z     vdW  Elec       q    Type
REMARK                         _______ _______ _______ _____ _____    ______ ____
ROOT
ATOM      1  C   UNL     1       0.095   8.875  21.406  0.00  0.00    +0.000 C 
ATOM      2  O   UNL     1      -0.688   7.973  21.687  0.00  0.00    +0.000 OA
ATOM      3  N   UNL     1       1.325   8.687  20.787  0.00  0.00    +0.000 N 
ATOM      4  H   UNL     1       1.893   9.480  20.564  0.00  0.00    +0.000 HD
ENDROOT
BRANCH   1   7
ATOM      5  C   UNL     1      -1.171  12.200  22.716  0.00  0.00    +0.000 A 
ATOM      6  C   UNL     1      -1.128  10.819  22.683  0.00  0.00    +0.000 A 
ATOM      7  C   UNL     1      -0.209  10.286  21.711  0.00  0.00    +0.000 A 
ATOM      8  C   UNL     1       0.402  11.330  21.033  0.00  0.00    +0.000 A 
ATOM      9  S   UNL     1      -0.102  12.873  21.564  0.00  0.00    +0.000 S 
BRANCH   5  11
ATOM     10  C   UNL     1      -2.057  14.518  23.046  0.00  0.00    +0.000 C 
ATOM     11  C   UNL     1      -2.013  13.092  23.601  0.00  0.00    +0.000 C 
ATOM     12  C   UNL     1      -3.431  12.532  23.749  0.00  0.00    +0.000 C 
ENDBRANCH   5  11
ENDBRANCH   1   7
BRANCH   3  13
ATOM     13  N   UNL     1       1.760   7.441  20.443  0.00  0.00    +0.000 NA
ATOM     14  C   UNL     1       2.254   7.193  19.265  0.00  0.00    +0.000 C 
ATOM     15  N   UNL     1       2.700   5.956  18.879  0.00  0.00    +0.000 N 
ATOM     16  H   UNL     1       2.987   5.903  17.909  0.00  0.00    +0.000 HD
BRANCH  15  17
ATOM     17  C   UNL     1       2.194   4.716  19.454  0.00  0.00    +0.000 C 
ATOM     18  C   UNL     1       1.428   3.919  18.386  0.00  0.00    +0.000 C 
ATOM     19  C   UNL     1       2.340   3.239  17.363  0.00  0.00    +0.000 C 
ATOM     20  C   UNL     1       3.395   2.376  18.045  0.00  0.00    +0.000 C 
ATOM     21  C   UNL     1       4.225   3.197  19.025  0.00  0.00    +0.000 C 
ATOM     22  C   UNL     1       3.350   3.907  20.058  0.00  0.00    +0.000 C 
ENDBRANCH  15  17
BRANCH  14  23
ATOM     23  S   UNL     1       2.459   8.347  17.955  0.00  0.00    +0.000 S 
ATOM     24  H   UNL     1       2.648   9.479  18.624  0.00  0.00    +0.000 HD
ENDBRANCH  14  23
ENDBRANCH   3  13
TORSDOF 5
ENDMDL
MODEL 6
REMARK VINA RESULT:      -6.4      3.114      3.905
REMARK  Name = 
REMARK  7 active torsions:
REMARK  status: ('A' for Active; 'I' for Inactive)
REMARK    1  A    between atoms: C_1  and  C_2
REMARK    2  A    between atoms: C_2  and  C_3
REMARK    3  A    between atoms: C_2  and  C_4
REMARK    4  A    between atoms: C_6  and  C_7
REMARK    5  A    between atoms: N_9  and  N_10
REMARK    6  A    between atoms: C_11  and  S_12
REMARK    7  A    between atoms: N_13  and  C_14
REMARK                            x       y       z     vdW  Elec       q    Type
REMARK                         _______ _______ _______ _____ _____    ______ ____
ROOT
ATOM      1  C   UNL     1       0.811   9.505  21.797  0.00  0.00    +0.000 C 
ATOM      2  O   UNL     1       1.686   9.392  22.650  0.00  0.00    +0.000 OA
ATOM      3  N   UNL     1       0.716   8.719  20.655  0.00  0.00    +0.000 N 
ATOM      4  H   UNL     1      -0.047   8.855  20.022  0.00  0.00    +0.000 HD
ENDROOT
BRANCH   1   7
ATOM      5  C   UNL     1      -1.765  12.250  21.344  0.00  0.00    +0.000 A 
ATOM      6  C   UNL     1      -0.750  11.421  20.904  0.00  0.00    +0.000 A 
ATOM      7  C   UNL     1      -0.254  10.520  21.912  0.00  0.00    +0.000 A 
ATOM      8  C   UNL     1      -0.937  10.734  23.099  0.00  0.00    +0.000 A 
ATOM      9  S   UNL     1      -2.130  11.952  22.988  0.00  0.00    +0.000 S 
BRANCH   5  11
ATOM     10  C   UNL     1      -4.007  12.976  20.499  0.00  0.00    +0.000 C 
ATOM     11  C   UNL     1      -2.514  13.310  20.567  0.00  0.00    +0.000 C 
ATOM     12  C   UNL     1      -2.303  14.693  21.188  0.00  0.00    +0.000 C 
ENDBRANCH   5  11
ENDBRANCH   1   7
BRANCH   3  13
ATOM     13  N   UNL     1       1.627   7.737  20.395  0.00  0.00    +0.000 NA
ATOM     14  C   UNL     1       2.233   7.657  19.246  0.00  0.00    +0.000 C 
ATOM     15  N   UNL     1       3.151   6.686  18.943  0.00  0.00    +0.000 N 
ATOM     16  H   UNL     1       3.480   6.710  17.986  0.00  0.00    +0.000 HD
BRANCH  15  17
ATOM     17  C   UNL     1       3.153   5.372  19.576  0.00  0.00    +0.000 C 
ATOM     18  C   UNL     1       1.880   4.604  19.190  0.00  0.00    +0.000 C 
ATOM     19  C   UNL     1       1.901   4.071  17.756  0.00  0.00    +0.000 C 
ATOM     20  C   UNL     1       3.150   3.239  17.491  0.00  0.00    +0.000 C 
ATOM     21  C   UNL     1       4.414   4.042  17.772  0.00  0.00    +0.000 C 
ATOM     22  C   UNL     1       4.427   4.606  19.192  0.00  0.00    +0.000 C 
ENDBRANCH  15  17
BRANCH  14  23
ATOM     23  S   UNL     1       2.023   8.740  17.877  0.00  0.00    +0.000 S 
ATOM     24  H   UNL     1       0.714   8.962  17.912  0.00  0.00    +0.000 HD
ENDBRANCH  14  23
ENDBRANCH   3  13
TORSDOF 5
ENDMDL
MODEL 7
REMARK VINA RESULT:      -6.2      1.988      2.964
REMARK  Name = 
REMARK  7 active torsions:
REMARK  status: ('A' for Active; 'I' for Inactive)
REMARK    1  A    between atoms: C_1  and  C_2
REMARK    2  A    between atoms: C_2  and  C_3
REMARK    3  A    between atoms: C_2  and  C_4
REMARK    4  A    between atoms: C_6  and  C_7
REMARK    5  A    between atoms: N_9  and  N_10
REMARK    6  A    between atoms: C_11  and  S_12
REMARK    7  A    between atoms: N_13  and  C_14
REMARK                            x       y       z     vdW  Elec       q    Type
REMARK                         _______ _______ _______ _____ _____    ______ ____
ROOT
ATOM      1  C   UNL     1       1.831   8.878  18.382  0.00  0.00    +0.000 C 
ATOM      2  O   UNL     1       2.091   9.258  17.245  0.00  0.00    +0.000 OA
ATOM      3  N   UNL     1       2.404   7.769  18.992  0.00  0.00    +0.000 N 
ATOM      4  H   UNL     1       2.160   7.542  19.937  0.00  0.00    +0.000 HD
ENDROOT
BRANCH   1   7
ATOM      5  C   UNL     1      -0.406  10.239  21.123  0.00  0.00    +0.000 A 
ATOM      6  C   UNL     1       0.577   9.401  20.631  0.00  0.00    +0.000 A 
ATOM      7  C   UNL     1       0.853   9.587  19.230  0.00  0.00    +0.000 A 
ATOM      8  C   UNL     1       0.028  10.579  18.723  0.00  0.00    +0.000 A 
ATOM      9  S   UNL     1      -1.013  11.260  19.894  0.00  0.00    +0.000 S 
BRANCH   5  11
ATOM     10  C   UNL     1      -0.018   9.603  23.513  0.00  0.00    +0.000 C 
ATOM     11  C   UNL     1      -0.949  10.321  22.532  0.00  0.00    +0.000 C 
ATOM     12  C   UNL     1      -1.151  11.778  22.957  0.00  0.00    +0.000 C 
ENDBRANCH   5  11
ENDBRANCH   1   7
BRANCH   3  13
ATOM     13  N   UNL     1       3.324   7.000  18.342  0.00  0.00    +0.000 NA
ATOM     14  C   UNL     1       3.239   5.701  18.330  0.00  0.00    +0.000 C 
ATOM     15  N   UNL     1       4.142   4.892  17.692  0.00  0.00    +0.000 N 
ATOM     16  H   UNL     1       3.985   3.901  17.835  0.00  0.00    +0.000 HD
BRANCH  15  17
ATOM     17  C   UNL     1       5.527   5.281  17.456  0.00  0.00    +0.000 C 
ATOM     18  C   UNL     1       6.334   4.070  16.963  0.00  0.00    +0.000 C 
ATOM     19  C   UNL     1       6.042   3.694  15.509  0.00  0.00    +0.000 C 
ATOM     20  C   UNL     1       6.218   4.890  14.580  0.00  0.00    +0.000 C 
ATOM     21  C   UNL     1       5.332   6.053  15.010  0.00  0.00    +0.000 C 
ATOM     22  C   UNL     1       5.581   6.452  16.464  0.00  0.00    +0.000 C 
ENDBRANCH  15  17
BRANCH  14  23
ATOM     23  S   UNL     1       1.990   4.729  19.097  0.00  0.00    +0.000 S 
ATOM     24  H   UNL     1       1.779   5.405  20.220  0.00  0.00    +0.000 HD
ENDBRANCH  14  23
ENDBRANCH   3  13
TORSDOF 5
ENDMDL
MODEL 8
REMARK VINA RESULT:      -6.2      1.813      2.720
REMARK  Name = 
REMARK  7 active torsions:
REMARK  status: ('A' for Active; 'I' for Inactive)
REMARK    1  A    between atoms: C_1  and  C_2
REMARK    2  A    between atoms: C_2  and  C_3
REMARK    3  A    between atoms: C_2  and  C_4
REMARK    4  A    between atoms: C_6  and  C_7
REMARK    5  A    between atoms: N_9  and  N_10
REMARK    6  A    between atoms: C_11  and  S_12
REMARK    7  A    between atoms: N_13  and  C_14
REMARK                            x       y       z     vdW  Elec       q    Type
REMARK                         _______ _______ _______ _____ _____    ______ ____
ROOT
ATOM      1  C   UNL     1       1.025   9.297  18.166  0.00  0.00    +0.000 C 
ATOM      2  O   UNL     1       0.491   8.975  17.109  0.00  0.00    +0.000 OA
ATOM      3  N   UNL     1       2.291   8.886  18.566  0.00  0.00    +0.000 N 
ATOM      4  H   UNL     1       2.669   9.218  19.432  0.00  0.00    +0.000 HD
ENDROOT
BRANCH   1   7
ATOM      5  C   UNL     1      -0.444  11.050  21.190  0.00  0.00    +0.000 A 
ATOM      6  C   UNL     1       0.272  10.042  20.571  0.00  0.00    +0.000 A 
ATOM      7  C   UNL     1       0.348  10.176  19.139  0.00  0.00    +0.000 A 
ATOM      8  C   UNL     1      -0.346  11.308  18.742  0.00  0.00    +0.000 A 
ATOM      9  S   UNL     1      -1.037  12.172  20.044  0.00  0.00    +0.000 S 
BRANCH   5  11
ATOM     10  C   UNL     1      -2.116  11.837  22.877  0.00  0.00    +0.000 C 
ATOM     11  C   UNL     1      -0.727  11.230  22.664  0.00  0.00    +0.000 C 
ATOM     12  C   UNL     1      -0.606   9.898  23.410  0.00  0.00    +0.000 C 
ENDBRANCH   5  11
ENDBRANCH   1   7
BRANCH   3  13
ATOM     13  N   UNL     1       3.048   8.065  17.784  0.00  0.00    +0.000 NA
ATOM     14  C   UNL     1       3.253   6.820  18.101  0.00  0.00    +0.000 C 
ATOM     15  N   UNL     1       4.009   5.962  17.345  0.00  0.00    +0.000 N 
ATOM     16  H   UNL     1       4.138   5.047  17.760  0.00  0.00    +0.000 HD
BRANCH  15  17
ATOM     17  C   UNL     1       5.086   6.414  16.473  0.00  0.00    +0.000 C 
ATOM     18  C   UNL     1       6.329   6.755  17.309  0.00  0.00    +0.000 C 
ATOM     19  C   UNL     1       7.073   5.522  17.825  0.00  0.00    +0.000 C 
ATOM     20  C   UNL     1       7.416   4.565  16.690  0.00  0.00    +0.000 C 
ATOM     21  C   UNL     1       6.164   4.144  15.929  0.00  0.00    +0.000 C 
ATOM     22  C   UNL     1       5.382   5.348  15.408  0.00  0.00    +0.000 C 
ENDBRANCH  15  17
BRANCH  14  23
ATOM     23  S   UNL     1       2.624   5.986  19.515  0.00  0.00    +0.000 S 
ATOM     24  H   UNL     1       3.713   5.381  19.974  0.00  0.00    +0.000 HD
ENDBRANCH  14  23
ENDBRANCH   3  13
TORSDOF 5
ENDMDL
MODEL 9
REMARK VINA RESULT:      -6.2      2.928      8.487
REMARK  Name = 
REMARK  7 active torsions:
REMARK  status: ('A' for Active; 'I' for Inactive)
REMARK    1  A    between atoms: C_1  and  C_2
REMARK    2  A    between atoms: C_2  and  C_3
REMARK    3  A    between atoms: C_2  and  C_4
REMARK    4  A    between atoms: C_6  and  C_7
REMARK    5  A    between atoms: N_9  and  N_10
REMARK    6  A    between atoms: C_11  and  S_12
REMARK    7  A    between atoms: N_13  and  C_14
REMARK                            x       y       z     vdW  Elec       q    Type
REMARK                         _______ _______ _______ _____ _____    ______ ____
ROOT
ATOM      1  C   UNL     1       2.418   7.833  18.136  0.00  0.00    +0.000 C 
ATOM      2  O   UNL     1       2.651   8.607  17.212  0.00  0.00    +0.000 OA
ATOM      3  N   UNL     1       1.735   8.174  19.297  0.00  0.00    +0.000 N 
ATOM      4  H   UNL     1       1.559   7.474  19.992  0.00  0.00    +0.000 HD
ENDROOT
BRANCH   1   7
ATOM      5  C   UNL     1       2.790   4.062  17.986  0.00  0.00    +0.000 A 
ATOM      6  C   UNL     1       2.055   5.233  18.007  0.00  0.00    +0.000 A 
ATOM      7  C   UNL     1       2.858   6.425  18.095  0.00  0.00    +0.000 A 
ATOM      8  C   UNL     1       4.199   6.076  18.150  0.00  0.00    +0.000 A 
ATOM      9  S   UNL     1       4.465   4.389  18.078  0.00  0.00    +0.000 S 
BRANCH   5  11
ATOM     10  C   UNL     1       3.355   1.657  18.385  0.00  0.00    +0.000 C 
ATOM     11  C   UNL     1       2.285   2.639  17.901  0.00  0.00    +0.000 C 
ATOM     12  C   UNL     1       0.996   2.468  18.710  0.00  0.00    +0.000 C 
ENDBRANCH   5  11
ENDBRANCH   1   7
BRANCH   3  13
ATOM     13  N   UNL     1       1.265   9.438  19.495  0.00  0.00    +0.000 NA
ATOM     14  C   UNL     1       0.481   9.725  20.494  0.00  0.00    +0.000 C 
ATOM     15  N   UNL     1      -0.016  10.981  20.727  0.00  0.00    +0.000 N 
ATOM     16  H   UNL     1      -0.671  11.031  21.498  0.00  0.00    +0.000 HD
BRANCH  15  17
ATOM     17  C   UNL     1      -0.211  11.966  19.670  0.00  0.00    +0.000 C 
ATOM     18  C   UNL     1      -1.683  11.977  19.232  0.00  0.00    +0.000 C 
ATOM     19  C   UNL     1      -2.613  12.661  20.236  0.00  0.00    +0.000 C 
ATOM     20  C   UNL     1      -2.127  14.065  20.576  0.00  0.00    +0.000 C 
ATOM     21  C   UNL     1      -0.701  14.037  21.114  0.00  0.00    +0.000 C 
ATOM     22  C   UNL     1       0.260  13.347  20.146  0.00  0.00    +0.000 C 
ENDBRANCH  15  17
BRANCH  14  23
ATOM     23  S   UNL     1      -0.094   8.608  21.725  0.00  0.00    +0.000 S 
ATOM     24  H   UNL     1       0.805   7.634  21.641  0.00  0.00    +0.000 HD
ENDBRANCH  14  23
ENDBRANCH   3  13
TORSDOF 5
ENDMDL
