MODEL 1
REMARK VINA RESULT:      -7.8      0.000      0.000
REMARK  Name = 
REMARK  6 active torsions:
REMARK  status: ('A' for Active; 'I' for Inactive)
REMARK    1  A    between atoms: C_2  and  C_11
REMARK    2  A    between atoms: N_3  and  C_4
REMARK    3  A    between atoms: C_4  and  C_5
REMARK    4  A    between atoms: C_12  and  N_13
REMARK    5  A    between atoms: N_13  and  C_14
REMARK    6  A    between atoms: N_20  and  O_21
REMARK                            x       y       z     vdW  Elec       q    Type
REMARK                         _______ _______ _______ _____ _____    ______ ____
ROOT
ATOM      1  C   UNL     1       5.943   5.422  17.455  0.00  0.00    +0.000 A 
ATOM      2  C   UNL     1       7.031   6.230  17.270  0.00  0.00    +0.000 A 
ATOM      3  N   UNL     1       7.672   6.199  16.044  0.00  0.00    +0.000 N 
ATOM      4  C   UNL     1       7.402   5.366  15.004  0.00  0.00    +0.000 A 
ATOM      5  O   UNL     1       8.001   5.435  13.941  0.00  0.00    +0.000 OA
ATOM      6  N   UNL     1       6.410   4.452  15.248  0.00  0.00    +0.000 N 
ATOM      7  C   UNL     1       5.602   4.440  16.352  0.00  0.00    +0.000 A 
ATOM      8  O   UNL     1       4.639   3.680  16.457  0.00  0.00    +0.000 OA
ATOM      9  H   UNL     1       8.430   6.840  15.873  0.00  0.00    +0.000 HD
ENDROOT
BRANCH   1  11
ATOM     10  O   UNL     1       5.387   5.223  19.802  0.00  0.00    +0.000 OA
ATOM     11  C   UNL     1       5.020   5.497  18.662  0.00  0.00    +0.000 C 
ATOM     12  N   UNL     1       3.736   5.944  18.420  0.00  0.00    +0.000 N 
ATOM     13  H   UNL     1       3.540   6.385  17.519  0.00  0.00    +0.000 HD
BRANCH  12  14
ATOM     14  C   UNL     1       2.723   6.102  19.443  0.00  0.00    +0.000 C 
BRANCH  14  15
ATOM     15  C   UNL     1       2.029   4.785  19.719  0.00  0.00    +0.000 A 
ATOM     16  C   UNL     1       1.917   4.280  21.025  0.00  0.00    +0.000 A 
ATOM     17  C   UNL     1       1.359   3.018  21.256  0.00  0.00    +0.000 A 
ATOM     18  C   UNL     1       0.902   2.250  20.187  0.00  0.00    +0.000 A 
ATOM     19  C   UNL     1       0.975   2.754  18.890  0.00  0.00    +0.000 A 
ATOM     20  C   UNL     1       1.534   4.012  18.657  0.00  0.00    +0.000 A 
ENDBRANCH  14  15
ENDBRANCH  12  14
ENDBRANCH   1  11
BRANCH   2  21
ATOM     21  N   UNL     1       7.585   7.174  18.140  0.00  0.00    +0.000 N 
ATOM     22  H   UNL     1       6.990   7.353  18.943  0.00  0.00    +0.000 HD
BRANCH  21  23
ATOM     23  C   UNL     1       8.266   8.386  17.642  0.00  0.00    +0.000 C 
ATOM     24  C   UNL     1       7.673   9.768  17.725  0.00  0.00    +0.000 C 
ATOM     25  C   UNL     1       8.825   9.419  18.608  0.00  0.00    +0.000 C 
ENDBRANCH  21  23
ENDBRANCH   2  21
BRANCH   6  26
ATOM     26  O   UNL     1       6.095   3.559  14.199  0.00  0.00    +0.000 OA
ATOM     27  H   UNL     1       6.515   3.988  13.427  0.00  0.00    +0.000 HD
ENDBRANCH   6  26
TORSDOF 6
ENDMDL
MODEL 2
REMARK VINA RESULT:      -7.8      3.157      4.983
REMARK  Name = 
REMARK  6 active torsions:
REMARK  status: ('A' for Active; 'I' for Inactive)
REMARK    1  A    between atoms: C_2  and  C_11
REMARK    2  A    between atoms: N_3  and  C_4
REMARK    3  A    between atoms: C_4  and  C_5
REMARK    4  A    between atoms: C_12  and  N_13
REMARK    5  A    between atoms: N_13  and  C_14
REMARK    6  A    between atoms: N_20  and  O_21
REMARK                            x       y       z     vdW  Elec       q    Type
REMARK                         _______ _______ _______ _____ _____    ______ ____
ROOT
ATOM      1  C   UNL     1       3.548   4.900  18.251  0.00  0.00    +0.000 A 
ATOM      2  C   UNL     1       4.675   4.325  18.771  0.00  0.00    +0.000 A 
ATOM      3  N   UNL     1       4.737   2.944  18.837  0.00  0.00    +0.000 N 
ATOM      4  C   UNL     1       3.744   2.068  18.528  0.00  0.00    +0.000 A 
ATOM      5  O   UNL     1       3.903   0.858  18.583  0.00  0.00    +0.000 OA
ATOM      6  N   UNL     1       2.563   2.653  18.152  0.00  0.00    +0.000 N 
ATOM      7  C   UNL     1       2.384   3.988  17.917  0.00  0.00    +0.000 A 
ATOM      8  O   UNL     1       1.338   4.442  17.451  0.00  0.00    +0.000 OA
ATOM      9  H   UNL     1       5.589   2.507  19.152  0.00  0.00    +0.000 HD
ENDROOT
BRANCH   1  11
ATOM     10  O   UNL     1       4.177   6.965  17.157  0.00  0.00    +0.000 OA
ATOM     11  C   UNL     1       3.419   6.381  17.926  0.00  0.00    +0.000 C 
ATOM     12  N   UNL     1       2.358   7.042  18.513  0.00  0.00    +0.000 N 
ATOM     13  H   UNL     1       1.620   6.483  18.947  0.00  0.00    +0.000 HD
BRANCH  12  14
ATOM     14  C   UNL     1       2.059   8.445  18.308  0.00  0.00    +0.000 C 
BRANCH  14  15
ATOM     15  C   UNL     1       1.321   9.015  19.499  0.00  0.00    +0.000 A 
ATOM     16  C   UNL     1       0.626  10.233  19.410  0.00  0.00    +0.000 A 
ATOM     17  C   UNL     1       0.028  10.797  20.543  0.00  0.00    +0.000 A 
ATOM     18  C   UNL     1       0.113  10.149  21.774  0.00  0.00    +0.000 A 
ATOM     19  C   UNL     1       0.769   8.923  21.868  0.00  0.00    +0.000 A 
ATOM     20  C   UNL     1       1.369   8.360  20.740  0.00  0.00    +0.000 A 
ENDBRANCH  14  15
ENDBRANCH  12  14
ENDBRANCH   1  11
BRANCH   2  21
ATOM     21  N   UNL     1       5.854   4.935  19.206  0.00  0.00    +0.000 N 
ATOM     22  H   UNL     1       5.680   5.810  19.692  0.00  0.00    +0.000 HD
BRANCH  21  23
ATOM     23  C   UNL     1       7.067   4.973  18.363  0.00  0.00    +0.000 C 
ATOM     24  C   UNL     1       7.037   5.099  16.863  0.00  0.00    +0.000 C 
ATOM     25  C   UNL     1       7.502   6.260  17.679  0.00  0.00    +0.000 C 
ENDBRANCH  21  23
ENDBRANCH   2  21
BRANCH   6  26
ATOM     26  O   UNL     1       1.497   1.784  17.826  0.00  0.00    +0.000 OA
ATOM     27  H   UNL     1       1.569   1.723  16.853  0.00  0.00    +0.000 HD
ENDBRANCH   6  26
TORSDOF 6
ENDMDL
MODEL 3
REMARK VINA RESULT:      -7.8      1.250      1.373
REMARK  Name = 
REMARK  6 active torsions:
REMARK  status: ('A' for Active; 'I' for Inactive)
REMARK    1  A    between atoms: C_2  and  C_11
REMARK    2  A    between atoms: N_3  and  C_4
REMARK    3  A    between atoms: C_4  and  C_5
REMARK    4  A    between atoms: C_12  and  N_13
REMARK    5  A    between atoms: N_13  and  C_14
REMARK    6  A    between atoms: N_20  and  O_21
REMARK                            x       y       z     vdW  Elec       q    Type
REMARK                         _______ _______ _______ _____ _____    ______ ____
ROOT
ATOM      1  C   UNL     1       6.243   4.772  17.260  0.00  0.00    +0.000 A 
ATOM      2  C   UNL     1       7.136   5.794  17.090  0.00  0.00    +0.000 A 
ATOM      3  N   UNL     1       7.616   6.041  15.815  0.00  0.00    +0.000 N 
ATOM      4  C   UNL     1       7.376   5.305  14.697  0.00  0.00    +0.000 A 
ATOM      5  O   UNL     1       7.817   5.622  13.603  0.00  0.00    +0.000 OA
ATOM      6  N   UNL     1       6.603   4.192  14.902  0.00  0.00    +0.000 N 
ATOM      7  C   UNL     1       5.952   3.886  16.065  0.00  0.00    +0.000 A 
ATOM      8  O   UNL     1       5.163   2.945  16.152  0.00  0.00    +0.000 OA
ATOM      9  H   UNL     1       8.219   6.834  15.666  0.00  0.00    +0.000 HD
ENDROOT
BRANCH   1  11
ATOM     10  O   UNL     1       4.963   5.412  19.212  0.00  0.00    +0.000 OA
ATOM     11  C   UNL     1       5.477   4.515  18.550  0.00  0.00    +0.000 C 
ATOM     12  N   UNL     1       5.343   3.193  18.925  0.00  0.00    +0.000 N 
ATOM     13  H   UNL     1       5.570   2.470  18.238  0.00  0.00    +0.000 HD
BRANCH  12  14
ATOM     14  C   UNL     1       4.632   2.750  20.107  0.00  0.00    +0.000 C 
BRANCH  14  15
ATOM     15  C   UNL     1       3.137   2.880  19.912  0.00  0.00    +0.000 A 
ATOM     16  C   UNL     1       2.345   3.605  20.818  0.00  0.00    +0.000 A 
ATOM     17  C   UNL     1       0.953   3.637  20.681  0.00  0.00    +0.000 A 
ATOM     18  C   UNL     1       0.337   2.951  19.635  0.00  0.00    +0.000 A 
ATOM     19  C   UNL     1       1.114   2.257  18.709  0.00  0.00    +0.000 A 
ATOM     20  C   UNL     1       2.503   2.221  18.847  0.00  0.00    +0.000 A 
ENDBRANCH  14  15
ENDBRANCH  12  14
ENDBRANCH   1  11
BRANCH   2  21
ATOM     21  N   UNL     1       7.612   6.713  18.029  0.00  0.00    +0.000 N 
ATOM     22  H   UNL     1       6.987   6.811  18.824  0.00  0.00    +0.000 HD
BRANCH  21  23
ATOM     23  C   UNL     1       8.236   7.989  17.623  0.00  0.00    +0.000 C 
ATOM     24  C   UNL     1       7.556   9.326  17.749  0.00  0.00    +0.000 C 
ATOM     25  C   UNL     1       8.690   9.001  18.663  0.00  0.00    +0.000 C 
ENDBRANCH  21  23
ENDBRANCH   2  21
BRANCH   6  26
ATOM     26  O   UNL     1       6.328   3.391  13.770  0.00  0.00    +0.000 OA
ATOM     27  H   UNL     1       5.396   3.132  13.920  0.00  0.00    +0.000 HD
ENDBRANCH   6  26
TORSDOF 6
ENDMDL
MODEL 4
REMARK VINA RESULT:      -7.7      2.864      5.052
REMARK  Name = 
REMARK  6 active torsions:
REMARK  status: ('A' for Active; 'I' for Inactive)
REMARK    1  A    between atoms: C_2  and  C_11
REMARK    2  A    between atoms: N_3  and  C_4
REMARK    3  A    between atoms: C_4  and  C_5
REMARK    4  A    between atoms: C_12  and  N_13
REMARK    5  A    between atoms: N_13  and  C_14
REMARK    6  A    between atoms: N_20  and  O_21
REMARK                            x       y       z     vdW  Elec       q    Type
REMARK                         _______ _______ _______ _____ _____    ______ ____
ROOT
ATOM      1  C   UNL     1       4.394   5.558  17.726  0.00  0.00    +0.000 A 
ATOM      2  C   UNL     1       4.770   4.567  18.591  0.00  0.00    +0.000 A 
ATOM      3  N   UNL     1       6.095   4.170  18.599  0.00  0.00    +0.000 N 
ATOM      4  C   UNL     1       7.077   4.590  17.758  0.00  0.00    +0.000 A 
ATOM      5  O   UNL     1       8.233   4.208  17.864  0.00  0.00    +0.000 OA
ATOM      6  N   UNL     1       6.664   5.470  16.792  0.00  0.00    +0.000 N 
ATOM      7  C   UNL     1       5.427   6.052  16.733  0.00  0.00    +0.000 A 
ATOM      8  O   UNL     1       5.153   6.938  15.922  0.00  0.00    +0.000 OA
ATOM      9  H   UNL     1       6.398   3.492  19.279  0.00  0.00    +0.000 HD
ENDROOT
BRANCH   1  11
ATOM     10  O   UNL     1       1.975   5.614  17.767  0.00  0.00    +0.000 OA
ATOM     11  C   UNL     1       3.033   6.238  17.746  0.00  0.00    +0.000 C 
ATOM     12  N   UNL     1       3.042   7.618  17.790  0.00  0.00    +0.000 N 
ATOM     13  H   UNL     1       3.922   8.089  18.012  0.00  0.00    +0.000 HD
BRANCH  12  14
ATOM     14  C   UNL     1       1.849   8.439  17.836  0.00  0.00    +0.000 C 
BRANCH  14  15
ATOM     15  C   UNL     1       1.543   8.859  19.257  0.00  0.00    +0.000 A 
ATOM     16  C   UNL     1       1.701   7.967  20.331  0.00  0.00    +0.000 A 
ATOM     17  C   UNL     1       1.323   8.337  21.626  0.00  0.00    +0.000 A 
ATOM     18  C   UNL     1       0.790   9.603  21.865  0.00  0.00    +0.000 A 
ATOM     19  C   UNL     1       0.661  10.510  20.815  0.00  0.00    +0.000 A 
ATOM     20  C   UNL     1       1.035  10.141  19.520  0.00  0.00    +0.000 A 
ENDBRANCH  14  15
ENDBRANCH  12  14
ENDBRANCH   1  11
BRANCH   2  21
ATOM     21  N   UNL     1       4.007   3.907  19.558  0.00  0.00    +0.000 N 
ATOM     22  H   UNL     1       4.533   3.727  20.408  0.00  0.00    +0.000 HD
BRANCH  21  23
ATOM     23  C   UNL     1       3.083   2.810  19.205  0.00  0.00    +0.000 C 
ATOM     24  C   UNL     1       2.901   2.292  17.803  0.00  0.00    +0.000 C 
ATOM     25  C   UNL     1       3.614   1.443  18.802  0.00  0.00    +0.000 C 
ENDBRANCH  21  23
ENDBRANCH   2  21
BRANCH   6  26
ATOM     26  O   UNL     1       7.647   5.933  15.889  0.00  0.00    +0.000 OA
ATOM     27  H   UNL     1       7.129   6.517  15.299  0.00  0.00    +0.000 HD
ENDBRANCH   6  26
TORSDOF 6
ENDMDL
MODEL 5
REMARK VINA RESULT:      -7.7      3.195      4.875
REMARK  Name = 
REMARK  6 active torsions:
REMARK  status: ('A' for Active; 'I' for Inactive)
REMARK    1  A    between atoms: C_2  and  C_11
REMARK    2  A    between atoms: N_3  and  C_4
REMARK    3  A    between atoms: C_4  and  C_5
REMARK    4  A    between atoms: C_12  and  N_13
REMARK    5  A    between atoms: N_13  and  C_14
REMARK    6  A    between atoms: N_20  and  O_21
REMARK                            x       y       z     vdW  Elec       q    Type
REMARK                         _______ _______ _______ _____ _____    ______ ____
ROOT
ATOM      1  C   UNL     1       3.489   4.912  18.298  0.00  0.00    +0.000 A 
ATOM      2  C   UNL     1       4.597   4.349  18.871  0.00  0.00    +0.000 A 
ATOM      3  N   UNL     1       4.673   2.969  18.937  0.00  0.00    +0.000 N 
ATOM      4  C   UNL     1       3.708   2.081  18.578  0.00  0.00    +0.000 A 
ATOM      5  O   UNL     1       3.879   0.873  18.639  0.00  0.00    +0.000 OA
ATOM      6  N   UNL     1       2.539   2.652  18.147  0.00  0.00    +0.000 N 
ATOM      7  C   UNL     1       2.355   3.986  17.906  0.00  0.00    +0.000 A 
ATOM      8  O   UNL     1       1.327   4.428  17.390  0.00  0.00    +0.000 OA
ATOM      9  H   UNL     1       5.514   2.542  19.292  0.00  0.00    +0.000 HD
ENDROOT
BRANCH   1  11
ATOM     10  O   UNL     1       4.108   6.973  17.192  0.00  0.00    +0.000 OA
ATOM     11  C   UNL     1       3.357   6.392  17.971  0.00  0.00    +0.000 C 
ATOM     12  N   UNL     1       2.302   7.054  18.565  0.00  0.00    +0.000 N 
ATOM     13  H   UNL     1       1.568   6.497  19.008  0.00  0.00    +0.000 HD
BRANCH  12  14
ATOM     14  C   UNL     1       2.002   8.456  18.359  0.00  0.00    +0.000 C 
BRANCH  14  15
ATOM     15  C   UNL     1       1.269   9.029  19.553  0.00  0.00    +0.000 A 
ATOM     16  C   UNL     1       1.354   8.424  20.819  0.00  0.00    +0.000 A 
ATOM     17  C   UNL     1       0.597   8.907  21.892  0.00  0.00    +0.000 A 
ATOM     18  C   UNL     1      -0.249  10.000  21.715  0.00  0.00    +0.000 A 
ATOM     19  C   UNL     1      -0.317  10.630  20.474  0.00  0.00    +0.000 A 
ATOM     20  C   UNL     1       0.436  10.148  19.401  0.00  0.00    +0.000 A 
ENDBRANCH  14  15
ENDBRANCH  12  14
ENDBRANCH   1  11
BRANCH   2  21
ATOM     21  N   UNL     1       5.746   4.973  19.364  0.00  0.00    +0.000 N 
ATOM     22  H   UNL     1       5.529   5.770  19.955  0.00  0.00    +0.000 HD
BRANCH  21  23
ATOM     23  C   UNL     1       6.939   5.187  18.520  0.00  0.00    +0.000 C 
ATOM     24  C   UNL     1       7.363   6.537  18.003  0.00  0.00    +0.000 C 
ATOM     25  C   UNL     1       8.172   5.883  19.074  0.00  0.00    +0.000 C 
ENDBRANCH  21  23
ENDBRANCH   2  21
BRANCH   6  26
ATOM     26  O   UNL     1       1.502   1.771  17.767  0.00  0.00    +0.000 OA
ATOM     27  H   UNL     1       1.749   1.542  16.849  0.00  0.00    +0.000 HD
ENDBRANCH   6  26
TORSDOF 6
ENDMDL
MODEL 6
REMARK VINA RESULT:      -7.7      2.854      5.153
REMARK  Name = 
REMARK  6 active torsions:
REMARK  status: ('A' for Active; 'I' for Inactive)
REMARK    1  A    between atoms: C_2  and  C_11
REMARK    2  A    between atoms: N_3  and  C_4
REMARK    3  A    between atoms: C_4  and  C_5
REMARK    4  A    between atoms: C_12  and  N_13
REMARK    5  A    between atoms: N_13  and  C_14
REMARK    6  A    between atoms: N_20  and  O_21
REMARK                            x       y       z     vdW  Elec       q    Type
REMARK                         _______ _______ _______ _____ _____    ______ ____
ROOT
ATOM      1  C   UNL     1       4.315   5.843  17.898  0.00  0.00    +0.000 A 
ATOM      2  C   UNL     1       4.692   5.031  18.932  0.00  0.00    +0.000 A 
ATOM      3  N   UNL     1       6.006   4.600  18.983  0.00  0.00    +0.000 N 
ATOM      4  C   UNL     1       6.970   4.813  18.048  0.00  0.00    +0.000 A 
ATOM      5  O   UNL     1       8.118   4.422  18.196  0.00  0.00    +0.000 OA
ATOM      6  N   UNL     1       6.548   5.498  16.938  0.00  0.00    +0.000 N 
ATOM      7  C   UNL     1       5.326   6.096  16.798  0.00  0.00    +0.000 A 
ATOM      8  O   UNL     1       5.049   6.813  15.835  0.00  0.00    +0.000 OA
ATOM      9  H   UNL     1       6.313   4.061  19.776  0.00  0.00    +0.000 HD
ENDROOT
BRANCH   1  11
ATOM     10  O   UNL     1       1.903   5.962  17.740  0.00  0.00    +0.000 OA
ATOM     11  C   UNL     1       2.973   6.557  17.820  0.00  0.00    +0.000 C 
ATOM     12  N   UNL     1       3.013   7.936  17.894  0.00  0.00    +0.000 N 
ATOM     13  H   UNL     1       3.882   8.379  18.197  0.00  0.00    +0.000 HD
BRANCH  12  14
ATOM     14  C   UNL     1       1.841   8.786  17.858  0.00  0.00    +0.000 C 
BRANCH  14  15
ATOM     15  C   UNL     1       1.382   9.126  19.260  0.00  0.00    +0.000 A 
ATOM     16  C   UNL     1       1.619   8.253  20.335  0.00  0.00    +0.000 A 
ATOM     17  C   UNL     1       1.107   8.534  21.607  0.00  0.00    +0.000 A 
ATOM     18  C   UNL     1       0.359   9.690  21.820  0.00  0.00    +0.000 A 
ATOM     19  C   UNL     1       0.147  10.582  20.770  0.00  0.00    +0.000 A 
ATOM     20  C   UNL     1       0.654  10.302  19.500  0.00  0.00    +0.000 A 
ENDBRANCH  14  15
ENDBRANCH  12  14
ENDBRANCH   1  11
BRANCH   2  21
ATOM     21  N   UNL     1       3.945   4.602  20.032  0.00  0.00    +0.000 N 
ATOM     22  H   UNL     1       4.481   4.621  20.894  0.00  0.00    +0.000 HD
BRANCH  21  23
ATOM     23  C   UNL     1       3.027   3.447  19.946  0.00  0.00    +0.000 C 
ATOM     24  C   UNL     1       2.433   2.764  21.150  0.00  0.00    +0.000 C 
ATOM     25  C   UNL     1       1.551   3.598  20.280  0.00  0.00    +0.000 C 
ENDBRANCH  21  23
ENDBRANCH   2  21
BRANCH   6  26
ATOM     26  O   UNL     1       7.513   5.740  15.934  0.00  0.00    +0.000 OA
ATOM     27  H   UNL     1       7.309   6.659  15.667  0.00  0.00    +0.000 HD
ENDBRANCH   6  26
TORSDOF 6
ENDMDL
MODEL 7
REMARK VINA RESULT:      -7.6      5.600      8.423
REMARK  Name = 
REMARK  6 active torsions:
REMARK  status: ('A' for Active; 'I' for Inactive)
REMARK    1  A    between atoms: C_2  and  C_11
REMARK    2  A    between atoms: N_3  and  C_4
REMARK    3  A    between atoms: C_4  and  C_5
REMARK    4  A    between atoms: C_12  and  N_13
REMARK    5  A    between atoms: N_13  and  C_14
REMARK    6  A    between atoms: N_20  and  O_21
REMARK                            x       y       z     vdW  Elec       q    Type
REMARK                         _______ _______ _______ _____ _____    ______ ____
ROOT
ATOM      1  C   UNL     1       0.424   9.897  19.774  0.00  0.00    +0.000 A 
ATOM      2  C   UNL     1      -0.516  10.636  19.108  0.00  0.00    +0.000 A 
ATOM      3  N   UNL     1      -1.279  11.534  19.834  0.00  0.00    +0.000 N 
ATOM      4  C   UNL     1      -1.274  11.705  21.183  0.00  0.00    +0.000 A 
ATOM      5  O   UNL     1      -1.960  12.552  21.734  0.00  0.00    +0.000 OA
ATOM      6  N   UNL     1      -0.441  10.855  21.862  0.00  0.00    +0.000 N 
ATOM      7  C   UNL     1       0.464  10.008  21.284  0.00  0.00    +0.000 A 
ATOM      8  O   UNL     1       1.282   9.366  21.945  0.00  0.00    +0.000 OA
ATOM      9  H   UNL     1      -1.924  12.134  19.345  0.00  0.00    +0.000 HD
ENDROOT
BRANCH   1  11
ATOM     10  O   UNL     1       2.084   9.389  18.087  0.00  0.00    +0.000 OA
ATOM     11  C   UNL     1       1.469   9.029  19.087  0.00  0.00    +0.000 C 
ATOM     12  N   UNL     1       1.733   7.812  19.681  0.00  0.00    +0.000 N 
ATOM     13  H   UNL     1       1.386   7.650  20.629  0.00  0.00    +0.000 HD
BRANCH  12  14
ATOM     14  C   UNL     1       2.708   6.860  19.188  0.00  0.00    +0.000 C 
BRANCH  14  15
ATOM     15  C   UNL     1       2.163   5.450  19.258  0.00  0.00    +0.000 A 
ATOM     16  C   UNL     1       2.076   4.644  18.111  0.00  0.00    +0.000 A 
ATOM     17  C   UNL     1       1.483   3.378  18.171  0.00  0.00    +0.000 A 
ATOM     18  C   UNL     1       0.975   2.901  19.378  0.00  0.00    +0.000 A 
ATOM     19  C   UNL     1       1.086   3.676  20.531  0.00  0.00    +0.000 A 
ATOM     20  C   UNL     1       1.675   4.941  20.472  0.00  0.00    +0.000 A 
ENDBRANCH  14  15
ENDBRANCH  12  14
ENDBRANCH   1  11
BRANCH   2  21
ATOM     21  N   UNL     1      -0.796  10.678  17.740  0.00  0.00    +0.000 N 
ATOM     22  H   UNL     1      -0.783  11.625  17.372  0.00  0.00    +0.000 HD
BRANCH  21  23
ATOM     23  C   UNL     1      -1.848   9.836  17.135  0.00  0.00    +0.000 C 
ATOM     24  C   UNL     1      -3.321  10.126  17.258  0.00  0.00    +0.000 C 
ATOM     25  C   UNL     1      -2.649  10.329  15.940  0.00  0.00    +0.000 C 
ENDBRANCH  21  23
ENDBRANCH   2  21
BRANCH   6  26
ATOM     26  O   UNL     1      -0.404  10.989  23.269  0.00  0.00    +0.000 OA
ATOM     27  H   UNL     1       0.391  11.543  23.405  0.00  0.00    +0.000 HD
ENDBRANCH   6  26
TORSDOF 6
ENDMDL
MODEL 8
REMARK VINA RESULT:      -7.6      2.851      5.192
REMARK  Name = 
REMARK  6 active torsions:
REMARK  status: ('A' for Active; 'I' for Inactive)
REMARK    1  A    between atoms: C_2  and  C_11
REMARK    2  A    between atoms: N_3  and  C_4
REMARK    3  A    between atoms: C_4  and  C_5
REMARK    4  A    between atoms: C_12  and  N_13
REMARK    5  A    between atoms: N_13  and  C_14
REMARK    6  A    between atoms: N_20  and  O_21
REMARK                            x       y       z     vdW  Elec       q    Type
REMARK                         _______ _______ _______ _____ _____    ______ ____
ROOT
ATOM      1  C   UNL     1       4.322   5.866  17.904  0.00  0.00    +0.000 A 
ATOM      2  C   UNL     1       4.694   5.065  18.949  0.00  0.00    +0.000 A 
ATOM      3  N   UNL     1       6.007   4.631  19.010  0.00  0.00    +0.000 N 
ATOM      4  C   UNL     1       6.975   4.829  18.076  0.00  0.00    +0.000 A 
ATOM      5  O   UNL     1       8.121   4.437  18.232  0.00  0.00    +0.000 OA
ATOM      6  N   UNL     1       6.558   5.502  16.956  0.00  0.00    +0.000 N 
ATOM      7  C   UNL     1       5.339   6.102  16.805  0.00  0.00    +0.000 A 
ATOM      8  O   UNL     1       5.067   6.808  15.832  0.00  0.00    +0.000 OA
ATOM      9  H   UNL     1       6.309   4.100  19.810  0.00  0.00    +0.000 HD
ENDROOT
BRANCH   1  11
ATOM     10  O   UNL     1       1.915   5.990  17.689  0.00  0.00    +0.000 OA
ATOM     11  C   UNL     1       2.984   6.583  17.813  0.00  0.00    +0.000 C 
ATOM     12  N   UNL     1       3.022   7.958  17.927  0.00  0.00    +0.000 N 
ATOM     13  H   UNL     1       3.883   8.392  18.265  0.00  0.00    +0.000 HD
BRANCH  12  14
ATOM     14  C   UNL     1       1.851   8.811  17.887  0.00  0.00    +0.000 C 
BRANCH  14  15
ATOM     15  C   UNL     1       1.375   9.134  19.286  0.00  0.00    +0.000 A 
ATOM     16  C   UNL     1       0.803  10.380  19.592  0.00  0.00    +0.000 A 
ATOM     17  C   UNL     1       0.455  10.702  20.908  0.00  0.00    +0.000 A 
ATOM     18  C   UNL     1       0.668   9.781  21.932  0.00  0.00    +0.000 A 
ATOM     19  C   UNL     1       1.202   8.528  21.638  0.00  0.00    +0.000 A 
ATOM     20  C   UNL     1       1.553   8.207  20.325  0.00  0.00    +0.000 A 
ENDBRANCH  14  15
ENDBRANCH  12  14
ENDBRANCH   1  11
BRANCH   2  21
ATOM     21  N   UNL     1       3.942   4.651  20.051  0.00  0.00    +0.000 N 
ATOM     22  H   UNL     1       4.461   4.722  20.921  0.00  0.00    +0.000 HD
BRANCH  21  23
ATOM     23  C   UNL     1       3.067   3.462  19.995  0.00  0.00    +0.000 C 
ATOM     24  C   UNL     1       2.426   2.840  21.207  0.00  0.00    +0.000 C 
ATOM     25  C   UNL     1       1.570   3.582  20.235  0.00  0.00    +0.000 C 
ENDBRANCH  21  23
ENDBRANCH   2  21
BRANCH   6  26
ATOM     26  O   UNL     1       7.527   5.729  15.953  0.00  0.00    +0.000 OA
ATOM     27  H   UNL     1       7.029   6.259  15.299  0.00  0.00    +0.000 HD
ENDBRANCH   6  26
TORSDOF 6
ENDMDL
MODEL 9
REMARK VINA RESULT:      -7.5      2.867      5.089
REMARK  Name = 
REMARK  6 active torsions:
REMARK  status: ('A' for Active; 'I' for Inactive)
REMARK    1  A    between atoms: C_2  and  C_11
REMARK    2  A    between atoms: N_3  and  C_4
REMARK    3  A    between atoms: C_4  and  C_5
REMARK    4  A    between atoms: C_12  and  N_13
REMARK    5  A    between atoms: N_13  and  C_14
REMARK    6  A    between atoms: N_20  and  O_21
REMARK                            x       y       z     vdW  Elec       q    Type
REMARK                         _______ _______ _______ _____ _____    ______ ____
ROOT
ATOM      1  C   UNL     1       4.377   5.637  17.730  0.00  0.00    +0.000 A 
ATOM      2  C   UNL     1       4.734   4.625  18.578  0.00  0.00    +0.000 A 
ATOM      3  N   UNL     1       6.060   4.229  18.606  0.00  0.00    +0.000 N 
ATOM      4  C   UNL     1       7.060   4.671  17.797  0.00  0.00    +0.000 A 
ATOM      5  O   UNL     1       8.214   4.288  17.919  0.00  0.00    +0.000 OA
ATOM      6  N   UNL     1       6.666   5.575  16.845  0.00  0.00    +0.000 N 
ATOM      7  C   UNL     1       5.430   6.156  16.772  0.00  0.00    +0.000 A 
ATOM      8  O   UNL     1       5.173   7.062  15.978  0.00  0.00    +0.000 OA
ATOM      9  H   UNL     1       6.349   3.534  19.276  0.00  0.00    +0.000 HD
ENDROOT
BRANCH   1  11
ATOM     10  O   UNL     1       1.957   5.689  17.736  0.00  0.00    +0.000 OA
ATOM     11  C   UNL     1       3.014   6.314  17.737  0.00  0.00    +0.000 C 
ATOM     12  N   UNL     1       3.021   7.694  17.794  0.00  0.00    +0.000 N 
ATOM     13  H   UNL     1       3.896   8.164  18.033  0.00  0.00    +0.000 HD
BRANCH  12  14
ATOM     14  C   UNL     1       1.826   8.512  17.830  0.00  0.00    +0.000 C 
BRANCH  14  15
ATOM     15  C   UNL     1       1.467   8.874  19.255  0.00  0.00    +0.000 A 
ATOM     16  C   UNL     1       0.946  10.138  19.577  0.00  0.00    +0.000 A 
ATOM     17  C   UNL     1       0.708  10.493  20.909  0.00  0.00    +0.000 A 
ATOM     18  C   UNL     1       0.983   9.589  21.934  0.00  0.00    +0.000 A 
ATOM     19  C   UNL     1       1.467   8.319  21.626  0.00  0.00    +0.000 A 
ATOM     20  C   UNL     1       1.707   7.964  20.297  0.00  0.00    +0.000 A 
ENDBRANCH  14  15
ENDBRANCH  12  14
ENDBRANCH   1  11
BRANCH   2  21
ATOM     21  N   UNL     1       3.951   3.941  19.511  0.00  0.00    +0.000 N 
ATOM     22  H   UNL     1       4.456   3.748  20.372  0.00  0.00    +0.000 HD
BRANCH  21  23
ATOM     23  C   UNL     1       3.047   2.843  19.113  0.00  0.00    +0.000 C 
ATOM     24  C   UNL     1       2.938   2.323  17.704  0.00  0.00    +0.000 C 
ATOM     25  C   UNL     1       3.598   1.475  18.741  0.00  0.00    +0.000 C 
ENDBRANCH  21  23
ENDBRANCH   2  21
BRANCH   6  26
ATOM     26  O   UNL     1       7.669   6.061  15.975  0.00  0.00    +0.000 OA
ATOM     27  H   UNL     1       7.246   5.967  15.098  0.00  0.00    +0.000 HD
ENDBRANCH   6  26
TORSDOF 6
ENDMDL
