MODEL 1
REMARK VINA RESULT:      -7.5      0.000      0.000
REMARK  Name = 
REMARK  7 active torsions:
REMARK  status: ('A' for Active; 'I' for Inactive)
REMARK    1  A    between atoms: C_1  and  C_2
REMARK    2  A    between atoms: C_2  and  O_3
REMARK    3  A    between atoms: O_3  and  C_4
REMARK    4  A    between atoms: C_10  and  O_11
REMARK    5  A    between atoms: C_14  and  C_15
REMARK    6  A    between atoms: C_14  and  C_16
REMARK    7  A    between atoms: C_20  and  C_21
REMARK                            x       y       z     vdW  Elec       q    Type
REMARK                         _______ _______ _______ _____ _____    ______ ____
ROOT
ATOM      1  C   UNL     1       4.920   6.453  16.306  0.00  0.00    +0.000 C 
ATOM      2  O   UNL     1       5.326   5.352  15.513  0.00  0.00    +0.000 OA
ATOM      3  C   UNL     1       5.285   4.238  16.278  0.00  0.00    +0.000 C 
ATOM      4  O   UNL     1       5.675   3.134  15.913  0.00  0.00    +0.000 OA
ATOM      5  C   UNL     1       4.619   4.503  17.567  0.00  0.00    +0.000 C 
ATOM      6  C   UNL     1       4.492   5.837  17.575  0.00  0.00    +0.000 C 
ATOM      7  C   UNL     1       3.784   6.664  18.571  0.00  0.00    +0.000 C 
ATOM      8  C   UNL     1       3.386   5.846  19.773  0.00  0.00    +0.000 C 
ATOM      9  C   UNL     1       3.088   4.338  19.478  0.00  0.00    +0.000 C 
ATOM     10  C   UNL     1       1.852   3.605  20.122  0.00  0.00    +0.000 C 
ATOM     11  C   UNL     1       0.701   4.613  20.232  0.00  0.00    +0.000 C 
ATOM     12  C   UNL     1       1.146   2.358  19.502  0.00  0.00    +0.000 C 
ATOM     13  C   UNL     1       2.544   2.989  21.347  0.00  0.00    +0.000 C 
ATOM     14  C   UNL     1       3.768   2.088  20.821  0.00  0.00    +0.000 C 
ATOM     15  C   UNL     1       4.438   2.347  19.321  0.00  0.00    +0.000 C 
ATOM     16  C   UNL     1       3.807   3.511  18.396  0.00  0.00    +0.000 C 
ATOM     17  C   UNL     1       2.871   2.865  17.329  0.00  0.00    +0.000 C 
ENDROOT
BRANCH   7  18
ATOM     18  O   UNL     1       2.630   7.221  17.967  0.00  0.00    +0.000 OA
ATOM     19  H   UNL     1       2.802   7.328  17.016  0.00  0.00    +0.000 HD
ENDBRANCH   7  18
BRANCH   1  20
ATOM     20  O   UNL     1       5.983   7.364  16.514  0.00  0.00    +0.000 OA
BRANCH  20  22
ATOM     21  C   UNL     1       7.885   7.698  17.924  0.00  0.00    +0.000 C 
ATOM     22  C   UNL     1       7.091   6.690  17.121  0.00  0.00    +0.000 C 
ENDBRANCH  20  22
ENDBRANCH   1  20
TORSDOF 3
ENDMDL
MODEL 2
REMARK VINA RESULT:      -7.4      1.450      3.024
REMARK  Name = 
REMARK  7 active torsions:
REMARK  status: ('A' for Active; 'I' for Inactive)
REMARK    1  A    between atoms: C_1  and  C_2
REMARK    2  A    between atoms: C_2  and  O_3
REMARK    3  A    between atoms: O_3  and  C_4
REMARK    4  A    between atoms: C_10  and  O_11
REMARK    5  A    between atoms: C_14  and  C_15
REMARK    6  A    between atoms: C_14  and  C_16
REMARK    7  A    between atoms: C_20  and  C_21
REMARK                            x       y       z     vdW  Elec       q    Type
REMARK                         _______ _______ _______ _____ _____    ______ ____
ROOT
ATOM      1  C   UNL     1       5.346   6.951  17.731  0.00  0.00    +0.000 C 
ATOM      2  O   UNL     1       4.286   7.890  17.752  0.00  0.00    +0.000 OA
ATOM      3  C   UNL     1       3.119   7.213  17.821  0.00  0.00    +0.000 C 
ATOM      4  O   UNL     1       2.011   7.735  17.754  0.00  0.00    +0.000 OA
ATOM      5  C   UNL     1       3.350   5.781  18.088  0.00  0.00    +0.000 C 
ATOM      6  C   UNL     1       4.677   5.655  17.948  0.00  0.00    +0.000 C 
ATOM      7  C   UNL     1       5.498   4.459  18.218  0.00  0.00    +0.000 C 
ATOM      8  C   UNL     1       4.633   3.249  18.462  0.00  0.00    +0.000 C 
ATOM      9  C   UNL     1       3.240   3.552  19.110  0.00  0.00    +0.000 C 
ATOM     10  C   UNL     1       2.664   2.656  20.270  0.00  0.00    +0.000 C 
ATOM     11  C   UNL     1       3.836   2.188  21.141  0.00  0.00    +0.000 C 
ATOM     12  C   UNL     1       1.633   3.149  21.333  0.00  0.00    +0.000 C 
ATOM     13  C   UNL     1       1.807   1.694  19.434  0.00  0.00    +0.000 C 
ATOM     14  C   UNL     1       0.773   2.576  18.574  0.00  0.00    +0.000 C 
ATOM     15  C   UNL     1       1.076   4.179  18.252  0.00  0.00    +0.000 C 
ATOM     16  C   UNL     1       2.427   4.833  18.851  0.00  0.00    +0.000 C 
ATOM     17  C   UNL     1       2.073   5.659  20.126  0.00  0.00    +0.000 C 
ENDROOT
BRANCH   7  18
ATOM     18  O   UNL     1       6.308   4.707  19.353  0.00  0.00    +0.000 OA
ATOM     19  H   UNL     1       7.237   4.570  19.104  0.00  0.00    +0.000 HD
ENDBRANCH   7  18
BRANCH   1  20
ATOM     20  O   UNL     1       6.033   6.970  16.493  0.00  0.00    +0.000 OA
BRANCH  20  22
ATOM     21  C   UNL     1       7.821   7.892  17.787  0.00  0.00    +0.000 C 
ATOM     22  C   UNL     1       7.445   6.887  16.718  0.00  0.00    +0.000 C 
ENDBRANCH  20  22
ENDBRANCH   1  20
TORSDOF 3
ENDMDL
MODEL 3
REMARK VINA RESULT:      -7.3      1.332      3.280
REMARK  Name = 
REMARK  7 active torsions:
REMARK  status: ('A' for Active; 'I' for Inactive)
REMARK    1  A    between atoms: C_1  and  C_2
REMARK    2  A    between atoms: C_2  and  O_3
REMARK    3  A    between atoms: O_3  and  C_4
REMARK    4  A    between atoms: C_10  and  O_11
REMARK    5  A    between atoms: C_14  and  C_15
REMARK    6  A    between atoms: C_14  and  C_16
REMARK    7  A    between atoms: C_20  and  C_21
REMARK                            x       y       z     vdW  Elec       q    Type
REMARK                         _______ _______ _______ _____ _____    ______ ____
ROOT
ATOM      1  C   UNL     1       5.496   6.356  16.786  0.00  0.00    +0.000 C 
ATOM      2  O   UNL     1       4.699   7.491  17.079  0.00  0.00    +0.000 OA
ATOM      3  C   UNL     1       3.497   7.062  17.523  0.00  0.00    +0.000 C 
ATOM      4  O   UNL     1       2.547   7.799  17.765  0.00  0.00    +0.000 OA
ATOM      5  C   UNL     1       3.510   5.610  17.775  0.00  0.00    +0.000 C 
ATOM      6  C   UNL     1       4.681   5.220  17.252  0.00  0.00    +0.000 C 
ATOM      7  C   UNL     1       5.292   3.879  17.320  0.00  0.00    +0.000 C 
ATOM      8  C   UNL     1       4.319   2.865  17.867  0.00  0.00    +0.000 C 
ATOM      9  C   UNL     1       3.275   3.433  18.885  0.00  0.00    +0.000 C 
ATOM     10  C   UNL     1       2.910   2.654  20.204  0.00  0.00    +0.000 C 
ATOM     11  C   UNL     1       4.173   1.944  20.707  0.00  0.00    +0.000 C 
ATOM     12  C   UNL     1       2.365   3.328  21.502  0.00  0.00    +0.000 C 
ATOM     13  C   UNL     1       1.668   1.899  19.706  0.00  0.00    +0.000 C 
ATOM     14  C   UNL     1       0.619   2.985  19.153  0.00  0.00    +0.000 C 
ATOM     15  C   UNL     1       1.122   4.499  18.683  0.00  0.00    +0.000 C 
ATOM     16  C   UNL     1       2.691   4.856  18.821  0.00  0.00    +0.000 C 
ATOM     17  C   UNL     1       2.908   5.716  20.104  0.00  0.00    +0.000 C 
ENDROOT
BRANCH   7  18
ATOM     18  O   UNL     1       6.438   3.940  18.150  0.00  0.00    +0.000 OA
ATOM     19  H   UNL     1       6.519   3.096  18.625  0.00  0.00    +0.000 HD
ENDBRANCH   7  18
BRANCH   1  20
ATOM     20  O   UNL     1       5.768   6.256  15.400  0.00  0.00    +0.000 OA
BRANCH  20  22
ATOM     21  C   UNL     1       6.645   4.485  14.053  0.00  0.00    +0.000 C 
ATOM     22  C   UNL     1       6.929   5.445  15.189  0.00  0.00    +0.000 C 
ENDBRANCH  20  22
ENDBRANCH   1  20
TORSDOF 3
ENDMDL
MODEL 4
REMARK VINA RESULT:      -7.1      1.811      3.766
REMARK  Name = 
REMARK  7 active torsions:
REMARK  status: ('A' for Active; 'I' for Inactive)
REMARK    1  A    between atoms: C_1  and  C_2
REMARK    2  A    between atoms: C_2  and  O_3
REMARK    3  A    between atoms: O_3  and  C_4
REMARK    4  A    between atoms: C_10  and  O_11
REMARK    5  A    between atoms: C_14  and  C_15
REMARK    6  A    between atoms: C_14  and  C_16
REMARK    7  A    between atoms: C_20  and  C_21
REMARK                            x       y       z     vdW  Elec       q    Type
REMARK                         _______ _______ _______ _____ _____    ______ ____
ROOT
ATOM      1  C   UNL     1       7.052   5.217  15.365  0.00  0.00    +0.000 C 
ATOM      2  O   UNL     1       7.599   6.260  16.151  0.00  0.00    +0.000 OA
ATOM      3  C   UNL     1       6.660   6.663  17.035  0.00  0.00    +0.000 C 
ATOM      4  O   UNL     1       6.788   7.620  17.792  0.00  0.00    +0.000 OA
ATOM      5  C   UNL     1       5.506   5.745  17.042  0.00  0.00    +0.000 C 
ATOM      6  C   UNL     1       5.742   4.953  15.987  0.00  0.00    +0.000 C 
ATOM      7  C   UNL     1       4.977   3.761  15.571  0.00  0.00    +0.000 C 
ATOM      8  C   UNL     1       3.695   3.637  16.354  0.00  0.00    +0.000 C 
ATOM      9  C   UNL     1       3.751   4.211  17.810  0.00  0.00    +0.000 C 
ATOM     10  C   UNL     1       3.111   3.435  19.021  0.00  0.00    +0.000 C 
ATOM     11  C   UNL     1       3.289   1.931  18.776  0.00  0.00    +0.000 C 
ATOM     12  C   UNL     1       3.569   3.587  20.506  0.00  0.00    +0.000 C 
ATOM     13  C   UNL     1       1.737   4.120  19.052  0.00  0.00    +0.000 C 
ATOM     14  C   UNL     1       1.978   5.703  19.209  0.00  0.00    +0.000 C 
ATOM     15  C   UNL     1       3.429   6.393  18.781  0.00  0.00    +0.000 C 
ATOM     16  C   UNL     1       4.599   5.426  18.228  0.00  0.00    +0.000 C 
ATOM     17  C   UNL     1       5.622   5.154  19.373  0.00  0.00    +0.000 C 
ENDROOT
BRANCH   7  18
ATOM     18  O   UNL     1       5.777   2.610  15.776  0.00  0.00    +0.000 OA
ATOM     19  H   UNL     1       5.276   1.831  15.483  0.00  0.00    +0.000 HD
ENDBRANCH   7  18
BRANCH   1  20
ATOM     20  O   UNL     1       6.905   5.608  14.012  0.00  0.00    +0.000 OA
BRANCH  20  22
ATOM     21  C   UNL     1       6.645   3.864  12.396  0.00  0.00    +0.000 C 
ATOM     22  C   UNL     1       7.635   4.714  13.164  0.00  0.00    +0.000 C 
ENDBRANCH  20  22
ENDBRANCH   1  20
TORSDOF 3
ENDMDL
MODEL 5
REMARK VINA RESULT:      -7.1      1.508      1.930
REMARK  Name = 
REMARK  7 active torsions:
REMARK  status: ('A' for Active; 'I' for Inactive)
REMARK    1  A    between atoms: C_1  and  C_2
REMARK    2  A    between atoms: C_2  and  O_3
REMARK    3  A    between atoms: O_3  and  C_4
REMARK    4  A    between atoms: C_10  and  O_11
REMARK    5  A    between atoms: C_14  and  C_15
REMARK    6  A    between atoms: C_14  and  C_16
REMARK    7  A    between atoms: C_20  and  C_21
REMARK                            x       y       z     vdW  Elec       q    Type
REMARK                         _______ _______ _______ _____ _____    ______ ____
ROOT
ATOM      1  C   UNL     1       6.448   7.230  17.124  0.00  0.00    +0.000 C 
ATOM      2  O   UNL     1       7.492   6.278  17.019  0.00  0.00    +0.000 OA
ATOM      3  C   UNL     1       7.147   5.189  17.740  0.00  0.00    +0.000 C 
ATOM      4  O   UNL     1       7.883   4.227  17.934  0.00  0.00    +0.000 OA
ATOM      5  C   UNL     1       5.741   5.262  18.177  0.00  0.00    +0.000 C 
ATOM      6  C   UNL     1       5.390   6.517  17.862  0.00  0.00    +0.000 C 
ATOM      7  C   UNL     1       4.048   7.124  17.959  0.00  0.00    +0.000 C 
ATOM      8  C   UNL     1       3.096   6.224  18.704  0.00  0.00    +0.000 C 
ATOM      9  C   UNL     1       3.384   4.692  18.559  0.00  0.00    +0.000 C 
ATOM     10  C   UNL     1       2.220   3.658  18.325  0.00  0.00    +0.000 C 
ATOM     11  C   UNL     1       1.150   4.330  17.455  0.00  0.00    +0.000 C 
ATOM     12  C   UNL     1       2.398   2.274  17.627  0.00  0.00    +0.000 C 
ATOM     13  C   UNL     1       1.970   3.237  19.781  0.00  0.00    +0.000 C 
ATOM     14  C   UNL     1       3.358   2.691  20.381  0.00  0.00    +0.000 C 
ATOM     15  C   UNL     1       4.813   3.124  19.703  0.00  0.00    +0.000 C 
ATOM     16  C   UNL     1       4.792   4.088  18.407  0.00  0.00    +0.000 C 
ATOM     17  C   UNL     1       5.005   3.226  17.125  0.00  0.00    +0.000 C 
ENDROOT
BRANCH   7  18
ATOM     18  O   UNL     1       3.559   7.364  16.652  0.00  0.00    +0.000 OA
ATOM     19  H   UNL     1       3.308   8.301  16.584  0.00  0.00    +0.000 HD
ENDBRANCH   7  18
BRANCH   1  20
ATOM     20  O   UNL     1       6.868   8.387  17.825  0.00  0.00    +0.000 OA
BRANCH  20  22
ATOM     21  C   UNL     1       8.727   9.806  18.327  0.00  0.00    +0.000 C 
ATOM     22  C   UNL     1       8.298   8.417  17.902  0.00  0.00    +0.000 C 
ENDBRANCH  20  22
ENDBRANCH   1  20
TORSDOF 3
ENDMDL
MODEL 6
REMARK VINA RESULT:      -7.0      2.120      5.577
REMARK  Name = 
REMARK  7 active torsions:
REMARK  status: ('A' for Active; 'I' for Inactive)
REMARK    1  A    between atoms: C_1  and  C_2
REMARK    2  A    between atoms: C_2  and  O_3
REMARK    3  A    between atoms: O_3  and  C_4
REMARK    4  A    between atoms: C_10  and  O_11
REMARK    5  A    between atoms: C_14  and  C_15
REMARK    6  A    between atoms: C_14  and  C_16
REMARK    7  A    between atoms: C_20  and  C_21
REMARK                            x       y       z     vdW  Elec       q    Type
REMARK                         _______ _______ _______ _____ _____    ______ ____
ROOT
ATOM      1  C   UNL     1       1.211   3.780  19.154  0.00  0.00    +0.000 C 
ATOM      2  O   UNL     1       1.118   5.018  19.837  0.00  0.00    +0.000 OA
ATOM      3  C   UNL     1       2.352   5.565  19.895  0.00  0.00    +0.000 C 
ATOM      4  O   UNL     1       2.627   6.590  20.510  0.00  0.00    +0.000 OA
ATOM      5  C   UNL     1       3.302   4.827  19.042  0.00  0.00    +0.000 C 
ATOM      6  C   UNL     1       2.608   3.736  18.687  0.00  0.00    +0.000 C 
ATOM      7  C   UNL     1       3.013   2.687  17.732  0.00  0.00    +0.000 C 
ATOM      8  C   UNL     1       4.459   2.840  17.336  0.00  0.00    +0.000 C 
ATOM      9  C   UNL     1       4.994   4.311  17.340  0.00  0.00    +0.000 C 
ATOM     10  C   UNL     1       5.909   4.853  16.179  0.00  0.00    +0.000 C 
ATOM     11  C   UNL     1       5.458   4.198  14.867  0.00  0.00    +0.000 C 
ATOM     12  C   UNL     1       6.025   6.357  15.779  0.00  0.00    +0.000 C 
ATOM     13  C   UNL     1       7.285   4.597  16.812  0.00  0.00    +0.000 C 
ATOM     14  C   UNL     1       7.327   5.359  18.227  0.00  0.00    +0.000 C 
ATOM     15  C   UNL     1       5.924   5.769  19.020  0.00  0.00    +0.000 C 
ATOM     16  C   UNL     1       4.517   5.401  18.317  0.00  0.00    +0.000 C 
ATOM     17  C   UNL     1       3.934   6.681  17.642  0.00  0.00    +0.000 C 
ENDROOT
BRANCH   7  18
ATOM     18  O   UNL     1       2.190   2.773  16.582  0.00  0.00    +0.000 OA
ATOM     19  H   UNL     1       1.844   3.679  16.518  0.00  0.00    +0.000 HD
ENDBRANCH   7  18
BRANCH   1  20
ATOM     20  O   UNL     1       0.925   2.690  20.013  0.00  0.00    +0.000 OA
BRANCH  20  22
ATOM     21  C   UNL     1       2.533   2.398  21.758  0.00  0.00    +0.000 C 
ATOM     22  C   UNL     1       1.222   3.047  21.367  0.00  0.00    +0.000 C 
ENDBRANCH  20  22
ENDBRANCH   1  20
TORSDOF 3
ENDMDL
MODEL 7
REMARK VINA RESULT:      -6.7      1.717      3.054
REMARK  Name = 
REMARK  7 active torsions:
REMARK  status: ('A' for Active; 'I' for Inactive)
REMARK    1  A    between atoms: C_1  and  C_2
REMARK    2  A    between atoms: C_2  and  O_3
REMARK    3  A    between atoms: O_3  and  C_4
REMARK    4  A    between atoms: C_10  and  O_11
REMARK    5  A    between atoms: C_14  and  C_15
REMARK    6  A    between atoms: C_14  and  C_16
REMARK    7  A    between atoms: C_20  and  C_21
REMARK                            x       y       z     vdW  Elec       q    Type
REMARK                         _______ _______ _______ _____ _____    ______ ____
ROOT
ATOM      1  C   UNL     1       6.631   6.154  17.511  0.00  0.00    +0.000 C 
ATOM      2  O   UNL     1       5.955   7.186  16.815  0.00  0.00    +0.000 OA
ATOM      3  C   UNL     1       4.655   6.837  16.693  0.00  0.00    +0.000 C 
ATOM      4  O   UNL     1       3.825   7.472  16.051  0.00  0.00    +0.000 OA
ATOM      5  C   UNL     1       4.344   5.651  17.513  0.00  0.00    +0.000 C 
ATOM      6  C   UNL     1       5.552   5.234  17.915  0.00  0.00    +0.000 C 
ATOM      7  C   UNL     1       5.855   4.147  18.867  0.00  0.00    +0.000 C 
ATOM      8  C   UNL     1       4.618   3.350  19.194  0.00  0.00    +0.000 C 
ATOM      9  C   UNL     1       3.278   4.158  19.144  0.00  0.00    +0.000 C 
ATOM     10  C   UNL     1       2.175   3.985  20.255  0.00  0.00    +0.000 C 
ATOM     11  C   UNL     1       2.879   3.737  21.595  0.00  0.00    +0.000 C 
ATOM     12  C   UNL     1       1.122   5.075  20.627  0.00  0.00    +0.000 C 
ATOM     13  C   UNL     1       1.296   2.931  19.564  0.00  0.00    +0.000 C 
ATOM     14  C   UNL     1       0.848   3.522  18.137  0.00  0.00    +0.000 C 
ATOM     15  C   UNL     1       1.715   4.736  17.402  0.00  0.00    +0.000 C 
ATOM     16  C   UNL     1       3.007   5.323  18.174  0.00  0.00    +0.000 C 
ATOM     17  C   UNL     1       2.625   6.673  18.855  0.00  0.00    +0.000 C 
ENDROOT
BRANCH   7  18
ATOM     18  O   UNL     1       6.389   4.712  20.051  0.00  0.00    +0.000 OA
ATOM     19  H   UNL     1       5.651   4.975  20.626  0.00  0.00    +0.000 HD
ENDBRANCH   7  18
BRANCH   1  20
ATOM     20  O   UNL     1       7.576   5.501  16.683  0.00  0.00    +0.000 OA
BRANCH  20  22
ATOM     21  C   UNL     1       7.072   4.882  14.428  0.00  0.00    +0.000 C 
ATOM     22  C   UNL     1       6.921   4.506  15.887  0.00  0.00    +0.000 C 
ENDBRANCH  20  22
ENDBRANCH   1  20
TORSDOF 3
ENDMDL
MODEL 8
REMARK VINA RESULT:      -6.7      2.165      5.333
REMARK  Name = 
REMARK  7 active torsions:
REMARK  status: ('A' for Active; 'I' for Inactive)
REMARK    1  A    between atoms: C_1  and  C_2
REMARK    2  A    between atoms: C_2  and  O_3
REMARK    3  A    between atoms: O_3  and  C_4
REMARK    4  A    between atoms: C_10  and  O_11
REMARK    5  A    between atoms: C_14  and  C_15
REMARK    6  A    between atoms: C_14  and  C_16
REMARK    7  A    between atoms: C_20  and  C_21
REMARK                            x       y       z     vdW  Elec       q    Type
REMARK                         _______ _______ _______ _____ _____    ______ ____
ROOT
ATOM      1  C   UNL     1       2.506   4.006  20.903  0.00  0.00    +0.000 C 
ATOM      2  O   UNL     1       3.365   2.903  21.133  0.00  0.00    +0.000 OA
ATOM      3  C   UNL     1       4.098   2.695  20.016  0.00  0.00    +0.000 C 
ATOM      4  O   UNL     1       4.864   1.750  19.858  0.00  0.00    +0.000 OA
ATOM      5  C   UNL     1       3.932   3.802  19.057  0.00  0.00    +0.000 C 
ATOM      6  C   UNL     1       2.925   4.513  19.584  0.00  0.00    +0.000 C 
ATOM      7  C   UNL     1       2.401   5.810  19.114  0.00  0.00    +0.000 C 
ATOM      8  C   UNL     1       2.983   6.178  17.773  0.00  0.00    +0.000 C 
ATOM      9  C   UNL     1       4.429   5.642  17.509  0.00  0.00    +0.000 C 
ATOM     10  C   UNL     1       5.532   6.549  16.846  0.00  0.00    +0.000 C 
ATOM     11  C   UNL     1       5.317   7.991  17.323  0.00  0.00    +0.000 C 
ATOM     12  C   UNL     1       7.068   6.356  17.044  0.00  0.00    +0.000 C 
ATOM     13  C   UNL     1       5.355   6.118  15.382  0.00  0.00    +0.000 C 
ATOM     14  C   UNL     1       5.545   4.522  15.312  0.00  0.00    +0.000 C 
ATOM     15  C   UNL     1       5.339   3.576  16.663  0.00  0.00    +0.000 C 
ATOM     16  C   UNL     1       4.968   4.307  18.055  0.00  0.00    +0.000 C 
ATOM     17  C   UNL     1       6.255   4.423  18.930  0.00  0.00    +0.000 C 
ENDROOT
BRANCH   7  18
ATOM     18  O   UNL     1       2.724   6.806  20.067  0.00  0.00    +0.000 OA
ATOM     19  H   UNL     1       3.654   7.062  19.942  0.00  0.00    +0.000 HD
ENDBRANCH   7  18
BRANCH   1  20
ATOM     20  O   UNL     1       1.146   3.612  20.890  0.00  0.00    +0.000 OA
BRANCH  20  22
ATOM     21  C   UNL     1       0.479   2.552  18.853  0.00  0.00    +0.000 C 
ATOM     22  C   UNL     1       1.015   2.336  20.253  0.00  0.00    +0.000 C 
ENDBRANCH  20  22
ENDBRANCH   1  20
TORSDOF 3
ENDMDL
MODEL 9
REMARK VINA RESULT:      -6.5      1.834      2.913
REMARK  Name = 
REMARK  7 active torsions:
REMARK  status: ('A' for Active; 'I' for Inactive)
REMARK    1  A    between atoms: C_1  and  C_2
REMARK    2  A    between atoms: C_2  and  O_3
REMARK    3  A    between atoms: O_3  and  C_4
REMARK    4  A    between atoms: C_10  and  O_11
REMARK    5  A    between atoms: C_14  and  C_15
REMARK    6  A    between atoms: C_14  and  C_16
REMARK    7  A    between atoms: C_20  and  C_21
REMARK                            x       y       z     vdW  Elec       q    Type
REMARK                         _______ _______ _______ _____ _____    ______ ____
ROOT
ATOM      1  C   UNL     1       7.301   6.591  17.348  0.00  0.00    +0.000 C 
ATOM      2  O   UNL     1       8.018   6.044  18.441  0.00  0.00    +0.000 OA
ATOM      3  C   UNL     1       7.127   5.614  19.362  0.00  0.00    +0.000 C 
ATOM      4  O   UNL     1       7.430   5.182  20.469  0.00  0.00    +0.000 OA
ATOM      5  C   UNL     1       5.754   5.639  18.825  0.00  0.00    +0.000 C 
ATOM      6  C   UNL     1       5.892   6.296  17.665  0.00  0.00    +0.000 C 
ATOM      7  C   UNL     1       4.862   6.516  16.631  0.00  0.00    +0.000 C 
ATOM      8  C   UNL     1       3.498   6.110  17.126  0.00  0.00    +0.000 C 
ATOM      9  C   UNL     1       3.493   4.941  18.168  0.00  0.00    +0.000 C 
ATOM     10  C   UNL     1       2.444   3.770  18.082  0.00  0.00    +0.000 C 
ATOM     11  C   UNL     1       2.163   3.486  16.601  0.00  0.00    +0.000 C 
ATOM     12  C   UNL     1       2.673   2.339  18.660  0.00  0.00    +0.000 C 
ATOM     13  C   UNL     1       1.382   4.323  19.044  0.00  0.00    +0.000 C 
ATOM     14  C   UNL     1       2.094   4.599  20.459  0.00  0.00    +0.000 C 
ATOM     15  C   UNL     1       3.740   4.810  20.563  0.00  0.00    +0.000 C 
ATOM     16  C   UNL     1       4.607   4.703  19.204  0.00  0.00    +0.000 C 
ATOM     17  C   UNL     1       5.281   3.298  19.137  0.00  0.00    +0.000 C 
ENDROOT
BRANCH   7  18
ATOM     18  O   UNL     1       5.200   5.762  15.481  0.00  0.00    +0.000 OA
ATOM     19  H   UNL     1       6.110   5.434  15.584  0.00  0.00    +0.000 HD
ENDBRANCH   7  18
BRANCH   1  20
ATOM     20  O   UNL     1       7.516   7.986  17.231  0.00  0.00    +0.000 OA
BRANCH  20  22
ATOM     21  C   UNL     1       8.572   9.930  18.140  0.00  0.00    +0.000 C 
ATOM     22  C   UNL     1       8.400   8.431  18.266  0.00  0.00    +0.000 C 
ENDBRANCH  20  22
ENDBRANCH   1  20
TORSDOF 3
ENDMDL
