MODEL 1
REMARK VINA RESULT:      -7.6      0.000      0.000
REMARK  Name = 
REMARK  11 active torsions:
REMARK  status: ('A' for Active; 'I' for Inactive)
REMARK    1  A    between atoms: N_1  and  C_2
REMARK    2  A    between atoms: C_2  and  C_3
REMARK    3  A    between atoms: C_3  and  C_4
REMARK    4  A    between atoms: C_4  and  C_5
REMARK    5  A    between atoms: C_5  and  C_6
REMARK    6  A    between atoms: N_9  and  C_10
REMARK    7  A    between atoms: C_10  and  C_11
REMARK    8  A    between atoms: C_10  and  C_18
REMARK    9  A    between atoms: C_11  and  C_12
REMARK   10  A    between atoms: N_23  and  C_24
REMARK   11  A    between atoms: C_24  and  C_25
REMARK                            x       y       z     vdW  Elec       q    Type
REMARK                         _______ _______ _______ _____ _____    ______ ____
ROOT
ATOM      1  C   UNL     1       2.808   5.897  18.844  0.00  0.00    +0.000 C 
ATOM      2  C   UNL     1       2.013   6.736  19.861  0.00  0.00    +0.000 C 
ATOM      3  O   UNL     1       1.430   6.239  20.820  0.00  0.00    +0.000 OA
ATOM      4  N   UNL     1       2.003   8.060  19.485  0.00  0.00    +0.000 N 
ATOM      5  C   UNL     1       2.506   8.122  18.217  0.00  0.00    +0.000 C 
ATOM      6  O   UNL     1       2.447   9.074  17.450  0.00  0.00    +0.000 OA
ATOM      7  N   UNL     1       3.149   6.943  17.915  0.00  0.00    +0.000 N 
ENDROOT
BRANCH   1   8
ATOM      8  C   UNL     1       1.880   4.831  18.232  0.00  0.00    +0.000 C 
BRANCH   8   9
ATOM      9  C   UNL     1       2.517   3.445  18.067  0.00  0.00    +0.000 C 
BRANCH   9  10
ATOM     10  C   UNL     1       1.757   2.362  18.840  0.00  0.00    +0.000 C 
BRANCH  10  11
ATOM     11  C   UNL     1       0.634   2.930  19.716  0.00  0.00    +0.000 C 
BRANCH  11  12
ATOM     12  N   UNL     1       1.042   3.053  21.109  0.00  0.00    +0.000 NA
ATOM     13  H   UNL     1       0.961   2.143  21.564  0.00  0.00    +0.000 HD
ATOM     14  H   UNL     1       0.390   3.668  21.604  0.00  0.00    +0.000 HD
ENDBRANCH  11  12
ENDBRANCH  10  11
ENDBRANCH   9  10
ENDBRANCH   8   9
ENDBRANCH   1   8
BRANCH   4  15
ATOM     15  C   UNL     1       1.120   9.102  20.063  0.00  0.00    +0.000 C 
BRANCH  15  16
ATOM     16  C   UNL     1       0.881   9.134  21.604  0.00  0.00    +0.000 C 
ATOM     17  N   UNL     1      -0.295   8.685  22.122  0.00  0.00    +0.000 N 
ATOM     18  O   UNL     1       1.708   9.613  22.384  0.00  0.00    +0.000 OA
ATOM     19  H   UNL     1      -0.668   7.825  21.724  0.00  0.00    +0.000 HD
ATOM     20  H   UNL     1      -0.323   8.696  23.134  0.00  0.00    +0.000 HD
ENDBRANCH  15  16
BRANCH  15  21
ATOM     21  C   UNL     1      -0.290   9.227  19.397  0.00  0.00    +0.000 C 
BRANCH  21  22
ATOM     22  C   UNL     1      -0.466  10.287  18.273  0.00  0.00    +0.000 C 
ATOM     23  C   UNL     1      -1.569   9.994  17.241  0.00  0.00    +0.000 C 
ATOM     24  C   UNL     1      -2.983  10.137  17.801  0.00  0.00    +0.000 C 
ATOM     25  C   UNL     1      -3.201  11.527  18.386  0.00  0.00    +0.000 C 
ATOM     26  C   UNL     1      -2.142  11.860  19.432  0.00  0.00    +0.000 C 
ATOM     27  C   UNL     1      -0.724  11.687  18.877  0.00  0.00    +0.000 C 
ENDBRANCH  21  22
ENDBRANCH  15  21
ENDBRANCH   4  15
BRANCH   7  28
ATOM     28  C   UNL     1       4.237   6.871  16.957  0.00  0.00    +0.000 C 
BRANCH  28  29
ATOM     29  C   UNL     1       5.581   6.632  17.605  0.00  0.00    +0.000 A 
ATOM     30  C   UNL     1       6.659   7.495  17.355  0.00  0.00    +0.000 A 
ATOM     31  C   UNL     1       7.882   7.306  17.999  0.00  0.00    +0.000 A 
ATOM     32  C   UNL     1       8.041   6.252  18.897  0.00  0.00    +0.000 A 
ATOM     33  C   UNL     1       6.983   5.377  19.139  0.00  0.00    +0.000 A 
ATOM     34  C   UNL     1       5.762   5.560  18.490  0.00  0.00    +0.000 A 
ENDBRANCH  28  29
ENDBRANCH   7  28
TORSDOF 11
ENDMDL
MODEL 2
REMARK VINA RESULT:      -7.5      1.275      1.580
REMARK  Name = 
REMARK  11 active torsions:
REMARK  status: ('A' for Active; 'I' for Inactive)
REMARK    1  A    between atoms: N_1  and  C_2
REMARK    2  A    between atoms: C_2  and  C_3
REMARK    3  A    between atoms: C_3  and  C_4
REMARK    4  A    between atoms: C_4  and  C_5
REMARK    5  A    between atoms: C_5  and  C_6
REMARK    6  A    between atoms: N_9  and  C_10
REMARK    7  A    between atoms: C_10  and  C_11
REMARK    8  A    between atoms: C_10  and  C_18
REMARK    9  A    between atoms: C_11  and  C_12
REMARK   10  A    between atoms: N_23  and  C_24
REMARK   11  A    between atoms: C_24  and  C_25
REMARK                            x       y       z     vdW  Elec       q    Type
REMARK                         _______ _______ _______ _____ _____    ______ ____
ROOT
ATOM      1  C   UNL     1       2.939   6.284  18.703  0.00  0.00    +0.000 C 
ATOM      2  C   UNL     1       2.113   7.052  19.753  0.00  0.00    +0.000 C 
ATOM      3  O   UNL     1       1.614   6.507  20.733  0.00  0.00    +0.000 OA
ATOM      4  N   UNL     1       1.972   8.369  19.380  0.00  0.00    +0.000 N 
ATOM      5  C   UNL     1       2.417   8.474  18.093  0.00  0.00    +0.000 C 
ATOM      6  O   UNL     1       2.245   9.415  17.331  0.00  0.00    +0.000 OA
ATOM      7  N   UNL     1       3.149   7.355  17.764  0.00  0.00    +0.000 N 
ENDROOT
BRANCH   1   8
ATOM      8  C   UNL     1       2.085   5.140  18.126  0.00  0.00    +0.000 C 
BRANCH   8   9
ATOM      9  C   UNL     1       2.332   3.769  18.769  0.00  0.00    +0.000 C 
BRANCH   9  10
ATOM     10  C   UNL     1       2.679   2.697  17.730  0.00  0.00    +0.000 C 
BRANCH  10  11
ATOM     11  C   UNL     1       3.739   1.705  18.226  0.00  0.00    +0.000 C 
BRANCH  11  12
ATOM     12  N   UNL     1       4.617   2.303  19.222  0.00  0.00    +0.000 NA
ATOM     13  H   UNL     1       4.468   1.843  20.121  0.00  0.00    +0.000 HD
ATOM     14  H   UNL     1       4.354   3.283  19.367  0.00  0.00    +0.000 HD
ENDBRANCH  11  12
ENDBRANCH  10  11
ENDBRANCH   9  10
ENDBRANCH   8   9
ENDBRANCH   1   8
BRANCH   4  15
ATOM     15  C   UNL     1       1.024   9.330  19.994  0.00  0.00    +0.000 C 
BRANCH  15  16
ATOM     16  C   UNL     1       0.802   9.306  21.538  0.00  0.00    +0.000 C 
ATOM     17  N   UNL     1       1.846   9.052  22.373  0.00  0.00    +0.000 N 
ATOM     18  O   UNL     1      -0.314   9.456  22.040  0.00  0.00    +0.000 OA
ATOM     19  H   UNL     1       2.729   9.508  22.150  0.00  0.00    +0.000 HD
ATOM     20  H   UNL     1       1.605   9.119  23.354  0.00  0.00    +0.000 HD
ENDBRANCH  15  16
BRANCH  15  21
ATOM     21  C   UNL     1      -0.400   9.370  19.346  0.00  0.00    +0.000 C 
BRANCH  21  22
ATOM     22  C   UNL     1      -0.643  10.391  18.198  0.00  0.00    +0.000 C 
ATOM     23  C   UNL     1      -1.726  10.007  17.175  0.00  0.00    +0.000 C 
ATOM     24  C   UNL     1      -3.146  10.076  17.736  0.00  0.00    +0.000 C 
ATOM     25  C   UNL     1      -3.448  11.462  18.289  0.00  0.00    +0.000 C 
ATOM     26  C   UNL     1      -2.411  11.884  19.324  0.00  0.00    +0.000 C 
ATOM     27  C   UNL     1      -0.986  11.786  18.771  0.00  0.00    +0.000 C 
ENDBRANCH  21  22
ENDBRANCH  15  21
ENDBRANCH   4  15
BRANCH   7  28
ATOM     28  C   UNL     1       4.201   7.377  16.764  0.00  0.00    +0.000 C 
BRANCH  28  29
ATOM     29  C   UNL     1       5.310   6.392  17.049  0.00  0.00    +0.000 A 
ATOM     30  C   UNL     1       5.316   5.127  16.442  0.00  0.00    +0.000 A 
ATOM     31  C   UNL     1       6.371   4.240  16.662  0.00  0.00    +0.000 A 
ATOM     32  C   UNL     1       7.429   4.608  17.491  0.00  0.00    +0.000 A 
ATOM     33  C   UNL     1       7.424   5.855  18.114  0.00  0.00    +0.000 A 
ATOM     34  C   UNL     1       6.367   6.739  17.902  0.00  0.00    +0.000 A 
ENDBRANCH  28  29
ENDBRANCH   7  28
TORSDOF 11
ENDMDL
MODEL 3
REMARK VINA RESULT:      -7.5      1.654      3.866
REMARK  Name = 
REMARK  11 active torsions:
REMARK  status: ('A' for Active; 'I' for Inactive)
REMARK    1  A    between atoms: N_1  and  C_2
REMARK    2  A    between atoms: C_2  and  C_3
REMARK    3  A    between atoms: C_3  and  C_4
REMARK    4  A    between atoms: C_4  and  C_5
REMARK    5  A    between atoms: C_5  and  C_6
REMARK    6  A    between atoms: N_9  and  C_10
REMARK    7  A    between atoms: C_10  and  C_11
REMARK    8  A    between atoms: C_10  and  C_18
REMARK    9  A    between atoms: C_11  and  C_12
REMARK   10  A    between atoms: N_23  and  C_24
REMARK   11  A    between atoms: C_24  and  C_25
REMARK                            x       y       z     vdW  Elec       q    Type
REMARK                         _______ _______ _______ _____ _____    ______ ____
ROOT
ATOM      1  C   UNL     1       2.571   7.106  18.447  0.00  0.00    +0.000 C 
ATOM      2  C   UNL     1       1.857   8.457  18.255  0.00  0.00    +0.000 C 
ATOM      3  O   UNL     1       1.941   9.111  17.219  0.00  0.00    +0.000 OA
ATOM      4  N   UNL     1       1.208   8.824  19.412  0.00  0.00    +0.000 N 
ATOM      5  C   UNL     1       1.623   7.970  20.394  0.00  0.00    +0.000 C 
ATOM      6  O   UNL     1       1.461   8.105  21.599  0.00  0.00    +0.000 OA
ATOM      7  N   UNL     1       2.234   6.875  19.828  0.00  0.00    +0.000 N 
ENDROOT
BRANCH   1   8
ATOM      8  C   UNL     1       4.082   7.296  18.222  0.00  0.00    +0.000 C 
BRANCH   8   9
ATOM      9  C   UNL     1       4.673   6.450  17.086  0.00  0.00    +0.000 C 
BRANCH   9  10
ATOM     10  C   UNL     1       6.135   6.070  17.347  0.00  0.00    +0.000 C 
BRANCH  10  11
ATOM     11  C   UNL     1       6.522   4.724  16.725  0.00  0.00    +0.000 C 
BRANCH  11  12
ATOM     12  N   UNL     1       7.839   4.282  17.165  0.00  0.00    +0.000 NA
ATOM     13  H   UNL     1       8.043   3.372  16.751  0.00  0.00    +0.000 HD
ATOM     14  H   UNL     1       7.827   4.128  18.178  0.00  0.00    +0.000 HD
ENDBRANCH  11  12
ENDBRANCH  10  11
ENDBRANCH   9  10
ENDBRANCH   8   9
ENDBRANCH   1   8
BRANCH   4  15
ATOM     15  C   UNL     1       0.653  10.171  19.685  0.00  0.00    +0.000 C 
BRANCH  15  16
ATOM     16  C   UNL     1       0.902  10.836  21.074  0.00  0.00    +0.000 C 
ATOM     17  N   UNL     1       0.073  10.564  22.119  0.00  0.00    +0.000 N 
ATOM     18  O   UNL     1       1.804  11.657  21.254  0.00  0.00    +0.000 OA
ATOM     19  H   UNL     1      -0.207   9.592  22.237  0.00  0.00    +0.000 HD
ATOM     20  H   UNL     1       0.358  11.000  22.987  0.00  0.00    +0.000 HD
ENDBRANCH  15  16
BRANCH  15  21
ATOM     21  C   UNL     1      -0.874  10.338  19.387  0.00  0.00    +0.000 C 
BRANCH  21  22
ATOM     22  C   UNL     1      -1.280  10.922  18.004  0.00  0.00    +0.000 C 
ATOM     23  C   UNL     1      -1.937   9.934  17.024  0.00  0.00    +0.000 C 
ATOM     24  C   UNL     1      -3.351   9.521  17.431  0.00  0.00    +0.000 C 
ATOM     25  C   UNL     1      -4.251  10.739  17.592  0.00  0.00    +0.000 C 
ATOM     26  C   UNL     1      -3.652  11.745  18.570  0.00  0.00    +0.000 C 
ATOM     27  C   UNL     1      -2.224  12.135  18.178  0.00  0.00    +0.000 C 
ENDBRANCH  21  22
ENDBRANCH  15  21
ENDBRANCH   4  15
BRANCH   7  28
ATOM     28  C   UNL     1       2.265   5.576  20.476  0.00  0.00    +0.000 C 
BRANCH  28  29
ATOM     29  C   UNL     1       2.573   4.446  19.522  0.00  0.00    +0.000 A 
ATOM     30  C   UNL     1       3.833   3.829  19.527  0.00  0.00    +0.000 A 
ATOM     31  C   UNL     1       4.096   2.747  18.685  0.00  0.00    +0.000 A 
ATOM     32  C   UNL     1       3.104   2.273  17.830  0.00  0.00    +0.000 A 
ATOM     33  C   UNL     1       1.854   2.890  17.802  0.00  0.00    +0.000 A 
ATOM     34  C   UNL     1       1.592   3.977  18.637  0.00  0.00    +0.000 A 
ENDBRANCH  28  29
ENDBRANCH   7  28
TORSDOF 11
ENDMDL
MODEL 4
REMARK VINA RESULT:      -7.4      1.249      1.614
REMARK  Name = 
REMARK  11 active torsions:
REMARK  status: ('A' for Active; 'I' for Inactive)
REMARK    1  A    between atoms: N_1  and  C_2
REMARK    2  A    between atoms: C_2  and  C_3
REMARK    3  A    between atoms: C_3  and  C_4
REMARK    4  A    between atoms: C_4  and  C_5
REMARK    5  A    between atoms: C_5  and  C_6
REMARK    6  A    between atoms: N_9  and  C_10
REMARK    7  A    between atoms: C_10  and  C_11
REMARK    8  A    between atoms: C_10  and  C_18
REMARK    9  A    between atoms: C_11  and  C_12
REMARK   10  A    between atoms: N_23  and  C_24
REMARK   11  A    between atoms: C_24  and  C_25
REMARK                            x       y       z     vdW  Elec       q    Type
REMARK                         _______ _______ _______ _____ _____    ______ ____
ROOT
ATOM      1  C   UNL     1       2.578   6.483  19.485  0.00  0.00    +0.000 C 
ATOM      2  C   UNL     1       1.876   7.647  20.209  0.00  0.00    +0.000 C 
ATOM      3  O   UNL     1       1.405   7.538  21.338  0.00  0.00    +0.000 OA
ATOM      4  N   UNL     1       1.800   8.747  19.386  0.00  0.00    +0.000 N 
ATOM      5  C   UNL     1       2.167   8.339  18.135  0.00  0.00    +0.000 C 
ATOM      6  O   UNL     1       2.010   8.952  17.088  0.00  0.00    +0.000 OA
ATOM      7  N   UNL     1       2.799   7.119  18.212  0.00  0.00    +0.000 N 
ENDROOT
BRANCH   1   8
ATOM      8  C   UNL     1       1.613   5.286  19.398  0.00  0.00    +0.000 C 
BRANCH   8   9
ATOM      9  C   UNL     1       2.297   3.914  19.334  0.00  0.00    +0.000 C 
BRANCH   9  10
ATOM     10  C   UNL     1       2.392   3.380  17.900  0.00  0.00    +0.000 C 
BRANCH  10  11
ATOM     11  C   UNL     1       2.886   1.931  17.834  0.00  0.00    +0.000 C 
BRANCH  11  12
ATOM     12  N   UNL     1       4.180   1.769  18.484  0.00  0.00    +0.000 NA
ATOM     13  H   UNL     1       4.851   2.412  18.061  0.00  0.00    +0.000 HD
ATOM     14  H   UNL     1       4.542   0.830  18.295  0.00  0.00    +0.000 HD
ENDBRANCH  11  12
ENDBRANCH  10  11
ENDBRANCH   9  10
ENDBRANCH   8   9
ENDBRANCH   1   8
BRANCH   4  15
ATOM     15  C   UNL     1       0.961   9.943  19.639  0.00  0.00    +0.000 C 
BRANCH  15  16
ATOM     16  C   UNL     1       0.944  10.579  21.063  0.00  0.00    +0.000 C 
ATOM     17  N   UNL     1       0.155  10.049  22.037  0.00  0.00    +0.000 N 
ATOM     18  O   UNL     1       1.586  11.596  21.332  0.00  0.00    +0.000 OA
ATOM     19  H   UNL     1       0.133   9.034  22.103  0.00  0.00    +0.000 HD
ATOM     20  H   UNL     1       0.263  10.501  22.937  0.00  0.00    +0.000 HD
ENDBRANCH  15  16
BRANCH  15  21
ATOM     21  C   UNL     1      -0.535   9.815  19.197  0.00  0.00    +0.000 C 
BRANCH  21  22
ATOM     22  C   UNL     1      -0.980  10.591  17.924  0.00  0.00    +0.000 C 
ATOM     23  C   UNL     1      -1.985   9.865  17.013  0.00  0.00    +0.000 C 
ATOM     24  C   UNL     1      -3.385   9.755  17.616  0.00  0.00    +0.000 C 
ATOM     25  C   UNL     1      -3.935  11.129  17.974  0.00  0.00    +0.000 C 
ATOM     26  C   UNL     1      -2.982  11.885  18.894  0.00  0.00    +0.000 C 
ATOM     27  C   UNL     1      -1.571  11.968  18.302  0.00  0.00    +0.000 C 
ENDBRANCH  21  22
ENDBRANCH  15  21
ENDBRANCH   4  15
BRANCH   7  28
ATOM     28  C   UNL     1       3.784   6.686  17.237  0.00  0.00    +0.000 C 
BRANCH  28  29
ATOM     29  C   UNL     1       5.165   6.516  17.825  0.00  0.00    +0.000 A 
ATOM     30  C   UNL     1       5.402   5.565  18.829  0.00  0.00    +0.000 A 
ATOM     31  C   UNL     1       6.690   5.369  19.330  0.00  0.00    +0.000 A 
ATOM     32  C   UNL     1       7.752   6.123  18.834  0.00  0.00    +0.000 A 
ATOM     33  C   UNL     1       7.525   7.084  17.850  0.00  0.00    +0.000 A 
ATOM     34  C   UNL     1       6.237   7.286  17.354  0.00  0.00    +0.000 A 
ENDBRANCH  28  29
ENDBRANCH   7  28
TORSDOF 11
ENDMDL
MODEL 5
REMARK VINA RESULT:      -7.4      1.117      1.223
REMARK  Name = 
REMARK  11 active torsions:
REMARK  status: ('A' for Active; 'I' for Inactive)
REMARK    1  A    between atoms: N_1  and  C_2
REMARK    2  A    between atoms: C_2  and  C_3
REMARK    3  A    between atoms: C_3  and  C_4
REMARK    4  A    between atoms: C_4  and  C_5
REMARK    5  A    between atoms: C_5  and  C_6
REMARK    6  A    between atoms: N_9  and  C_10
REMARK    7  A    between atoms: C_10  and  C_11
REMARK    8  A    between atoms: C_10  and  C_18
REMARK    9  A    between atoms: C_11  and  C_12
REMARK   10  A    between atoms: N_23  and  C_24
REMARK   11  A    between atoms: C_24  and  C_25
REMARK                            x       y       z     vdW  Elec       q    Type
REMARK                         _______ _______ _______ _____ _____    ______ ____
ROOT
ATOM      1  C   UNL     1       2.731   6.235  19.356  0.00  0.00    +0.000 C 
ATOM      2  C   UNL     1       1.975   7.326  20.137  0.00  0.00    +0.000 C 
ATOM      3  O   UNL     1       1.484   7.129  21.244  0.00  0.00    +0.000 OA
ATOM      4  N   UNL     1       1.881   8.475  19.385  0.00  0.00    +0.000 N 
ATOM      5  C   UNL     1       2.289   8.162  18.119  0.00  0.00    +0.000 C 
ATOM      6  O   UNL     1       2.135   8.838  17.111  0.00  0.00    +0.000 OA
ATOM      7  N   UNL     1       2.960   6.960  18.133  0.00  0.00    +0.000 N 
ENDROOT
BRANCH   1   8
ATOM      8  C   UNL     1       1.810   5.017  19.167  0.00  0.00    +0.000 C 
BRANCH   8   9
ATOM      9  C   UNL     1       1.775   4.453  17.741  0.00  0.00    +0.000 C 
BRANCH   9  10
ATOM     10  C   UNL     1       2.052   2.947  17.706  0.00  0.00    +0.000 C 
BRANCH  10  11
ATOM     11  C   UNL     1       3.536   2.607  17.887  0.00  0.00    +0.000 C 
BRANCH  11  12
ATOM     12  N   UNL     1       3.728   1.233  18.331  0.00  0.00    +0.000 NA
ATOM     13  H   UNL     1       3.959   0.649  17.526  0.00  0.00    +0.000 HD
ATOM     14  H   UNL     1       2.844   0.864  18.694  0.00  0.00    +0.000 HD
ENDBRANCH  11  12
ENDBRANCH  10  11
ENDBRANCH   9  10
ENDBRANCH   8   9
ENDBRANCH   1   8
BRANCH   4  15
ATOM     15  C   UNL     1       0.997   9.624  19.695  0.00  0.00    +0.000 C 
BRANCH  15  16
ATOM     16  C   UNL     1       0.861  10.110  21.171  0.00  0.00    +0.000 C 
ATOM     17  N   UNL     1      -0.074   9.554  21.989  0.00  0.00    +0.000 N 
ATOM     18  O   UNL     1       1.542  11.034  21.621  0.00  0.00    +0.000 OA
ATOM     19  H   UNL     1      -0.180   8.542  21.938  0.00  0.00    +0.000 HD
ATOM     20  H   UNL     1      -0.039   9.899  22.939  0.00  0.00    +0.000 HD
ENDBRANCH  15  16
BRANCH  15  21
ATOM     21  C   UNL     1      -0.459   9.518  19.132  0.00  0.00    +0.000 C 
BRANCH  21  22
ATOM     22  C   UNL     1      -0.831  10.419  17.920  0.00  0.00    +0.000 C 
ATOM     23  C   UNL     1      -1.923   9.869  16.985  0.00  0.00    +0.000 C 
ATOM     24  C   UNL     1      -3.318   9.875  17.607  0.00  0.00    +0.000 C 
ATOM     25  C   UNL     1      -3.707  11.275  18.062  0.00  0.00    +0.000 C 
ATOM     26  C   UNL     1      -2.665  11.860  19.008  0.00  0.00    +0.000 C 
ATOM     27  C   UNL     1      -1.261  11.826  18.395  0.00  0.00    +0.000 C 
ENDBRANCH  21  22
ENDBRANCH  15  21
ENDBRANCH   4  15
BRANCH   7  28
ATOM     28  C   UNL     1       3.979   6.625  17.155  0.00  0.00    +0.000 C 
BRANCH  28  29
ATOM     29  C   UNL     1       5.349   6.448  17.766  0.00  0.00    +0.000 A 
ATOM     30  C   UNL     1       6.428   7.240  17.344  0.00  0.00    +0.000 A 
ATOM     31  C   UNL     1       7.679   7.115  17.950  0.00  0.00    +0.000 A 
ATOM     32  C   UNL     1       7.865   6.197  18.982  0.00  0.00    +0.000 A 
ATOM     33  C   UNL     1       6.806   5.392  19.397  0.00  0.00    +0.000 A 
ATOM     34  C   UNL     1       5.557   5.510  18.787  0.00  0.00    +0.000 A 
ENDBRANCH  28  29
ENDBRANCH   7  28
TORSDOF 11
ENDMDL
MODEL 6
REMARK VINA RESULT:      -7.3      1.255      1.509
REMARK  Name = 
REMARK  11 active torsions:
REMARK  status: ('A' for Active; 'I' for Inactive)
REMARK    1  A    between atoms: N_1  and  C_2
REMARK    2  A    between atoms: C_2  and  C_3
REMARK    3  A    between atoms: C_3  and  C_4
REMARK    4  A    between atoms: C_4  and  C_5
REMARK    5  A    between atoms: C_5  and  C_6
REMARK    6  A    between atoms: N_9  and  C_10
REMARK    7  A    between atoms: C_10  and  C_11
REMARK    8  A    between atoms: C_10  and  C_18
REMARK    9  A    between atoms: C_11  and  C_12
REMARK   10  A    between atoms: N_23  and  C_24
REMARK   11  A    between atoms: C_24  and  C_25
REMARK                            x       y       z     vdW  Elec       q    Type
REMARK                         _______ _______ _______ _____ _____    ______ ____
ROOT
ATOM      1  C   UNL     1       2.935   6.226  18.574  0.00  0.00    +0.000 C 
ATOM      2  C   UNL     1       2.196   7.000  19.681  0.00  0.00    +0.000 C 
ATOM      3  O   UNL     1       1.725   6.450  20.673  0.00  0.00    +0.000 OA
ATOM      4  N   UNL     1       2.089   8.331  19.347  0.00  0.00    +0.000 N 
ATOM      5  C   UNL     1       2.473   8.449  18.041  0.00  0.00    +0.000 C 
ATOM      6  O   UNL     1       2.301   9.415  17.311  0.00  0.00    +0.000 OA
ATOM      7  N   UNL     1       3.141   7.311  17.649  0.00  0.00    +0.000 N 
ENDROOT
BRANCH   1   8
ATOM      8  C   UNL     1       2.007   5.132  18.015  0.00  0.00    +0.000 C 
BRANCH   8   9
ATOM      9  C   UNL     1       2.166   3.758  18.679  0.00  0.00    +0.000 C 
BRANCH   9  10
ATOM     10  C   UNL     1       2.775   2.722  17.728  0.00  0.00    +0.000 C 
BRANCH  10  11
ATOM     11  C   UNL     1       3.713   1.738  18.437  0.00  0.00    +0.000 C 
BRANCH  11  12
ATOM     12  N   UNL     1       4.680   2.425  19.283  0.00  0.00    +0.000 NA
ATOM     13  H   UNL     1       4.269   2.580  20.204  0.00  0.00    +0.000 HD
ATOM     14  H   UNL     1       4.865   3.358  18.903  0.00  0.00    +0.000 HD
ENDBRANCH  11  12
ENDBRANCH  10  11
ENDBRANCH   9  10
ENDBRANCH   8   9
ENDBRANCH   1   8
BRANCH   4  15
ATOM     15  C   UNL     1       1.214   9.312  20.030  0.00  0.00    +0.000 C 
BRANCH  15  16
ATOM     16  C   UNL     1       0.820   9.079  21.522  0.00  0.00    +0.000 C 
ATOM     17  N   UNL     1      -0.389   8.536  21.831  0.00  0.00    +0.000 N 
ATOM     18  O   UNL     1       1.550   9.425  22.453  0.00  0.00    +0.000 OA
ATOM     19  H   UNL     1      -0.696   7.752  21.257  0.00  0.00    +0.000 HD
ATOM     20  H   UNL     1      -0.520   8.373  22.821  0.00  0.00    +0.000 HD
ENDBRANCH  15  16
BRANCH  15  21
ATOM     21  C   UNL     1      -0.111   9.665  19.276  0.00  0.00    +0.000 C 
BRANCH  21  22
ATOM     22  C   UNL     1      -0.271  11.116  18.739  0.00  0.00    +0.000 C 
ATOM     23  C   UNL     1      -1.520  11.380  17.880  0.00  0.00    +0.000 C 
ATOM     24  C   UNL     1      -2.822  11.374  18.678  0.00  0.00    +0.000 C 
ATOM     25  C   UNL     1      -2.771  12.389  19.813  0.00  0.00    +0.000 C 
ATOM     26  C   UNL     1      -1.558  12.159  20.708  0.00  0.00    +0.000 C 
ATOM     27  C   UNL     1      -0.256  12.135  19.902  0.00  0.00    +0.000 C 
ENDBRANCH  21  22
ENDBRANCH  15  21
ENDBRANCH   4  15
BRANCH   7  28
ATOM     28  C   UNL     1       4.141   7.317  16.597  0.00  0.00    +0.000 C 
BRANCH  28  29
ATOM     29  C   UNL     1       5.301   6.390  16.878  0.00  0.00    +0.000 A 
ATOM     30  C   UNL     1       6.350   6.792  17.719  0.00  0.00    +0.000 A 
ATOM     31  C   UNL     1       7.391   5.914  18.023  0.00  0.00    +0.000 A 
ATOM     32  C   UNL     1       7.395   4.627  17.489  0.00  0.00    +0.000 A 
ATOM     33  C   UNL     1       6.368   4.223  16.637  0.00  0.00    +0.000 A 
ATOM     34  C   UNL     1       5.331   5.102  16.325  0.00  0.00    +0.000 A 
ENDBRANCH  28  29
ENDBRANCH   7  28
TORSDOF 11
ENDMDL
MODEL 7
REMARK VINA RESULT:      -7.3      1.087      1.702
REMARK  Name = 
REMARK  11 active torsions:
REMARK  status: ('A' for Active; 'I' for Inactive)
REMARK    1  A    between atoms: N_1  and  C_2
REMARK    2  A    between atoms: C_2  and  C_3
REMARK    3  A    between atoms: C_3  and  C_4
REMARK    4  A    between atoms: C_4  and  C_5
REMARK    5  A    between atoms: C_5  and  C_6
REMARK    6  A    between atoms: N_9  and  C_10
REMARK    7  A    between atoms: C_10  and  C_11
REMARK    8  A    between atoms: C_10  and  C_18
REMARK    9  A    between atoms: C_11  and  C_12
REMARK   10  A    between atoms: N_23  and  C_24
REMARK   11  A    between atoms: C_24  and  C_25
REMARK                            x       y       z     vdW  Elec       q    Type
REMARK                         _______ _______ _______ _____ _____    ______ ____
ROOT
ATOM      1  C   UNL     1       2.880   6.160  18.524  0.00  0.00    +0.000 C 
ATOM      2  C   UNL     1       2.183   6.891  19.687  0.00  0.00    +0.000 C 
ATOM      3  O   UNL     1       1.712   6.300  20.655  0.00  0.00    +0.000 OA
ATOM      4  N   UNL     1       2.111   8.241  19.430  0.00  0.00    +0.000 N 
ATOM      5  C   UNL     1       2.475   8.422  18.126  0.00  0.00    +0.000 C 
ATOM      6  O   UNL     1       2.320   9.433  17.454  0.00  0.00    +0.000 OA
ATOM      7  N   UNL     1       3.103   7.289  17.659  0.00  0.00    +0.000 N 
ENDROOT
BRANCH   1   8
ATOM      8  C   UNL     1       1.911   5.126  17.923  0.00  0.00    +0.000 C 
BRANCH   8   9
ATOM      9  C   UNL     1       2.473   3.702  17.823  0.00  0.00    +0.000 C 
BRANCH   9  10
ATOM     10  C   UNL     1       2.763   3.096  19.200  0.00  0.00    +0.000 C 
BRANCH  10  11
ATOM     11  C   UNL     1       1.541   2.411  19.822  0.00  0.00    +0.000 C 
BRANCH  11  12
ATOM     12  N   UNL     1       0.888   3.260  20.810  0.00  0.00    +0.000 NA
ATOM     13  H   UNL     1       0.127   3.773  20.361  0.00  0.00    +0.000 HD
ATOM     14  H   UNL     1       1.546   3.973  21.137  0.00  0.00    +0.000 HD
ENDBRANCH  11  12
ENDBRANCH  10  11
ENDBRANCH   9  10
ENDBRANCH   8   9
ENDBRANCH   1   8
BRANCH   4  15
ATOM     15  C   UNL     1       1.276   9.207  20.183  0.00  0.00    +0.000 C 
BRANCH  15  16
ATOM     16  C   UNL     1       0.897   8.899  21.665  0.00  0.00    +0.000 C 
ATOM     17  N   UNL     1      -0.263   8.247  21.951  0.00  0.00    +0.000 N 
ATOM     18  O   UNL     1       1.591   9.280  22.610  0.00  0.00    +0.000 OA
ATOM     19  H   UNL     1      -0.500   7.457  21.353  0.00  0.00    +0.000 HD
ATOM     20  H   UNL     1      -0.383   8.046  22.935  0.00  0.00    +0.000 HD
ENDBRANCH  15  16
BRANCH  15  21
ATOM     21  C   UNL     1      -0.048   9.643  19.473  0.00  0.00    +0.000 C 
BRANCH  21  22
ATOM     22  C   UNL     1      -0.790  10.890  20.033  0.00  0.00    +0.000 C 
ATOM     23  C   UNL     1       0.090  12.114  20.340  0.00  0.00    +0.000 C 
ATOM     24  C   UNL     1       0.624  12.810  19.089  0.00  0.00    +0.000 C 
ATOM     25  C   UNL     1      -0.515  13.230  18.169  0.00  0.00    +0.000 C 
ATOM     26  C   UNL     1      -1.410  12.046  17.819  0.00  0.00    +0.000 C 
ATOM     27  C   UNL     1      -1.920  11.331  19.074  0.00  0.00    +0.000 C 
ENDBRANCH  21  22
ENDBRANCH  15  21
ENDBRANCH   4  15
BRANCH   7  28
ATOM     28  C   UNL     1       4.085   7.325  16.590  0.00  0.00    +0.000 C 
BRANCH  28  29
ATOM     29  C   UNL     1       5.249   6.392  16.825  0.00  0.00    +0.000 A 
ATOM     30  C   UNL     1       6.264   6.729  17.734  0.00  0.00    +0.000 A 
ATOM     31  C   UNL     1       7.308   5.840  17.992  0.00  0.00    +0.000 A 
ATOM     32  C   UNL     1       7.350   4.607  17.343  0.00  0.00    +0.000 A 
ATOM     33  C   UNL     1       6.358   4.269  16.424  0.00  0.00    +0.000 A 
ATOM     34  C   UNL     1       5.317   5.160  16.159  0.00  0.00    +0.000 A 
ENDBRANCH  28  29
ENDBRANCH   7  28
TORSDOF 11
ENDMDL
MODEL 8
REMARK VINA RESULT:      -7.3      0.813      1.072
REMARK  Name = 
REMARK  11 active torsions:
REMARK  status: ('A' for Active; 'I' for Inactive)
REMARK    1  A    between atoms: N_1  and  C_2
REMARK    2  A    between atoms: C_2  and  C_3
REMARK    3  A    between atoms: C_3  and  C_4
REMARK    4  A    between atoms: C_4  and  C_5
REMARK    5  A    between atoms: C_5  and  C_6
REMARK    6  A    between atoms: N_9  and  C_10
REMARK    7  A    between atoms: C_10  and  C_11
REMARK    8  A    between atoms: C_10  and  C_18
REMARK    9  A    between atoms: C_11  and  C_12
REMARK   10  A    between atoms: N_23  and  C_24
REMARK   11  A    between atoms: C_24  and  C_25
REMARK                            x       y       z     vdW  Elec       q    Type
REMARK                         _______ _______ _______ _____ _____    ______ ____
ROOT
ATOM      1  C   UNL     1       2.855   5.989  18.622  0.00  0.00    +0.000 C 
ATOM      2  C   UNL     1       2.132   6.798  19.715  0.00  0.00    +0.000 C 
ATOM      3  O   UNL     1       1.607   6.272  20.692  0.00  0.00    +0.000 OA
ATOM      4  N   UNL     1       2.109   8.134  19.385  0.00  0.00    +0.000 N 
ATOM      5  C   UNL     1       2.531   8.236  18.090  0.00  0.00    +0.000 C 
ATOM      6  O   UNL     1       2.432   9.213  17.361  0.00  0.00    +0.000 OA
ATOM      7  N   UNL     1       3.145   7.064  17.709  0.00  0.00    +0.000 N 
ENDROOT
BRANCH   1   8
ATOM      8  C   UNL     1       1.882   4.950  18.035  0.00  0.00    +0.000 C 
BRANCH   8   9
ATOM      9  C   UNL     1       2.480   3.552  17.836  0.00  0.00    +0.000 C 
BRANCH   9  10
ATOM     10  C   UNL     1       1.744   2.485  18.653  0.00  0.00    +0.000 C 
BRANCH  10  11
ATOM     11  C   UNL     1       0.622   3.065  19.522  0.00  0.00    +0.000 C 
BRANCH  11  12
ATOM     12  N   UNL     1       0.986   3.090  20.932  0.00  0.00    +0.000 NA
ATOM     13  H   UNL     1       0.429   3.800  21.410  0.00  0.00    +0.000 HD
ATOM     14  H   UNL     1       1.960   3.391  21.029  0.00  0.00    +0.000 HD
ENDBRANCH  11  12
ENDBRANCH  10  11
ENDBRANCH   9  10
ENDBRANCH   8   9
ENDBRANCH   1   8
BRANCH   4  15
ATOM     15  C   UNL     1       1.273   9.160  20.052  0.00  0.00    +0.000 C 
BRANCH  15  16
ATOM     16  C   UNL     1       0.913   8.993  21.561  0.00  0.00    +0.000 C 
ATOM     17  N   UNL     1      -0.310   8.517  21.921  0.00  0.00    +0.000 N 
ATOM     18  O   UNL     1       1.685   9.334  22.459  0.00  0.00    +0.000 OA
ATOM     19  H   UNL     1      -0.670   7.731  21.383  0.00  0.00    +0.000 HD
ATOM     20  H   UNL     1      -0.418   8.392  22.920  0.00  0.00    +0.000 HD
ENDBRANCH  15  16
BRANCH  15  21
ATOM     21  C   UNL     1      -0.064   9.514  19.318  0.00  0.00    +0.000 C 
BRANCH  21  22
ATOM     22  C   UNL     1      -0.129  10.863  18.548  0.00  0.00    +0.000 C 
ATOM     23  C   UNL     1      -1.535  11.336  18.141  0.00  0.00    +0.000 C 
ATOM     24  C   UNL     1      -2.389  11.799  19.321  0.00  0.00    +0.000 C 
ATOM     25  C   UNL     1      -1.692  12.908  20.097  0.00  0.00    +0.000 C 
ATOM     26  C   UNL     1      -0.297  12.482  20.542  0.00  0.00    +0.000 C 
ATOM     27  C   UNL     1       0.547  11.991  19.362  0.00  0.00    +0.000 C 
ENDBRANCH  21  22
ENDBRANCH  15  21
ENDBRANCH   4  15
BRANCH   7  28
ATOM     28  C   UNL     1       4.169   7.018  16.681  0.00  0.00    +0.000 C 
BRANCH  28  29
ATOM     29  C   UNL     1       5.438   6.338  17.141  0.00  0.00    +0.000 A 
ATOM     30  C   UNL     1       6.436   7.063  17.809  0.00  0.00    +0.000 A 
ATOM     31  C   UNL     1       7.581   6.421  18.283  0.00  0.00    +0.000 A 
ATOM     32  C   UNL     1       7.740   5.050  18.094  0.00  0.00    +0.000 A 
ATOM     33  C   UNL     1       6.763   4.322  17.416  0.00  0.00    +0.000 A 
ATOM     34  C   UNL     1       5.622   4.964  16.934  0.00  0.00    +0.000 A 
ENDBRANCH  28  29
ENDBRANCH   7  28
TORSDOF 11
ENDMDL
MODEL 9
REMARK VINA RESULT:      -7.3      0.944      1.190
REMARK  Name = 
REMARK  11 active torsions:
REMARK  status: ('A' for Active; 'I' for Inactive)
REMARK    1  A    between atoms: N_1  and  C_2
REMARK    2  A    between atoms: C_2  and  C_3
REMARK    3  A    between atoms: C_3  and  C_4
REMARK    4  A    between atoms: C_4  and  C_5
REMARK    5  A    between atoms: C_5  and  C_6
REMARK    6  A    between atoms: N_9  and  C_10
REMARK    7  A    between atoms: C_10  and  C_11
REMARK    8  A    between atoms: C_10  and  C_18
REMARK    9  A    between atoms: C_11  and  C_12
REMARK   10  A    between atoms: N_23  and  C_24
REMARK   11  A    between atoms: C_24  and  C_25
REMARK                            x       y       z     vdW  Elec       q    Type
REMARK                         _______ _______ _______ _____ _____    ______ ____
ROOT
ATOM      1  C   UNL     1       2.854   6.363  18.662  0.00  0.00    +0.000 C 
ATOM      2  C   UNL     1       2.085   7.194  19.706  0.00  0.00    +0.000 C 
ATOM      3  O   UNL     1       1.550   6.692  20.690  0.00  0.00    +0.000 OA
ATOM      4  N   UNL     1       2.035   8.515  19.323  0.00  0.00    +0.000 N 
ATOM      5  C   UNL     1       2.485   8.579  18.035  0.00  0.00    +0.000 C 
ATOM      6  O   UNL     1       2.377   9.524  17.266  0.00  0.00    +0.000 OA
ATOM      7  N   UNL     1       3.138   7.410  17.714  0.00  0.00    +0.000 N 
ENDROOT
BRANCH   1   8
ATOM      8  C   UNL     1       1.923   5.276  18.094  0.00  0.00    +0.000 C 
BRANCH   8   9
ATOM      9  C   UNL     1       2.509   3.859  18.108  0.00  0.00    +0.000 C 
BRANCH   9  10
ATOM     10  C   UNL     1       1.595   2.861  18.828  0.00  0.00    +0.000 C 
BRANCH  10  11
ATOM     11  C   UNL     1       0.821   3.492  19.992  0.00  0.00    +0.000 C 
BRANCH  11  12
ATOM     12  N   UNL     1       1.586   3.461  21.232  0.00  0.00    +0.000 NA
ATOM     13  H   UNL     1       1.601   2.506  21.593  0.00  0.00    +0.000 HD
ATOM     14  H   UNL     1       1.105   4.017  21.944  0.00  0.00    +0.000 HD
ENDBRANCH  11  12
ENDBRANCH  10  11
ENDBRANCH   9  10
ENDBRANCH   8   9
ENDBRANCH   1   8
BRANCH   4  15
ATOM     15  C   UNL     1       1.156   9.543  19.930  0.00  0.00    +0.000 C 
BRANCH  15  16
ATOM     16  C   UNL     1       1.086   9.670  21.484  0.00  0.00    +0.000 C 
ATOM     17  N   UNL     1       1.877   8.889  22.269  0.00  0.00    +0.000 N 
ATOM     18  O   UNL     1       0.286  10.425  22.042  0.00  0.00    +0.000 OA
ATOM     19  H   UNL     1       2.842   8.771  21.967  0.00  0.00    +0.000 HD
ATOM     20  H   UNL     1       1.795   9.093  23.257  0.00  0.00    +0.000 HD
ENDBRANCH  15  16
BRANCH  15  21
ATOM     21  C   UNL     1      -0.324   9.542  19.423  0.00  0.00    +0.000 C 
BRANCH  21  22
ATOM     22  C   UNL     1      -0.673  10.456  18.214  0.00  0.00    +0.000 C 
ATOM     23  C   UNL     1      -1.691   9.885  17.212  0.00  0.00    +0.000 C 
ATOM     24  C   UNL     1      -3.116   9.817  17.761  0.00  0.00    +0.000 C 
ATOM     25  C   UNL     1      -3.587  11.188  18.228  0.00  0.00    +0.000 C 
ATOM     26  C   UNL     1      -2.619  11.792  19.240  0.00  0.00    +0.000 C 
ATOM     27  C   UNL     1      -1.186  11.832  18.699  0.00  0.00    +0.000 C 
ENDBRANCH  21  22
ENDBRANCH  15  21
ENDBRANCH   4  15
BRANCH   7  28
ATOM     28  C   UNL     1       4.188   7.352  16.714  0.00  0.00    +0.000 C 
BRANCH  28  29
ATOM     29  C   UNL     1       5.290   6.381  17.068  0.00  0.00    +0.000 A 
ATOM     30  C   UNL     1       5.340   5.110  16.476  0.00  0.00    +0.000 A 
ATOM     31  C   UNL     1       6.390   4.236  16.761  0.00  0.00    +0.000 A 
ATOM     32  C   UNL     1       7.400   4.624  17.640  0.00  0.00    +0.000 A 
ATOM     33  C   UNL     1       7.351   5.877  18.248  0.00  0.00    +0.000 A 
ATOM     34  C   UNL     1       6.297   6.749  17.971  0.00  0.00    +0.000 A 
ENDBRANCH  28  29
ENDBRANCH   7  28
TORSDOF 11
ENDMDL
