MODEL 1
REMARK VINA RESULT:      -7.9      0.000      0.000
REMARK  Name = 
REMARK  12 active torsions:
REMARK  status: ('A' for Active; 'I' for Inactive)
REMARK    1  A    between atoms: C_1  and  C_2
REMARK    2  A    between atoms: C_2  and  C_3
REMARK    3  A    between atoms: C_3  and  C_4
REMARK    4  A    between atoms: C_4  and  N_5
REMARK    5  A    between atoms: N_5  and  C_6
REMARK    6  A    between atoms: N_5  and  C_21
REMARK    7  A    between atoms: C_6  and  C_7
REMARK    8  A    between atoms: N_11  and  C_12
REMARK    9  A    between atoms: C_12  and  C_13
REMARK   10  A    between atoms: C_16  and  C_17
REMARK   11  A    between atoms: N_24  and  C_25
REMARK   12  A    between atoms: C_25  and  C_26
REMARK                            x       y       z     vdW  Elec       q    Type
REMARK                         _______ _______ _______ _____ _____    ______ ____
ROOT
ATOM      1  N   UNL     1       5.978   4.923  17.298  0.00  0.00    +0.000 NA
ENDROOT
BRANCH   1   2
ATOM      2  C   UNL     1       6.562   6.048  18.060  0.00  0.00    +0.000 C 
ATOM      3  C   UNL     1       8.020   5.926  18.541  0.00  0.00    +0.000 C 
ATOM      4  C   UNL     1       8.395   7.373  18.847  0.00  0.00    +0.000 C 
ATOM      5  N   UNL     1       7.682   8.107  17.838  0.00  0.00    +0.000 N 
ATOM      6  C   UNL     1       6.664   7.364  17.268  0.00  0.00    +0.000 C 
ATOM      7  O   UNL     1       5.948   7.772  16.367  0.00  0.00    +0.000 OA
BRANCH   5   8
ATOM      8  C   UNL     1       7.878   9.513  17.567  0.00  0.00    +0.000 C 
BRANCH   8   9
ATOM      9  C   UNL     1       8.953  10.149  18.404  0.00  0.00    +0.000 A 
ATOM     10  C   UNL     1      10.027  10.830  17.809  0.00  0.00    +0.000 A 
ATOM     11  C   UNL     1      10.947  11.528  18.588  0.00  0.00    +0.000 A 
ATOM     12  C   UNL     1      10.800  11.559  19.971  0.00  0.00    +0.000 A 
ATOM     13  C   UNL     1       9.746  10.875  20.576  0.00  0.00    +0.000 A 
ATOM     14  C   UNL     1       8.828  10.171  19.798  0.00  0.00    +0.000 A 
ENDBRANCH   8   9
ENDBRANCH   5   8
ENDBRANCH   1   2
BRANCH   1  15
ATOM     15  C   UNL     1       6.974   4.310  16.392  0.00  0.00    +0.000 C 
BRANCH  15  16
ATOM     16  C   UNL     1       6.925   4.708  14.903  0.00  0.00    +0.000 C 
BRANCH  16  18
ATOM     17  C   UNL     1       6.247   3.525  12.796  0.00  0.00    +0.000 C 
ATOM     18  C   UNL     1       5.756   4.116  14.114  0.00  0.00    +0.000 C 
ENDBRANCH  16  18
ENDBRANCH  15  16
ENDBRANCH   1  15
BRANCH   1  19
ATOM     19  C   UNL     1       5.323   3.942  18.199  0.00  0.00    +0.000 C 
BRANCH  19  20
ATOM     20  C   UNL     1       3.820   3.928  18.194  0.00  0.00    +0.000 A 
ATOM     21  C   UNL     1       3.003   3.180  17.362  0.00  0.00    +0.000 A 
ATOM     22  N   UNL     1       1.685   3.476  17.536  0.00  0.00    +0.000 NA
ATOM     23  C   UNL     1       1.670   4.427  18.436  0.00  0.00    +0.000 A 
ATOM     24  N   UNL     1       2.931   4.728  18.903  0.00  0.00    +0.000 N 
BRANCH  24  25
ATOM     25  C   UNL     1       3.159   5.893  19.762  0.00  0.00    +0.000 C 
BRANCH  25  26
ATOM     26  C   UNL     1       2.446   7.195  19.404  0.00  0.00    +0.000 A 
ATOM     27  C   UNL     1       2.521   7.851  18.167  0.00  0.00    +0.000 A 
ATOM     28  C   UNL     1       1.846   9.066  17.948  0.00  0.00    +0.000 A 
ATOM     29  C   UNL     1       1.101   9.667  18.967  0.00  0.00    +0.000 A 
ATOM     30  C   UNL     1       1.008   9.026  20.204  0.00  0.00    +0.000 A 
ATOM     31  C   UNL     1       1.675   7.809  20.415  0.00  0.00    +0.000 A 
BRANCH  29  32
ATOM     32  C   UNL     1       0.432  10.923  18.747  0.00  0.00    +0.000 C 
ATOM     33  N   UNL     1      -0.113  11.937  18.569  0.00  0.00    +0.000 NA
ENDBRANCH  29  32
ENDBRANCH  25  26
ENDBRANCH  24  25
ENDBRANCH  19  20
ENDBRANCH   1  19
TORSDOF 11
ENDMDL
MODEL 2
REMARK VINA RESULT:      -7.5      0.900      1.361
REMARK  Name = 
REMARK  12 active torsions:
REMARK  status: ('A' for Active; 'I' for Inactive)
REMARK    1  A    between atoms: C_1  and  C_2
REMARK    2  A    between atoms: C_2  and  C_3
REMARK    3  A    between atoms: C_3  and  C_4
REMARK    4  A    between atoms: C_4  and  N_5
REMARK    5  A    between atoms: N_5  and  C_6
REMARK    6  A    between atoms: N_5  and  C_21
REMARK    7  A    between atoms: C_6  and  C_7
REMARK    8  A    between atoms: N_11  and  C_12
REMARK    9  A    between atoms: C_12  and  C_13
REMARK   10  A    between atoms: C_16  and  C_17
REMARK   11  A    between atoms: N_24  and  C_25
REMARK   12  A    between atoms: C_25  and  C_26
REMARK                            x       y       z     vdW  Elec       q    Type
REMARK                         _______ _______ _______ _____ _____    ______ ____
ROOT
ATOM      1  N   UNL     1       6.211   5.226  17.787  0.00  0.00    +0.000 NA
ENDROOT
BRANCH   1   2
ATOM      2  C   UNL     1       6.799   6.427  18.419  0.00  0.00    +0.000 C 
ATOM      3  C   UNL     1       8.246   6.345  18.940  0.00  0.00    +0.000 C 
ATOM      4  C   UNL     1       8.638   7.813  19.077  0.00  0.00    +0.000 C 
ATOM      5  N   UNL     1       7.956   8.429  17.973  0.00  0.00    +0.000 N 
ATOM      6  C   UNL     1       6.936   7.637  17.477  0.00  0.00    +0.000 C 
ATOM      7  O   UNL     1       6.243   7.942  16.519  0.00  0.00    +0.000 OA
BRANCH   5   8
ATOM      8  C   UNL     1       8.179   9.789  17.538  0.00  0.00    +0.000 C 
BRANCH   8   9
ATOM      9  C   UNL     1       9.164  10.544  18.387  0.00  0.00    +0.000 A 
ATOM     10  C   UNL     1       8.976  10.674  19.772  0.00  0.00    +0.000 A 
ATOM     11  C   UNL     1       9.956  11.259  20.572  0.00  0.00    +0.000 A 
ATOM     12  C   UNL     1      11.138  11.714  19.996  0.00  0.00    +0.000 A 
ATOM     13  C   UNL     1      11.332  11.604  18.620  0.00  0.00    +0.000 A 
ATOM     14  C   UNL     1      10.349  11.024  17.818  0.00  0.00    +0.000 A 
ENDBRANCH   8   9
ENDBRANCH   5   8
ENDBRANCH   1   2
BRANCH   1  15
ATOM     15  C   UNL     1       7.238   4.432  17.078  0.00  0.00    +0.000 C 
BRANCH  15  16
ATOM     16  C   UNL     1       7.191   4.416  15.537  0.00  0.00    +0.000 C 
BRANCH  16  18
ATOM     17  C   UNL     1       5.958   3.894  13.415  0.00  0.00    +0.000 C 
ATOM     18  C   UNL     1       5.861   3.962  14.935  0.00  0.00    +0.000 C 
ENDBRANCH  16  18
ENDBRANCH  15  16
ENDBRANCH   1  15
BRANCH   1  19
ATOM     19  C   UNL     1       5.425   4.431  18.764  0.00  0.00    +0.000 C 
BRANCH  19  20
ATOM     20  C   UNL     1       3.962   4.258  18.463  0.00  0.00    +0.000 A 
ATOM     21  C   UNL     1       3.276   3.059  18.359  0.00  0.00    +0.000 A 
ATOM     22  N   UNL     1       1.984   3.240  17.969  0.00  0.00    +0.000 NA
ATOM     23  C   UNL     1       1.865   4.531  17.789  0.00  0.00    +0.000 A 
ATOM     24  N   UNL     1       3.020   5.214  18.103  0.00  0.00    +0.000 N 
BRANCH  24  25
ATOM     25  C   UNL     1       3.165   6.637  17.784  0.00  0.00    +0.000 C 
BRANCH  25  26
ATOM     26  C   UNL     1       2.313   7.635  18.565  0.00  0.00    +0.000 A 
ATOM     27  C   UNL     1       1.736   8.799  18.039  0.00  0.00    +0.000 A 
ATOM     28  C   UNL     1       0.989   9.671  18.852  0.00  0.00    +0.000 A 
ATOM     29  C   UNL     1       0.823   9.413  20.217  0.00  0.00    +0.000 A 
ATOM     30  C   UNL     1       1.384   8.255  20.758  0.00  0.00    +0.000 A 
ATOM     31  C   UNL     1       2.119   7.383  19.941  0.00  0.00    +0.000 A 
BRANCH  29  32
ATOM     32  C   UNL     1       0.079  10.320  21.052  0.00  0.00    +0.000 C 
ATOM     33  N   UNL     1      -0.525  11.055  21.725  0.00  0.00    +0.000 NA
ENDBRANCH  29  32
ENDBRANCH  25  26
ENDBRANCH  24  25
ENDBRANCH  19  20
ENDBRANCH   1  19
TORSDOF 11
ENDMDL
MODEL 3
REMARK VINA RESULT:      -7.5      0.546      1.315
REMARK  Name = 
REMARK  12 active torsions:
REMARK  status: ('A' for Active; 'I' for Inactive)
REMARK    1  A    between atoms: C_1  and  C_2
REMARK    2  A    between atoms: C_2  and  C_3
REMARK    3  A    between atoms: C_3  and  C_4
REMARK    4  A    between atoms: C_4  and  N_5
REMARK    5  A    between atoms: N_5  and  C_6
REMARK    6  A    between atoms: N_5  and  C_21
REMARK    7  A    between atoms: C_6  and  C_7
REMARK    8  A    between atoms: N_11  and  C_12
REMARK    9  A    between atoms: C_12  and  C_13
REMARK   10  A    between atoms: C_16  and  C_17
REMARK   11  A    between atoms: N_24  and  C_25
REMARK   12  A    between atoms: C_25  and  C_26
REMARK                            x       y       z     vdW  Elec       q    Type
REMARK                         _______ _______ _______ _____ _____    ______ ____
ROOT
ATOM      1  N   UNL     1       5.955   5.124  17.678  0.00  0.00    +0.000 NA
ENDROOT
BRANCH   1   2
ATOM      2  C   UNL     1       6.596   6.298  18.310  0.00  0.00    +0.000 C 
ATOM      3  C   UNL     1       8.040   6.154  18.824  0.00  0.00    +0.000 C 
ATOM      4  C   UNL     1       8.494   7.604  18.962  0.00  0.00    +0.000 C 
ATOM      5  N   UNL     1       7.833   8.251  17.862  0.00  0.00    +0.000 N 
ATOM      6  C   UNL     1       6.779   7.503  17.369  0.00  0.00    +0.000 C 
ATOM      7  O   UNL     1       6.095   7.838  16.415  0.00  0.00    +0.000 OA
BRANCH   5   8
ATOM      8  C   UNL     1       8.111   9.601  17.429  0.00  0.00    +0.000 C 
BRANCH   8   9
ATOM      9  C   UNL     1       9.026  10.358  18.351  0.00  0.00    +0.000 A 
ATOM     10  C   UNL     1       8.796  10.388  19.736  0.00  0.00    +0.000 A 
ATOM     11  C   UNL     1       9.717  10.979  20.598  0.00  0.00    +0.000 A 
ATOM     12  C   UNL     1      10.882  11.542  20.086  0.00  0.00    +0.000 A 
ATOM     13  C   UNL     1      11.116  11.532  18.712  0.00  0.00    +0.000 A 
ATOM     14  C   UNL     1      10.192  10.945  17.847  0.00  0.00    +0.000 A 
ENDBRANCH   8   9
ENDBRANCH   5   8
ENDBRANCH   1   2
BRANCH   1  15
ATOM     15  C   UNL     1       6.899   4.403  16.797  0.00  0.00    +0.000 C 
BRANCH  15  16
ATOM     16  C   UNL     1       6.340   3.798  15.493  0.00  0.00    +0.000 C 
BRANCH  16  18
ATOM     17  C   UNL     1       6.294   3.766  12.985  0.00  0.00    +0.000 C 
ATOM     18  C   UNL     1       6.700   4.564  14.220  0.00  0.00    +0.000 C 
ENDBRANCH  16  18
ENDBRANCH  15  16
ENDBRANCH   1  15
BRANCH   1  19
ATOM     19  C   UNL     1       5.313   4.248  18.691  0.00  0.00    +0.000 C 
BRANCH  19  20
ATOM     20  C   UNL     1       3.867   3.907  18.460  0.00  0.00    +0.000 A 
ATOM     21  C   UNL     1       3.340   3.252  17.359  0.00  0.00    +0.000 A 
ATOM     22  N   UNL     1       1.980   3.192  17.402  0.00  0.00    +0.000 NA
ATOM     23  C   UNL     1       1.650   3.835  18.494  0.00  0.00    +0.000 A 
ATOM     24  N   UNL     1       2.749   4.267  19.202  0.00  0.00    +0.000 N 
BRANCH  24  25
ATOM     25  C   UNL     1       2.603   5.175  20.343  0.00  0.00    +0.000 C 
BRANCH  25  26
ATOM     26  C   UNL     1       2.181   6.615  20.060  0.00  0.00    +0.000 A 
ATOM     27  C   UNL     1       1.499   7.453  20.953  0.00  0.00    +0.000 A 
ATOM     28  C   UNL     1       1.128   8.760  20.584  0.00  0.00    +0.000 A 
ATOM     29  C   UNL     1       1.410   9.250  19.305  0.00  0.00    +0.000 A 
ATOM     30  C   UNL     1       2.095   8.434  18.403  0.00  0.00    +0.000 A 
ATOM     31  C   UNL     1       2.470   7.135  18.779  0.00  0.00    +0.000 A 
BRANCH  29  32
ATOM     32  C   UNL     1       1.007  10.579  18.921  0.00  0.00    +0.000 C 
ATOM     33  N   UNL     1       0.684  11.653  18.607  0.00  0.00    +0.000 NA
ENDBRANCH  29  32
ENDBRANCH  25  26
ENDBRANCH  24  25
ENDBRANCH  19  20
ENDBRANCH   1  19
TORSDOF 11
ENDMDL
MODEL 4
REMARK VINA RESULT:      -7.5      5.077      9.127
REMARK  Name = 
REMARK  12 active torsions:
REMARK  status: ('A' for Active; 'I' for Inactive)
REMARK    1  A    between atoms: C_1  and  C_2
REMARK    2  A    between atoms: C_2  and  C_3
REMARK    3  A    between atoms: C_3  and  C_4
REMARK    4  A    between atoms: C_4  and  N_5
REMARK    5  A    between atoms: N_5  and  C_6
REMARK    6  A    between atoms: N_5  and  C_21
REMARK    7  A    between atoms: C_6  and  C_7
REMARK    8  A    between atoms: N_11  and  C_12
REMARK    9  A    between atoms: C_12  and  C_13
REMARK   10  A    between atoms: C_16  and  C_17
REMARK   11  A    between atoms: N_24  and  C_25
REMARK   12  A    between atoms: C_25  and  C_26
REMARK                            x       y       z     vdW  Elec       q    Type
REMARK                         _______ _______ _______ _____ _____    ______ ____
ROOT
ATOM      1  N   UNL     1      -0.097  10.887  18.821  0.00  0.00    +0.000 NA
ENDROOT
BRANCH   1   2
ATOM      2  C   UNL     1       0.792  10.071  19.677  0.00  0.00    +0.000 C 
ATOM      3  C   UNL     1       0.163   9.283  20.842  0.00  0.00    +0.000 C 
ATOM      4  C   UNL     1       1.241   8.256  21.173  0.00  0.00    +0.000 C 
ATOM      5  N   UNL     1       1.800   7.953  19.885  0.00  0.00    +0.000 N 
ATOM      6  C   UNL     1       1.496   8.917  18.940  0.00  0.00    +0.000 C 
ATOM      7  O   UNL     1       1.837   8.853  17.769  0.00  0.00    +0.000 OA
BRANCH   5   8
ATOM      8  C   UNL     1       2.720   6.868  19.634  0.00  0.00    +0.000 C 
BRANCH   8   9
ATOM      9  C   UNL     1       2.049   5.539  19.423  0.00  0.00    +0.000 A 
ATOM     10  C   UNL     1       1.966   4.964  18.145  0.00  0.00    +0.000 A 
ATOM     11  C   UNL     1       1.462   3.676  17.976  0.00  0.00    +0.000 A 
ATOM     12  C   UNL     1       1.041   2.946  19.083  0.00  0.00    +0.000 A 
ATOM     13  C   UNL     1       1.104   3.510  20.356  0.00  0.00    +0.000 A 
ATOM     14  C   UNL     1       1.603   4.802  20.527  0.00  0.00    +0.000 A 
ENDBRANCH   8   9
ENDBRANCH   5   8
ENDBRANCH   1   2
BRANCH   1  15
ATOM     15  C   UNL     1      -1.361  10.179  18.525  0.00  0.00    +0.000 C 
BRANCH  15  16
ATOM     16  C   UNL     1      -1.684   9.882  17.047  0.00  0.00    +0.000 C 
BRANCH  16  18
ATOM     17  C   UNL     1      -3.204  10.317  15.098  0.00  0.00    +0.000 C 
ATOM     18  C   UNL     1      -2.595  10.905  16.366  0.00  0.00    +0.000 C 
ENDBRANCH  16  18
ENDBRANCH  15  16
ENDBRANCH   1  15
BRANCH   1  19
ATOM     19  C   UNL     1      -0.303  12.242  19.394  0.00  0.00    +0.000 C 
BRANCH  19  20
ATOM     20  C   UNL     1       0.714  13.285  19.026  0.00  0.00    +0.000 A 
ATOM     21  C   UNL     1       1.916  13.072  18.371  0.00  0.00    +0.000 A 
ATOM     22  N   UNL     1       2.661  14.209  18.284  0.00  0.00    +0.000 NA
ATOM     23  C   UNL     1       1.958  15.119  18.910  0.00  0.00    +0.000 A 
ATOM     24  N   UNL     1       0.749  14.634  19.357  0.00  0.00    +0.000 N 
BRANCH  24  25
ATOM     25  C   UNL     1      -0.098  15.428  20.251  0.00  0.00    +0.000 C 
BRANCH  25  26
ATOM     26  C   UNL     1      -0.961  14.682  21.267  0.00  0.00    +0.000 A 
ATOM     27  C   UNL     1      -0.488  14.039  22.420  0.00  0.00    +0.000 A 
ATOM     28  C   UNL     1      -1.365  13.352  23.279  0.00  0.00    +0.000 A 
ATOM     29  C   UNL     1      -2.732  13.270  22.994  0.00  0.00    +0.000 A 
ATOM     30  C   UNL     1      -3.223  13.911  21.855  0.00  0.00    +0.000 A 
ATOM     31  C   UNL     1      -2.346  14.602  21.005  0.00  0.00    +0.000 A 
BRANCH  29  32
ATOM     32  C   UNL     1      -3.623  12.545  23.862  0.00  0.00    +0.000 C 
ATOM     33  N   UNL     1      -4.341  11.960  24.568  0.00  0.00    +0.000 NA
ENDBRANCH  29  32
ENDBRANCH  25  26
ENDBRANCH  24  25
ENDBRANCH  19  20
ENDBRANCH   1  19
TORSDOF 11
ENDMDL
MODEL 5
REMARK VINA RESULT:      -7.5      3.395      6.330
REMARK  Name = 
REMARK  12 active torsions:
REMARK  status: ('A' for Active; 'I' for Inactive)
REMARK    1  A    between atoms: C_1  and  C_2
REMARK    2  A    between atoms: C_2  and  C_3
REMARK    3  A    between atoms: C_3  and  C_4
REMARK    4  A    between atoms: C_4  and  N_5
REMARK    5  A    between atoms: N_5  and  C_6
REMARK    6  A    between atoms: N_5  and  C_21
REMARK    7  A    between atoms: C_6  and  C_7
REMARK    8  A    between atoms: N_11  and  C_12
REMARK    9  A    between atoms: C_12  and  C_13
REMARK   10  A    between atoms: C_16  and  C_17
REMARK   11  A    between atoms: N_24  and  C_25
REMARK   12  A    between atoms: C_25  and  C_26
REMARK                            x       y       z     vdW  Elec       q    Type
REMARK                         _______ _______ _______ _____ _____    ______ ____
ROOT
ATOM      1  N   UNL     1       2.692   5.864  18.489  0.00  0.00    +0.000 NA
ENDROOT
BRANCH   1   2
ATOM      2  C   UNL     1       4.149   5.614  18.433  0.00  0.00    +0.000 C 
ATOM      3  C   UNL     1       4.644   4.157  18.492  0.00  0.00    +0.000 C 
ATOM      4  C   UNL     1       6.070   4.265  17.958  0.00  0.00    +0.000 C 
ATOM      5  N   UNL     1       5.961   5.294  16.962  0.00  0.00    +0.000 N 
ATOM      6  C   UNL     1       4.817   6.057  17.118  0.00  0.00    +0.000 C 
ATOM      7  O   UNL     1       4.499   6.966  16.368  0.00  0.00    +0.000 OA
BRANCH   5   8
ATOM      8  C   UNL     1       7.001   5.620  16.015  0.00  0.00    +0.000 C 
BRANCH   8   9
ATOM      9  C   UNL     1       6.869   4.907  14.698  0.00  0.00    +0.000 A 
ATOM     10  C   UNL     1       5.819   4.002  14.467  0.00  0.00    +0.000 A 
ATOM     11  C   UNL     1       5.625   3.445  13.205  0.00  0.00    +0.000 A 
ATOM     12  C   UNL     1       6.473   3.790  12.158  0.00  0.00    +0.000 A 
ATOM     13  C   UNL     1       7.527   4.676  12.376  0.00  0.00    +0.000 A 
ATOM     14  C   UNL     1       7.727   5.230  13.641  0.00  0.00    +0.000 A 
ENDBRANCH   8   9
ENDBRANCH   5   8
ENDBRANCH   1   2
BRANCH   1  15
ATOM     15  C   UNL     1       1.933   4.600  18.608  0.00  0.00    +0.000 C 
BRANCH  15  16
ATOM     16  C   UNL     1       1.458   4.182  20.015  0.00  0.00    +0.000 C 
BRANCH  16  18
ATOM     17  C   UNL     1       1.519   2.518  21.892  0.00  0.00    +0.000 C 
ATOM     18  C   UNL     1       1.798   2.744  20.410  0.00  0.00    +0.000 C 
ENDBRANCH  16  18
ENDBRANCH  15  16
ENDBRANCH   1  15
BRANCH   1  19
ATOM     19  C   UNL     1       2.354   6.853  19.544  0.00  0.00    +0.000 C 
BRANCH  19  20
ATOM     20  C   UNL     1       1.867   8.194  19.071  0.00  0.00    +0.000 A 
ATOM     21  C   UNL     1       1.981   8.710  17.791  0.00  0.00    +0.000 A 
ATOM     22  N   UNL     1       1.535   9.995  17.714  0.00  0.00    +0.000 NA
ATOM     23  C   UNL     1       1.182  10.301  18.937  0.00  0.00    +0.000 A 
ATOM     24  N   UNL     1       1.327   9.242  19.807  0.00  0.00    +0.000 N 
BRANCH  24  25
ATOM     25  C   UNL     1       1.179   9.428  21.253  0.00  0.00    +0.000 C 
BRANCH  25  26
ATOM     26  C   UNL     1       0.276  10.559  21.739  0.00  0.00    +0.000 A 
ATOM     27  C   UNL     1       0.382  11.905  21.362  0.00  0.00    +0.000 A 
ATOM     28  C   UNL     1      -0.484  12.878  21.892  0.00  0.00    +0.000 A 
ATOM     29  C   UNL     1      -1.462  12.534  22.831  0.00  0.00    +0.000 A 
ATOM     30  C   UNL     1      -1.588  11.197  23.215  0.00  0.00    +0.000 A 
ATOM     31  C   UNL     1      -0.728  10.228  22.676  0.00  0.00    +0.000 A 
BRANCH  29  32
ATOM     32  C   UNL     1      -2.331  13.536  23.391  0.00  0.00    +0.000 C 
ATOM     33  N   UNL     1      -3.030  14.350  23.845  0.00  0.00    +0.000 NA
ENDBRANCH  29  32
ENDBRANCH  25  26
ENDBRANCH  24  25
ENDBRANCH  19  20
ENDBRANCH   1  19
TORSDOF 11
ENDMDL
MODEL 6
REMARK VINA RESULT:      -7.4      3.452      6.191
REMARK  Name = 
REMARK  12 active torsions:
REMARK  status: ('A' for Active; 'I' for Inactive)
REMARK    1  A    between atoms: C_1  and  C_2
REMARK    2  A    between atoms: C_2  and  C_3
REMARK    3  A    between atoms: C_3  and  C_4
REMARK    4  A    between atoms: C_4  and  N_5
REMARK    5  A    between atoms: N_5  and  C_6
REMARK    6  A    between atoms: N_5  and  C_21
REMARK    7  A    between atoms: C_6  and  C_7
REMARK    8  A    between atoms: N_11  and  C_12
REMARK    9  A    between atoms: C_12  and  C_13
REMARK   10  A    between atoms: C_16  and  C_17
REMARK   11  A    between atoms: N_24  and  C_25
REMARK   12  A    between atoms: C_25  and  C_26
REMARK                            x       y       z     vdW  Elec       q    Type
REMARK                         _______ _______ _______ _____ _____    ______ ____
ROOT
ATOM      1  N   UNL     1       2.925   6.560  17.639  0.00  0.00    +0.000 NA
ENDROOT
BRANCH   1   2
ATOM      2  C   UNL     1       4.359   6.236  17.801  0.00  0.00    +0.000 C 
ATOM      3  C   UNL     1       4.738   4.832  18.309  0.00  0.00    +0.000 C 
ATOM      4  C   UNL     1       6.207   4.717  17.914  0.00  0.00    +0.000 C 
ATOM      5  N   UNL     1       6.258   5.429  16.667  0.00  0.00    +0.000 N 
ATOM      6  C   UNL     1       5.166   6.258  16.490  0.00  0.00    +0.000 C 
ATOM      7  O   UNL     1       4.980   6.934  15.490  0.00  0.00    +0.000 OA
BRANCH   5   8
ATOM      8  C   UNL     1       7.396   5.425  15.776  0.00  0.00    +0.000 C 
BRANCH   8   9
ATOM      9  C   UNL     1       7.125   4.775  14.448  0.00  0.00    +0.000 A 
ATOM     10  C   UNL     1       6.099   3.828  14.301  0.00  0.00    +0.000 A 
ATOM     11  C   UNL     1       5.766   3.328  13.044  0.00  0.00    +0.000 A 
ATOM     12  C   UNL     1       6.451   3.774  11.918  0.00  0.00    +0.000 A 
ATOM     13  C   UNL     1       7.481   4.703  12.051  0.00  0.00    +0.000 A 
ATOM     14  C   UNL     1       7.819   5.201  13.310  0.00  0.00    +0.000 A 
ENDBRANCH   8   9
ENDBRANCH   5   8
ENDBRANCH   1   2
BRANCH   1  15
ATOM     15  C   UNL     1       2.074   5.664  18.451  0.00  0.00    +0.000 C 
BRANCH  15  16
ATOM     16  C   UNL     1       1.442   4.447  17.746  0.00  0.00    +0.000 C 
BRANCH  16  18
ATOM     17  C   UNL     1       0.961   3.654  20.077  0.00  0.00    +0.000 C 
ATOM     18  C   UNL     1       1.224   3.224  18.638  0.00  0.00    +0.000 C 
ENDBRANCH  16  18
ENDBRANCH  15  16
ENDBRANCH   1  15
BRANCH   1  19
ATOM     19  C   UNL     1       2.666   8.001  17.890  0.00  0.00    +0.000 C 
BRANCH  19  20
ATOM     20  C   UNL     1       1.984   8.343  19.185  0.00  0.00    +0.000 A 
ATOM     21  C   UNL     1       1.842   7.515  20.287  0.00  0.00    +0.000 A 
ATOM     22  N   UNL     1       1.079   8.086  21.261  0.00  0.00    +0.000 NA
ATOM     23  C   UNL     1       0.711   9.241  20.766  0.00  0.00    +0.000 A 
ATOM     24  N   UNL     1       1.253   9.476  19.521  0.00  0.00    +0.000 N 
BRANCH  24  25
ATOM     25  C   UNL     1       0.812  10.613  18.709  0.00  0.00    +0.000 C 
BRANCH  25  26
ATOM     26  C   UNL     1      -0.691  10.829  18.539  0.00  0.00    +0.000 A 
ATOM     27  C   UNL     1      -1.449  11.816  19.184  0.00  0.00    +0.000 A 
ATOM     28  C   UNL     1      -2.838  11.914  18.981  0.00  0.00    +0.000 A 
ATOM     29  C   UNL     1      -3.505  11.011  18.146  0.00  0.00    +0.000 A 
ATOM     30  C   UNL     1      -2.767  10.026  17.489  0.00  0.00    +0.000 A 
ATOM     31  C   UNL     1      -1.380   9.938  17.688  0.00  0.00    +0.000 A 
BRANCH  29  32
ATOM     32  C   UNL     1      -4.931  11.098  17.960  0.00  0.00    +0.000 C 
ATOM     33  N   UNL     1      -6.085  11.165  17.812  0.00  0.00    +0.000 NA
ENDBRANCH  29  32
ENDBRANCH  25  26
ENDBRANCH  24  25
ENDBRANCH  19  20
ENDBRANCH   1  19
TORSDOF 11
ENDMDL
MODEL 7
REMARK VINA RESULT:      -7.4      2.010      5.923
REMARK  Name = 
REMARK  12 active torsions:
REMARK  status: ('A' for Active; 'I' for Inactive)
REMARK    1  A    between atoms: C_1  and  C_2
REMARK    2  A    between atoms: C_2  and  C_3
REMARK    3  A    between atoms: C_3  and  C_4
REMARK    4  A    between atoms: C_4  and  N_5
REMARK    5  A    between atoms: N_5  and  C_6
REMARK    6  A    between atoms: N_5  and  C_21
REMARK    7  A    between atoms: C_6  and  C_7
REMARK    8  A    between atoms: N_11  and  C_12
REMARK    9  A    between atoms: C_12  and  C_13
REMARK   10  A    between atoms: C_16  and  C_17
REMARK   11  A    between atoms: N_24  and  C_25
REMARK   12  A    between atoms: C_25  and  C_26
REMARK                            x       y       z     vdW  Elec       q    Type
REMARK                         _______ _______ _______ _____ _____    ______ ____
ROOT
ATOM      1  N   UNL     1       6.355   4.726  18.417  0.00  0.00    +0.000 NA
ENDROOT
BRANCH   1   2
ATOM      2  C   UNL     1       5.836   4.783  17.034  0.00  0.00    +0.000 C 
ATOM      3  C   UNL     1       5.184   6.092  16.551  0.00  0.00    +0.000 C 
ATOM      4  C   UNL     1       5.206   5.938  15.033  0.00  0.00    +0.000 C 
ATOM      5  N   UNL     1       6.436   5.234  14.801  0.00  0.00    +0.000 N 
ATOM      6  C   UNL     1       6.912   4.618  15.945  0.00  0.00    +0.000 C 
ATOM      7  O   UNL     1       7.959   3.991  15.994  0.00  0.00    +0.000 OA
BRANCH   5   8
ATOM      8  C   UNL     1       7.023   5.033  13.497  0.00  0.00    +0.000 C 
BRANCH   8   9
ATOM      9  C   UNL     1       6.450   3.863  12.747  0.00  0.00    +0.000 A 
ATOM     10  C   UNL     1       5.065   3.740  12.546  0.00  0.00    +0.000 A 
ATOM     11  C   UNL     1       4.550   2.727  11.740  0.00  0.00    +0.000 A 
ATOM     12  C   UNL     1       5.414   1.830  11.119  0.00  0.00    +0.000 A 
ATOM     13  C   UNL     1       6.789   1.932  11.321  0.00  0.00    +0.000 A 
ATOM     14  C   UNL     1       7.306   2.942  12.132  0.00  0.00    +0.000 A 
ENDBRANCH   8   9
ENDBRANCH   5   8
ENDBRANCH   1   2
BRANCH   1  15
ATOM     15  C   UNL     1       7.713   5.305  18.508  0.00  0.00    +0.000 C 
BRANCH  15  16
ATOM     16  C   UNL     1       7.829   6.806  18.845  0.00  0.00    +0.000 C 
BRANCH  16  18
ATOM     17  C   UNL     1       8.307   9.145  18.072  0.00  0.00    +0.000 C 
ATOM     18  C   UNL     1       7.931   7.734  17.633  0.00  0.00    +0.000 C 
ENDBRANCH  16  18
ENDBRANCH  15  16
ENDBRANCH   1  15
BRANCH   1  19
ATOM     19  C   UNL     1       5.396   5.325  19.380  0.00  0.00    +0.000 C 
BRANCH  19  20
ATOM     20  C   UNL     1       4.006   4.753  19.382  0.00  0.00    +0.000 A 
ATOM     21  C   UNL     1       3.659   3.429  19.593  0.00  0.00    +0.000 A 
ATOM     22  N   UNL     1       2.324   3.217  19.424  0.00  0.00    +0.000 NA
ATOM     23  C   UNL     1       1.841   4.381  19.071  0.00  0.00    +0.000 A 
ATOM     24  N   UNL     1       2.802   5.367  19.059  0.00  0.00    +0.000 N 
BRANCH  24  25
ATOM     25  C   UNL     1       2.517   6.693  18.503  0.00  0.00    +0.000 C 
BRANCH  25  26
ATOM     26  C   UNL     1       1.916   7.744  19.435  0.00  0.00    +0.000 A 
ATOM     27  C   UNL     1       1.695   7.582  20.809  0.00  0.00    +0.000 A 
ATOM     28  C   UNL     1       1.107   8.605  21.576  0.00  0.00    +0.000 A 
ATOM     29  C   UNL     1       0.702   9.804  20.981  0.00  0.00    +0.000 A 
ATOM     30  C   UNL     1       0.920   9.988  19.614  0.00  0.00    +0.000 A 
ATOM     31  C   UNL     1       1.516   8.968  18.856  0.00  0.00    +0.000 A 
BRANCH  29  32
ATOM     32  C   UNL     1       0.078  10.840  21.763  0.00  0.00    +0.000 C 
ATOM     33  N   UNL     1      -0.426  11.681  22.393  0.00  0.00    +0.000 NA
ENDBRANCH  29  32
ENDBRANCH  25  26
ENDBRANCH  24  25
ENDBRANCH  19  20
ENDBRANCH   1  19
TORSDOF 11
ENDMDL
MODEL 8
REMARK VINA RESULT:      -7.3      5.135      9.702
REMARK  Name = 
REMARK  12 active torsions:
REMARK  status: ('A' for Active; 'I' for Inactive)
REMARK    1  A    between atoms: C_1  and  C_2
REMARK    2  A    between atoms: C_2  and  C_3
REMARK    3  A    between atoms: C_3  and  C_4
REMARK    4  A    between atoms: C_4  and  N_5
REMARK    5  A    between atoms: N_5  and  C_6
REMARK    6  A    between atoms: N_5  and  C_21
REMARK    7  A    between atoms: C_6  and  C_7
REMARK    8  A    between atoms: N_11  and  C_12
REMARK    9  A    between atoms: C_12  and  C_13
REMARK   10  A    between atoms: C_16  and  C_17
REMARK   11  A    between atoms: N_24  and  C_25
REMARK   12  A    between atoms: C_25  and  C_26
REMARK                            x       y       z     vdW  Elec       q    Type
REMARK                         _______ _______ _______ _____ _____    ______ ____
ROOT
ATOM      1  N   UNL     1      -0.250  10.934  19.018  0.00  0.00    +0.000 NA
ENDROOT
BRANCH   1   2
ATOM      2  C   UNL     1       0.642  10.091  19.843  0.00  0.00    +0.000 C 
ATOM      3  C   UNL     1       0.012   9.217  20.944  0.00  0.00    +0.000 C 
ATOM      4  C   UNL     1       1.110   8.200  21.236  0.00  0.00    +0.000 C 
ATOM      5  N   UNL     1       1.703   7.991  19.944  0.00  0.00    +0.000 N 
ATOM      6  C   UNL     1       1.393   9.002  19.054  0.00  0.00    +0.000 C 
ATOM      7  O   UNL     1       1.758   9.018  17.888  0.00  0.00    +0.000 OA
BRANCH   5   8
ATOM      8  C   UNL     1       2.657   6.947  19.649  0.00  0.00    +0.000 C 
BRANCH   8   9
ATOM      9  C   UNL     1       2.032   5.598  19.427  0.00  0.00    +0.000 A 
ATOM     10  C   UNL     1       2.051   4.989  18.162  0.00  0.00    +0.000 A 
ATOM     11  C   UNL     1       1.588   3.686  17.992  0.00  0.00    +0.000 A 
ATOM     12  C   UNL     1       1.107   2.974  19.086  0.00  0.00    +0.000 A 
ATOM     13  C   UNL     1       1.070   3.570  20.345  0.00  0.00    +0.000 A 
ATOM     14  C   UNL     1       1.527   4.877  20.516  0.00  0.00    +0.000 A 
ENDBRANCH   8   9
ENDBRANCH   5   8
ENDBRANCH   1   2
BRANCH   1  15
ATOM     15  C   UNL     1      -1.072  10.115  18.101  0.00  0.00    +0.000 C 
BRANCH  15  16
ATOM     16  C   UNL     1      -2.083  10.851  17.199  0.00  0.00    +0.000 C 
BRANCH  16  18
ATOM     17  C   UNL     1      -4.557  11.197  16.958  0.00  0.00    +0.000 C 
ATOM     18  C   UNL     1      -3.441  10.162  17.054  0.00  0.00    +0.000 C 
ENDBRANCH  16  18
ENDBRANCH  15  16
ENDBRANCH   1  15
BRANCH   1  19
ATOM     19  C   UNL     1      -1.054  11.855  19.862  0.00  0.00    +0.000 C 
BRANCH  19  20
ATOM     20  C   UNL     1      -0.757  13.322  19.721  0.00  0.00    +0.000 A 
ATOM     21  C   UNL     1      -0.150  13.942  18.641  0.00  0.00    +0.000 A 
ATOM     22  N   UNL     1       0.073  15.266  18.870  0.00  0.00    +0.000 NA
ATOM     23  C   UNL     1      -0.349  15.471  20.092  0.00  0.00    +0.000 A 
ATOM     24  N   UNL     1      -0.897  14.340  20.656  0.00  0.00    +0.000 N 
BRANCH  24  25
ATOM     25  C   UNL     1      -1.245  14.300  22.079  0.00  0.00    +0.000 C 
BRANCH  25  26
ATOM     26  C   UNL     1      -2.696  14.003  22.451  0.00  0.00    +0.000 A 
ATOM     27  C   UNL     1      -3.813  14.729  22.014  0.00  0.00    +0.000 A 
ATOM     28  C   UNL     1      -5.111  14.391  22.440  0.00  0.00    +0.000 A 
ATOM     29  C   UNL     1      -5.320  13.334  23.332  0.00  0.00    +0.000 A 
ATOM     30  C   UNL     1      -4.221  12.595  23.773  0.00  0.00    +0.000 A 
ATOM     31  C   UNL     1      -2.930  12.930  23.338  0.00  0.00    +0.000 A 
BRANCH  29  32
ATOM     32  C   UNL     1      -6.647  13.006  23.786  0.00  0.00    +0.000 C 
ATOM     33  N   UNL     1      -7.722  12.740  24.149  0.00  0.00    +0.000 NA
ENDBRANCH  29  32
ENDBRANCH  25  26
ENDBRANCH  24  25
ENDBRANCH  19  20
ENDBRANCH   1  19
TORSDOF 11
ENDMDL
MODEL 9
REMARK VINA RESULT:      -7.3      1.992      5.819
REMARK  Name = 
REMARK  12 active torsions:
REMARK  status: ('A' for Active; 'I' for Inactive)
REMARK    1  A    between atoms: C_1  and  C_2
REMARK    2  A    between atoms: C_2  and  C_3
REMARK    3  A    between atoms: C_3  and  C_4
REMARK    4  A    between atoms: C_4  and  N_5
REMARK    5  A    between atoms: N_5  and  C_6
REMARK    6  A    between atoms: N_5  and  C_21
REMARK    7  A    between atoms: C_6  and  C_7
REMARK    8  A    between atoms: N_11  and  C_12
REMARK    9  A    between atoms: C_12  and  C_13
REMARK   10  A    between atoms: C_16  and  C_17
REMARK   11  A    between atoms: N_24  and  C_25
REMARK   12  A    between atoms: C_25  and  C_26
REMARK                            x       y       z     vdW  Elec       q    Type
REMARK                         _______ _______ _______ _____ _____    ______ ____
ROOT
ATOM      1  N   UNL     1       6.401   4.569  18.354  0.00  0.00    +0.000 NA
ENDROOT
BRANCH   1   2
ATOM      2  C   UNL     1       5.913   4.620  16.959  0.00  0.00    +0.000 C 
ATOM      3  C   UNL     1       5.166   5.884  16.492  0.00  0.00    +0.000 C 
ATOM      4  C   UNL     1       5.238   5.774  14.972  0.00  0.00    +0.000 C 
ATOM      5  N   UNL     1       6.528   5.180  14.756  0.00  0.00    +0.000 N 
ATOM      6  C   UNL     1       7.025   4.575  15.896  0.00  0.00    +0.000 C 
ATOM      7  O   UNL     1       8.119   4.036  15.957  0.00  0.00    +0.000 OA
BRANCH   5   8
ATOM      8  C   UNL     1       7.162   5.065  13.462  0.00  0.00    +0.000 C 
BRANCH   8   9
ATOM      9  C   UNL     1       6.588   3.975  12.600  0.00  0.00    +0.000 A 
ATOM     10  C   UNL     1       7.414   2.997  12.023  0.00  0.00    +0.000 A 
ATOM     11  C   UNL     1       6.864   1.916  11.335  0.00  0.00    +0.000 A 
ATOM     12  C   UNL     1       5.483   1.798  11.223  0.00  0.00    +0.000 A 
ATOM     13  C   UNL     1       4.651   2.768  11.780  0.00  0.00    +0.000 A 
ATOM     14  C   UNL     1       5.200   3.854  12.463  0.00  0.00    +0.000 A 
ENDBRANCH   8   9
ENDBRANCH   5   8
ENDBRANCH   1   2
BRANCH   1  15
ATOM     15  C   UNL     1       7.675   5.304  18.508  0.00  0.00    +0.000 C 
BRANCH  15  16
ATOM     16  C   UNL     1       7.596   6.813  18.817  0.00  0.00    +0.000 C 
BRANCH  16  18
ATOM     17  C   UNL     1       8.349   9.107  18.131  0.00  0.00    +0.000 C 
ATOM     18  C   UNL     1       7.912   7.732  17.636  0.00  0.00    +0.000 C 
ENDBRANCH  16  18
ENDBRANCH  15  16
ENDBRANCH   1  15
BRANCH   1  19
ATOM     19  C   UNL     1       5.352   5.007  19.310  0.00  0.00    +0.000 C 
BRANCH  19  20
ATOM     20  C   UNL     1       4.165   4.097  19.462  0.00  0.00    +0.000 A 
ATOM     21  C   UNL     1       4.168   2.816  19.988  0.00  0.00    +0.000 A 
ATOM     22  N   UNL     1       2.949   2.217  19.887  0.00  0.00    +0.000 NA
ATOM     23  C   UNL     1       2.196   3.092  19.269  0.00  0.00    +0.000 A 
ATOM     24  N   UNL     1       2.862   4.270  19.011  0.00  0.00    +0.000 N 
BRANCH  24  25
ATOM     25  C   UNL     1       2.268   5.301  18.156  0.00  0.00    +0.000 C 
BRANCH  25  26
ATOM     26  C   UNL     1       1.936   6.651  18.789  0.00  0.00    +0.000 A 
ATOM     27  C   UNL     1       1.939   7.884  18.124  0.00  0.00    +0.000 A 
ATOM     28  C   UNL     1       1.647   9.079  18.807  0.00  0.00    +0.000 A 
ATOM     29  C   UNL     1       1.369   9.071  20.178  0.00  0.00    +0.000 A 
ATOM     30  C   UNL     1       1.354   7.852  20.857  0.00  0.00    +0.000 A 
ATOM     31  C   UNL     1       1.637   6.662  20.169  0.00  0.00    +0.000 A 
BRANCH  29  32
ATOM     32  C   UNL     1       1.094  10.299  20.880  0.00  0.00    +0.000 C 
ATOM     33  N   UNL     1       0.868  11.291  21.446  0.00  0.00    +0.000 NA
ENDBRANCH  29  32
ENDBRANCH  25  26
ENDBRANCH  24  25
ENDBRANCH  19  20
ENDBRANCH   1  19
TORSDOF 11
ENDMDL
