MODEL 1
REMARK VINA RESULT:      -7.4      0.000      0.000
REMARK  Name = 
REMARK  5 active torsions:
REMARK  status: ('A' for Active; 'I' for Inactive)
REMARK    1  A    between atoms: C_1  and  C_2
REMARK    2  A    between atoms: C_3  and  N_4
REMARK    3  A    between atoms: N_4  and  C_5
REMARK    4  A    between atoms: C_11  and  C_12
REMARK    5  A    between atoms: C_19  and  N_20
REMARK                            x       y       z     vdW  Elec       q    Type
REMARK                         _______ _______ _______ _____ _____    ______ ____
ROOT
ATOM      1  C   UNL     1       1.379   8.910  17.459  0.00  0.00    +0.000 C 
ATOM      2  C   UNL     1       0.696   9.196  18.774  0.00  0.00    +0.000 A 
ATOM      3  C   UNL     1      -0.487  10.130  18.821  0.00  0.00    +0.000 A 
ATOM      4  C   UNL     1      -0.901  10.589  20.043  0.00  0.00    +0.000 A 
ATOM      5  C   UNL     1      -0.261  10.160  21.245  0.00  0.00    +0.000 A 
ATOM      6  C   UNL     1      -0.402  10.482  22.580  0.00  0.00    +0.000 A 
ATOM      7  C   UNL     1       0.551   9.695  23.240  0.00  0.00    +0.000 A 
ATOM      8  N   UNL     1       1.264   8.944  22.402  0.00  0.00    +0.000 NA
ATOM      9  N   UNL     1       0.756   9.220  21.157  0.00  0.00    +0.000 N 
ATOM     10  C   UNL     1       1.238   8.696  19.930  0.00  0.00    +0.000 A 
ENDROOT
BRANCH  10  11
ATOM     11  N   UNL     1       2.328   7.819  20.050  0.00  0.00    +0.000 N 
ATOM     12  C   UNL     1       2.366   6.462  19.965  0.00  0.00    +0.000 A 
ATOM     13  N   UNL     1       1.355   5.639  20.152  0.00  0.00    +0.000 NA
ATOM     14  C   UNL     1       1.693   4.350  19.760  0.00  0.00    +0.000 A 
ATOM     15  C   UNL     1       0.828   3.236  19.729  0.00  0.00    +0.000 A 
ATOM     16  C   UNL     1       1.262   2.024  19.177  0.00  0.00    +0.000 A 
ATOM     17  C   UNL     1       2.558   1.903  18.683  0.00  0.00    +0.000 A 
ATOM     18  C   UNL     1       3.458   2.971  18.768  0.00  0.00    +0.000 A 
ATOM     19  C   UNL     1       3.005   4.188  19.312  0.00  0.00    +0.000 A 
ATOM     20  S   UNL     1       3.847   5.673  19.547  0.00  0.00    +0.000 S 
ATOM     21  H   UNL     1       3.114   8.256  20.538  0.00  0.00    +0.000 HD
ENDBRANCH  10  11
BRANCH   3  22
ATOM     22  N   UNL     1      -1.050  10.532  17.596  0.00  0.00    +0.000 N 
ATOM     23  H   UNL     1      -0.493  11.180  17.050  0.00  0.00    +0.000 HD
BRANCH  22  24
ATOM     24  C   UNL     1      -2.060   9.824  16.779  0.00  0.00    +0.000 C 
ATOM     25  C   UNL     1      -2.543  10.654  15.581  0.00  0.00    +0.000 C 
ATOM     26  C   UNL     1      -3.466  11.801  15.988  0.00  0.00    +0.000 C 
ATOM     27  C   UNL     1      -4.656  11.325  16.814  0.00  0.00    +0.000 C 
ATOM     28  N   UNL     1      -4.329  10.425  17.908  0.00  0.00    +0.000 NA
ATOM     29  C   UNL     1      -3.287   9.424  17.649  0.00  0.00    +0.000 C 
ATOM     30  H   UNL     1      -4.202  10.905  18.793  0.00  0.00    +0.000 HD
ENDBRANCH  22  24
ENDBRANCH   3  22
BRANCH   4  31
ATOM     31  C   UNL     1      -2.059  11.563  20.189  0.00  0.00    +0.000 C 
ATOM     32  N   UNL     1      -3.020  12.371  20.310  0.00  0.00    +0.000 NA
ENDBRANCH   4  31
TORSDOF 4
ENDMDL
MODEL 2
REMARK VINA RESULT:      -7.2      2.298      4.903
REMARK  Name = 
REMARK  5 active torsions:
REMARK  status: ('A' for Active; 'I' for Inactive)
REMARK    1  A    between atoms: C_1  and  C_2
REMARK    2  A    between atoms: C_3  and  N_4
REMARK    3  A    between atoms: N_4  and  C_5
REMARK    4  A    between atoms: C_11  and  C_12
REMARK    5  A    between atoms: C_19  and  N_20
REMARK                            x       y       z     vdW  Elec       q    Type
REMARK                         _______ _______ _______ _____ _____    ______ ____
ROOT
ATOM      1  C   UNL     1       1.053  12.094  20.830  0.00  0.00    +0.000 C 
ATOM      2  C   UNL     1      -0.159  11.957  19.942  0.00  0.00    +0.000 A 
ATOM      3  C   UNL     1      -1.462  12.605  20.338  0.00  0.00    +0.000 A 
ATOM      4  C   UNL     1      -2.600  12.232  19.673  0.00  0.00    +0.000 A 
ATOM      5  C   UNL     1      -2.548  11.289  18.602  0.00  0.00    +0.000 A 
ATOM      6  C   UNL     1      -3.500  10.684  17.805  0.00  0.00    +0.000 A 
ATOM      7  C   UNL     1      -2.770   9.850  16.948  0.00  0.00    +0.000 A 
ATOM      8  N   UNL     1      -1.459   9.895  17.184  0.00  0.00    +0.000 NA
ATOM      9  N   UNL     1      -1.313  10.799  18.206  0.00  0.00    +0.000 N 
ATOM     10  C   UNL     1      -0.091  11.139  18.843  0.00  0.00    +0.000 A 
ENDROOT
BRANCH  10  11
ATOM     11  N   UNL     1       1.040  10.472  18.346  0.00  0.00    +0.000 N 
ATOM     12  C   UNL     1       1.568   9.271  18.704  0.00  0.00    +0.000 A 
ATOM     13  N   UNL     1       1.390   8.649  19.850  0.00  0.00    +0.000 NA
ATOM     14  C   UNL     1       1.879   7.351  19.785  0.00  0.00    +0.000 A 
ATOM     15  C   UNL     1       1.771   6.369  20.793  0.00  0.00    +0.000 A 
ATOM     16  C   UNL     1       2.185   5.055  20.541  0.00  0.00    +0.000 A 
ATOM     17  C   UNL     1       2.733   4.717  19.308  0.00  0.00    +0.000 A 
ATOM     18  C   UNL     1       2.919   5.688  18.318  0.00  0.00    +0.000 A 
ATOM     19  C   UNL     1       2.485   7.002  18.577  0.00  0.00    +0.000 A 
ATOM     20  S   UNL     1       2.560   8.406  17.581  0.00  0.00    +0.000 S 
ATOM     21  H   UNL     1       1.677  11.114  17.867  0.00  0.00    +0.000 HD
ENDBRANCH  10  11
BRANCH   3  22
ATOM     22  N   UNL     1      -1.440  13.504  21.421  0.00  0.00    +0.000 N 
ATOM     23  H   UNL     1      -1.966  14.360  21.289  0.00  0.00    +0.000 HD
BRANCH  22  24
ATOM     24  C   UNL     1      -1.185  13.208  22.848  0.00  0.00    +0.000 C 
ATOM     25  C   UNL     1      -2.016  12.025  23.367  0.00  0.00    +0.000 C 
ATOM     26  C   UNL     1      -3.491  12.374  23.554  0.00  0.00    +0.000 C 
ATOM     27  C   UNL     1      -3.690  13.593  24.450  0.00  0.00    +0.000 C 
ATOM     28  N   UNL     1      -2.857  14.740  24.127  0.00  0.00    +0.000 NA
ATOM     29  C   UNL     1      -1.473  14.458  23.728  0.00  0.00    +0.000 C 
ATOM     30  H   UNL     1      -3.316  15.404  23.512  0.00  0.00    +0.000 HD
ENDBRANCH  22  24
ENDBRANCH   3  22
BRANCH   4  31
ATOM     31  C   UNL     1      -3.964  12.801  20.027  0.00  0.00    +0.000 C 
ATOM     32  N   UNL     1      -5.096  13.274  20.320  0.00  0.00    +0.000 NA
ENDBRANCH   4  31
TORSDOF 4
ENDMDL
MODEL 3
REMARK VINA RESULT:      -7.0      3.046      8.257
REMARK  Name = 
REMARK  5 active torsions:
REMARK  status: ('A' for Active; 'I' for Inactive)
REMARK    1  A    between atoms: C_1  and  C_2
REMARK    2  A    between atoms: C_3  and  N_4
REMARK    3  A    between atoms: N_4  and  C_5
REMARK    4  A    between atoms: C_11  and  C_12
REMARK    5  A    between atoms: C_19  and  N_20
REMARK                            x       y       z     vdW  Elec       q    Type
REMARK                         _______ _______ _______ _____ _____    ______ ____
ROOT
ATOM      1  C   UNL     1       4.056   7.685  17.054  0.00  0.00    +0.000 C 
ATOM      2  C   UNL     1       3.580   6.566  17.947  0.00  0.00    +0.000 A 
ATOM      3  C   UNL     1       3.872   5.133  17.582  0.00  0.00    +0.000 A 
ATOM      4  C   UNL     1       3.195   4.144  18.245  0.00  0.00    +0.000 A 
ATOM      5  C   UNL     1       2.271   4.459  19.286  0.00  0.00    +0.000 A 
ATOM      6  C   UNL     1       1.414   3.714  20.073  0.00  0.00    +0.000 A 
ATOM      7  C   UNL     1       0.780   4.650  20.898  0.00  0.00    +0.000 A 
ATOM      8  N   UNL     1       1.175   5.899  20.653  0.00  0.00    +0.000 NA
ATOM      9  N   UNL     1       2.113   5.786  19.657  0.00  0.00    +0.000 N 
ATOM     10  C   UNL     1       2.780   6.865  19.021  0.00  0.00    +0.000 A 
ENDROOT
BRANCH  10  11
ATOM     11  N   UNL     1       2.422   8.139  19.488  0.00  0.00    +0.000 N 
ATOM     12  C   UNL     1       1.399   8.950  19.106  0.00  0.00    +0.000 A 
ATOM     13  N   UNL     1       0.760   8.913  17.955  0.00  0.00    +0.000 NA
ATOM     14  C   UNL     1      -0.369   9.720  17.995  0.00  0.00    +0.000 A 
ATOM     15  C   UNL     1      -1.339   9.845  16.977  0.00  0.00    +0.000 A 
ATOM     16  C   UNL     1      -2.505  10.587  17.205  0.00  0.00    +0.000 A 
ATOM     17  C   UNL     1      -2.700  11.230  18.424  0.00  0.00    +0.000 A 
ATOM     18  C   UNL     1      -1.720  11.182  19.422  0.00  0.00    +0.000 A 
ATOM     19  C   UNL     1      -0.560  10.420  19.187  0.00  0.00    +0.000 A 
ATOM     20  S   UNL     1       0.809  10.154  20.199  0.00  0.00    +0.000 S 
ATOM     21  H   UNL     1       3.202   8.601  19.963  0.00  0.00    +0.000 HD
ENDBRANCH  10  11
BRANCH   3  22
ATOM     22  N   UNL     1       4.773   4.900  16.527  0.00  0.00    +0.000 N 
ATOM     23  H   UNL     1       4.536   5.337  15.643  0.00  0.00    +0.000 HD
BRANCH  22  24
ATOM     24  C   UNL     1       6.205   4.535  16.612  0.00  0.00    +0.000 C 
ATOM     25  C   UNL     1       6.702   4.421  18.061  0.00  0.00    +0.000 C 
ATOM     26  C   UNL     1       6.859   5.779  18.743  0.00  0.00    +0.000 C 
ATOM     27  C   UNL     1       7.753   6.727  17.950  0.00  0.00    +0.000 C 
ATOM     28  N   UNL     1       7.452   6.820  16.531  0.00  0.00    +0.000 NA
ATOM     29  C   UNL     1       7.082   5.572  15.853  0.00  0.00    +0.000 C 
ATOM     30  H   UNL     1       6.830   7.589  16.306  0.00  0.00    +0.000 HD
ENDBRANCH  22  24
ENDBRANCH   3  22
BRANCH   4  31
ATOM     31  C   UNL     1       3.393   2.673  17.920  0.00  0.00    +0.000 C 
ATOM     32  N   UNL     1       3.558   1.452  17.651  0.00  0.00    +0.000 NA
ENDBRANCH   4  31
TORSDOF 4
ENDMDL
MODEL 4
REMARK VINA RESULT:      -6.7      2.857      5.709
REMARK  Name = 
REMARK  5 active torsions:
REMARK  status: ('A' for Active; 'I' for Inactive)
REMARK    1  A    between atoms: C_1  and  C_2
REMARK    2  A    between atoms: C_3  and  N_4
REMARK    3  A    between atoms: N_4  and  C_5
REMARK    4  A    between atoms: C_11  and  C_12
REMARK    5  A    between atoms: C_19  and  N_20
REMARK                            x       y       z     vdW  Elec       q    Type
REMARK                         _______ _______ _______ _____ _____    ______ ____
ROOT
ATOM      1  C   UNL     1      -0.321  12.254  21.432  0.00  0.00    +0.000 C 
ATOM      2  C   UNL     1      -1.405  12.263  20.383  0.00  0.00    +0.000 A 
ATOM      3  C   UNL     1      -2.808  12.675  20.752  0.00  0.00    +0.000 A 
ATOM      4  C   UNL     1      -3.817  12.404  19.866  0.00  0.00    +0.000 A 
ATOM      5  C   UNL     1      -3.543  11.790  18.606  0.00  0.00    +0.000 A 
ATOM      6  C   UNL     1      -4.327  11.346  17.560  0.00  0.00    +0.000 A 
ATOM      7  C   UNL     1      -3.418  10.835  16.625  0.00  0.00    +0.000 A 
ATOM      8  N   UNL     1      -2.155  10.919  17.039  0.00  0.00    +0.000 NA
ATOM      9  N   UNL     1      -2.224  11.525  18.269  0.00  0.00    +0.000 N 
ATOM     10  C   UNL     1      -1.126  11.778  19.131  0.00  0.00    +0.000 A 
ENDROOT
BRANCH  10  11
ATOM     11  N   UNL     1       0.121  11.362  18.638  0.00  0.00    +0.000 N 
ATOM     12  C   UNL     1       0.837  10.240  18.918  0.00  0.00    +0.000 A 
ATOM     13  N   UNL     1       0.728   9.494  19.997  0.00  0.00    +0.000 NA
ATOM     14  C   UNL     1       1.438   8.309  19.847  0.00  0.00    +0.000 A 
ATOM     15  C   UNL     1       1.465   7.234  20.761  0.00  0.00    +0.000 A 
ATOM     16  C   UNL     1       2.110   6.038  20.420  0.00  0.00    +0.000 A 
ATOM     17  C   UNL     1       2.752   5.913  19.191  0.00  0.00    +0.000 A 
ATOM     18  C   UNL     1       2.803   6.990  18.298  0.00  0.00    +0.000 A 
ATOM     19  C   UNL     1       2.138   8.181  18.646  0.00  0.00    +0.000 A 
ATOM     20  S   UNL     1       2.003   9.663  17.778  0.00  0.00    +0.000 S 
ATOM     21  H   UNL     1       0.654  12.144  18.247  0.00  0.00    +0.000 HD
ENDBRANCH  10  11
BRANCH   3  22
ATOM     22  N   UNL     1      -3.007  13.249  22.021  0.00  0.00    +0.000 N 
ATOM     23  H   UNL     1      -2.724  12.678  22.809  0.00  0.00    +0.000 HD
BRANCH  22  24
ATOM     24  C   UNL     1      -3.109  14.684  22.368  0.00  0.00    +0.000 C 
ATOM     25  C   UNL     1      -1.807  15.246  22.957  0.00  0.00    +0.000 C 
ATOM     26  C   UNL     1      -1.549  14.771  24.386  0.00  0.00    +0.000 C 
ATOM     27  C   UNL     1      -2.721  15.066  25.317  0.00  0.00    +0.000 C 
ATOM     28  N   UNL     1      -4.028  14.688  24.805  0.00  0.00    +0.000 NA
ATOM     29  C   UNL     1      -4.270  14.923  23.376  0.00  0.00    +0.000 C 
ATOM     30  H   UNL     1      -4.321  13.764  25.106  0.00  0.00    +0.000 HD
ENDBRANCH  22  24
ENDBRANCH   3  22
BRANCH   4  31
ATOM     31  C   UNL     1      -5.268  12.746  20.165  0.00  0.00    +0.000 C 
ATOM     32  N   UNL     1      -6.471  13.031  20.414  0.00  0.00    +0.000 NA
ENDBRANCH   4  31
TORSDOF 4
ENDMDL
MODEL 5
REMARK VINA RESULT:      -6.7      2.605      5.159
REMARK  Name = 
REMARK  5 active torsions:
REMARK  status: ('A' for Active; 'I' for Inactive)
REMARK    1  A    between atoms: C_1  and  C_2
REMARK    2  A    between atoms: C_3  and  N_4
REMARK    3  A    between atoms: N_4  and  C_5
REMARK    4  A    between atoms: C_11  and  C_12
REMARK    5  A    between atoms: C_19  and  N_20
REMARK                            x       y       z     vdW  Elec       q    Type
REMARK                         _______ _______ _______ _____ _____    ______ ____
ROOT
ATOM      1  C   UNL     1       0.652  12.388  20.779  0.00  0.00    +0.000 C 
ATOM      2  C   UNL     1      -0.514  12.143  19.852  0.00  0.00    +0.000 A 
ATOM      3  C   UNL     1      -1.869  12.718  20.178  0.00  0.00    +0.000 A 
ATOM      4  C   UNL     1      -2.954  12.251  19.486  0.00  0.00    +0.000 A 
ATOM      5  C   UNL     1      -2.802  11.278  18.451  0.00  0.00    +0.000 A 
ATOM      6  C   UNL     1      -3.681  10.586  17.642  0.00  0.00    +0.000 A 
ATOM      7  C   UNL     1      -2.868   9.774  16.842  0.00  0.00    +0.000 A 
ATOM      8  N   UNL     1      -1.573   9.911  17.124  0.00  0.00    +0.000 NA
ATOM      9  N   UNL     1      -1.523  10.856  18.118  0.00  0.00    +0.000 N 
ATOM     10  C   UNL     1      -0.351  11.295  18.786  0.00  0.00    +0.000 A 
ENDROOT
BRANCH  10  11
ATOM     11  N   UNL     1       0.838  10.687  18.355  0.00  0.00    +0.000 N 
ATOM     12  C   UNL     1       1.399   9.508  18.734  0.00  0.00    +0.000 A 
ATOM     13  N   UNL     1       1.180   8.866  19.862  0.00  0.00    +0.000 NA
ATOM     14  C   UNL     1       1.733   7.592  19.816  0.00  0.00    +0.000 A 
ATOM     15  C   UNL     1       1.608   6.595  20.807  0.00  0.00    +0.000 A 
ATOM     16  C   UNL     1       2.099   5.304  20.571  0.00  0.00    +0.000 A 
ATOM     17  C   UNL     1       2.737   5.006  19.371  0.00  0.00    +0.000 A 
ATOM     18  C   UNL     1       2.938   5.996  18.402  0.00  0.00    +0.000 A 
ATOM     19  C   UNL     1       2.427   7.285  18.646  0.00  0.00    +0.000 A 
ATOM     20  S   UNL     1       2.498   8.702  17.668  0.00  0.00    +0.000 S 
ATOM     21  H   UNL     1       1.473  11.363  17.921  0.00  0.00    +0.000 HD
ENDBRANCH  10  11
BRANCH   3  22
ATOM     22  N   UNL     1      -1.946  13.651  21.228  0.00  0.00    +0.000 N 
ATOM     23  H   UNL     1      -1.949  14.626  20.948  0.00  0.00    +0.000 HD
BRANCH  22  24
ATOM     24  C   UNL     1      -2.489  13.451  22.590  0.00  0.00    +0.000 C 
ATOM     25  C   UNL     1      -3.568  14.480  22.956  0.00  0.00    +0.000 C 
ATOM     26  C   UNL     1      -2.994  15.868  23.234  0.00  0.00    +0.000 C 
ATOM     27  C   UNL     1      -1.903  15.843  24.300  0.00  0.00    +0.000 C 
ATOM     28  N   UNL     1      -0.888  14.818  24.122  0.00  0.00    +0.000 NA
ATOM     29  C   UNL     1      -1.349  13.508  23.648  0.00  0.00    +0.000 C 
ATOM     30  H   UNL     1      -0.070  15.152  23.623  0.00  0.00    +0.000 HD
ENDBRANCH  22  24
ENDBRANCH   3  22
BRANCH   4  31
ATOM     31  C   UNL     1      -4.365  12.741  19.769  0.00  0.00    +0.000 C 
ATOM     32  N   UNL     1      -5.535  13.148  20.003  0.00  0.00    +0.000 NA
ENDBRANCH   4  31
TORSDOF 4
ENDMDL
MODEL 6
REMARK VINA RESULT:      -6.6      0.876      1.290
REMARK  Name = 
REMARK  5 active torsions:
REMARK  status: ('A' for Active; 'I' for Inactive)
REMARK    1  A    between atoms: C_1  and  C_2
REMARK    2  A    between atoms: C_3  and  N_4
REMARK    3  A    between atoms: N_4  and  C_5
REMARK    4  A    between atoms: C_11  and  C_12
REMARK    5  A    between atoms: C_19  and  N_20
REMARK                            x       y       z     vdW  Elec       q    Type
REMARK                         _______ _______ _______ _____ _____    ______ ____
ROOT
ATOM      1  C   UNL     1       1.284   9.450  17.647  0.00  0.00    +0.000 C 
ATOM      2  C   UNL     1       0.630   9.560  19.003  0.00  0.00    +0.000 A 
ATOM      3  C   UNL     1      -0.542  10.489  19.201  0.00  0.00    +0.000 A 
ATOM      4  C   UNL     1      -0.927  10.780  20.483  0.00  0.00    +0.000 A 
ATOM      5  C   UNL     1      -0.268  10.186  21.601  0.00  0.00    +0.000 A 
ATOM      6  C   UNL     1      -0.379  10.324  22.970  0.00  0.00    +0.000 A 
ATOM      7  C   UNL     1       0.578   9.448  23.497  0.00  0.00    +0.000 A 
ATOM      8  N   UNL     1       1.267   8.813  22.550  0.00  0.00    +0.000 NA
ATOM      9  N   UNL     1       0.737   9.259  21.365  0.00  0.00    +0.000 N 
ATOM     10  C   UNL     1       1.190   8.903  20.068  0.00  0.00    +0.000 A 
ENDROOT
BRANCH  10  11
ATOM     11  N   UNL     1       2.272   8.010  20.045  0.00  0.00    +0.000 N 
ATOM     12  C   UNL     1       2.277   6.651  19.974  0.00  0.00    +0.000 A 
ATOM     13  N   UNL     1       1.291   5.848  20.314  0.00  0.00    +0.000 NA
ATOM     14  C   UNL     1       1.551   4.549  19.896  0.00  0.00    +0.000 A 
ATOM     15  C   UNL     1       0.674   3.449  20.003  0.00  0.00    +0.000 A 
ATOM     16  C   UNL     1       1.008   2.224  19.412  0.00  0.00    +0.000 A 
ATOM     17  C   UNL     1       2.218   2.075  18.741  0.00  0.00    +0.000 A 
ATOM     18  C   UNL     1       3.137   3.129  18.684  0.00  0.00    +0.000 A 
ATOM     19  C   UNL     1       2.784   4.360  19.269  0.00  0.00    +0.000 A 
ATOM     20  S   UNL     1       3.673   5.833  19.362  0.00  0.00    +0.000 S 
ATOM     21  H   UNL     1       3.126   8.439  20.411  0.00  0.00    +0.000 HD
ENDBRANCH  10  11
BRANCH   3  22
ATOM     22  N   UNL     1      -1.125  11.058  18.054  0.00  0.00    +0.000 N 
ATOM     23  H   UNL     1      -0.517  11.134  17.246  0.00  0.00    +0.000 HD
BRANCH  22  24
ATOM     24  C   UNL     1      -2.559  11.120  17.694  0.00  0.00    +0.000 C 
ATOM     25  C   UNL     1      -3.196   9.730  17.550  0.00  0.00    +0.000 C 
ATOM     26  C   UNL     1      -2.759   9.007  16.278  0.00  0.00    +0.000 C 
ATOM     27  C   UNL     1      -3.011   9.836  15.022  0.00  0.00    +0.000 C 
ATOM     28  N   UNL     1      -2.559  11.216  15.091  0.00  0.00    +0.000 NA
ATOM     29  C   UNL     1      -2.757  11.911  16.369  0.00  0.00    +0.000 C 
ATOM     30  H   UNL     1      -1.627  11.348  14.712  0.00  0.00    +0.000 HD
ENDBRANCH  22  24
ENDBRANCH   3  22
BRANCH   4  31
ATOM     31  C   UNL     1      -2.072  11.734  20.784  0.00  0.00    +0.000 C 
ATOM     32  N   UNL     1      -3.021  12.526  21.035  0.00  0.00    +0.000 NA
ENDBRANCH   4  31
TORSDOF 4
ENDMDL
MODEL 7
REMARK VINA RESULT:      -6.6      2.636      5.384
REMARK  Name = 
REMARK  5 active torsions:
REMARK  status: ('A' for Active; 'I' for Inactive)
REMARK    1  A    between atoms: C_1  and  C_2
REMARK    2  A    between atoms: C_3  and  N_4
REMARK    3  A    between atoms: N_4  and  C_5
REMARK    4  A    between atoms: C_11  and  C_12
REMARK    5  A    between atoms: C_19  and  N_20
REMARK                            x       y       z     vdW  Elec       q    Type
REMARK                         _______ _______ _______ _____ _____    ______ ____
ROOT
ATOM      1  C   UNL     1      -0.420  12.366  20.916  0.00  0.00    +0.000 C 
ATOM      2  C   UNL     1      -1.434  12.148  19.820  0.00  0.00    +0.000 A 
ATOM      3  C   UNL     1      -2.874  12.543  20.034  0.00  0.00    +0.000 A 
ATOM      4  C   UNL     1      -3.811  12.079  19.150  0.00  0.00    +0.000 A 
ATOM      5  C   UNL     1      -3.431  11.282  18.028  0.00  0.00    +0.000 A 
ATOM      6  C   UNL     1      -4.127  10.633  17.027  0.00  0.00    +0.000 A 
ATOM      7  C   UNL     1      -3.140  10.022  16.244  0.00  0.00    +0.000 A 
ATOM      8  N   UNL     1      -1.911  10.237  16.710  0.00  0.00    +0.000 NA
ATOM      9  N   UNL     1      -2.083  11.032  17.816  0.00  0.00    +0.000 N 
ATOM     10  C   UNL     1      -1.054  11.479  18.684  0.00  0.00    +0.000 A 
ENDROOT
BRANCH  10  11
ATOM     11  N   UNL     1       0.237  11.051  18.339  0.00  0.00    +0.000 N 
ATOM     12  C   UNL     1       0.930   9.955  18.751  0.00  0.00    +0.000 A 
ATOM     13  N   UNL     1       0.721   9.268  19.854  0.00  0.00    +0.000 NA
ATOM     14  C   UNL     1       1.449   8.086  19.841  0.00  0.00    +0.000 A 
ATOM     15  C   UNL     1       1.394   7.064  20.812  0.00  0.00    +0.000 A 
ATOM     16  C   UNL     1       2.078   5.859  20.604  0.00  0.00    +0.000 A 
ATOM     17  C   UNL     1       2.838   5.674  19.453  0.00  0.00    +0.000 A 
ATOM     18  C   UNL     1       2.968   6.700  18.510  0.00  0.00    +0.000 A 
ATOM     19  C   UNL     1       2.265   7.900  18.724  0.00  0.00    +0.000 A 
ATOM     20  S   UNL     1       2.206   9.331  17.765  0.00  0.00    +0.000 S 
ATOM     21  H   UNL     1       0.801  11.817  17.960  0.00  0.00    +0.000 HD
ENDBRANCH  10  11
BRANCH   3  22
ATOM     22  N   UNL     1      -3.177  13.307  21.176  0.00  0.00    +0.000 N 
ATOM     23  H   UNL     1      -3.286  14.303  21.021  0.00  0.00    +0.000 HD
BRANCH  22  24
ATOM     24  C   UNL     1      -3.812  12.856  22.434  0.00  0.00    +0.000 C 
ATOM     25  C   UNL     1      -5.075  13.658  22.782  0.00  0.00    +0.000 C 
ATOM     26  C   UNL     1      -4.762  15.069  23.277  0.00  0.00    +0.000 C 
ATOM     27  C   UNL     1      -3.793  15.070  24.456  0.00  0.00    +0.000 C 
ATOM     28  N   UNL     1      -2.613  14.238  24.287  0.00  0.00    +0.000 NA
ATOM     29  C   UNL     1      -2.808  12.946  23.619  0.00  0.00    +0.000 C 
ATOM     30  H   UNL     1      -1.814  14.750  23.927  0.00  0.00    +0.000 HD
ENDBRANCH  22  24
ENDBRANCH   3  22
BRANCH   4  31
ATOM     31  C   UNL     1      -5.291  12.392  19.305  0.00  0.00    +0.000 C 
ATOM     32  N   UNL     1      -6.518  12.652  19.433  0.00  0.00    +0.000 NA
ENDBRANCH   4  31
TORSDOF 4
ENDMDL
MODEL 8
REMARK VINA RESULT:      -6.6      2.511      4.792
REMARK  Name = 
REMARK  5 active torsions:
REMARK  status: ('A' for Active; 'I' for Inactive)
REMARK    1  A    between atoms: C_1  and  C_2
REMARK    2  A    between atoms: C_3  and  N_4
REMARK    3  A    between atoms: N_4  and  C_5
REMARK    4  A    between atoms: C_11  and  C_12
REMARK    5  A    between atoms: C_19  and  N_20
REMARK                            x       y       z     vdW  Elec       q    Type
REMARK                         _______ _______ _______ _____ _____    ______ ____
ROOT
ATOM      1  C   UNL     1       1.098  11.703  20.914  0.00  0.00    +0.000 C 
ATOM      2  C   UNL     1      -0.095  11.658  19.990  0.00  0.00    +0.000 A 
ATOM      3  C   UNL     1      -1.384  12.330  20.390  0.00  0.00    +0.000 A 
ATOM      4  C   UNL     1      -2.516  12.034  19.678  0.00  0.00    +0.000 A 
ATOM      5  C   UNL     1      -2.469  11.150  18.558  0.00  0.00    +0.000 A 
ATOM      6  C   UNL     1      -3.420  10.622  17.707  0.00  0.00    +0.000 A 
ATOM      7  C   UNL     1      -2.697   9.811  16.823  0.00  0.00    +0.000 A 
ATOM      8  N   UNL     1      -1.393   9.795  17.093  0.00  0.00    +0.000 NA
ATOM      9  N   UNL     1      -1.241  10.637  18.166  0.00  0.00    +0.000 N 
ATOM     10  C   UNL     1      -0.026  10.898  18.850  0.00  0.00    +0.000 A 
ENDROOT
BRANCH  10  11
ATOM     11  N   UNL     1       1.094  10.219  18.345  0.00  0.00    +0.000 N 
ATOM     12  C   UNL     1       1.619   9.018  18.708  0.00  0.00    +0.000 A 
ATOM     13  N   UNL     1       1.453   8.409  19.863  0.00  0.00    +0.000 NA
ATOM     14  C   UNL     1       1.933   7.107  19.805  0.00  0.00    +0.000 A 
ATOM     15  C   UNL     1       1.832   6.137  20.824  0.00  0.00    +0.000 A 
ATOM     16  C   UNL     1       2.234   4.817  20.581  0.00  0.00    +0.000 A 
ATOM     17  C   UNL     1       2.763   4.463  19.343  0.00  0.00    +0.000 A 
ATOM     18  C   UNL     1       2.942   5.423  18.341  0.00  0.00    +0.000 A 
ATOM     19  C   UNL     1       2.520   6.742  18.593  0.00  0.00    +0.000 A 
ATOM     20  S   UNL     1       2.590   8.135  17.581  0.00  0.00    +0.000 S 
ATOM     21  H   UNL     1       1.729  10.851  17.850  0.00  0.00    +0.000 HD
ENDBRANCH  10  11
BRANCH   3  22
ATOM     22  N   UNL     1      -1.359  13.167  21.520  0.00  0.00    +0.000 N 
ATOM     23  H   UNL     1      -0.974  12.755  22.362  0.00  0.00    +0.000 HD
BRANCH  22  24
ATOM     24  C   UNL     1      -1.358  14.647  21.560  0.00  0.00    +0.000 C 
ATOM     25  C   UNL     1      -0.916  15.276  20.231  0.00  0.00    +0.000 C 
ATOM     26  C   UNL     1       0.584  15.139  19.980  0.00  0.00    +0.000 C 
ATOM     27  C   UNL     1       1.419  15.692  21.131  0.00  0.00    +0.000 C 
ATOM     28  N   UNL     1       1.008  15.260  22.457  0.00  0.00    +0.000 NA
ATOM     29  C   UNL     1      -0.436  15.164  22.701  0.00  0.00    +0.000 C 
ATOM     30  H   UNL     1       1.517  14.445  22.784  0.00  0.00    +0.000 HD
ENDBRANCH  22  24
ENDBRANCH   3  22
BRANCH   4  31
ATOM     31  C   UNL     1      -3.869  12.632  20.029  0.00  0.00    +0.000 C 
ATOM     32  N   UNL     1      -4.991  13.128  20.320  0.00  0.00    +0.000 NA
ENDBRANCH   4  31
TORSDOF 4
ENDMDL
MODEL 9
REMARK VINA RESULT:      -6.6      2.466      4.794
REMARK  Name = 
REMARK  5 active torsions:
REMARK  status: ('A' for Active; 'I' for Inactive)
REMARK    1  A    between atoms: C_1  and  C_2
REMARK    2  A    between atoms: C_3  and  N_4
REMARK    3  A    between atoms: N_4  and  C_5
REMARK    4  A    between atoms: C_11  and  C_12
REMARK    5  A    between atoms: C_19  and  N_20
REMARK                            x       y       z     vdW  Elec       q    Type
REMARK                         _______ _______ _______ _____ _____    ______ ____
ROOT
ATOM      1  C   UNL     1       0.737  11.862  21.076  0.00  0.00    +0.000 C 
ATOM      2  C   UNL     1      -0.415  11.836  20.102  0.00  0.00    +0.000 A 
ATOM      3  C   UNL     1      -1.737  12.453  20.481  0.00  0.00    +0.000 A 
ATOM      4  C   UNL     1      -2.831  12.167  19.707  0.00  0.00    +0.000 A 
ATOM      5  C   UNL     1      -2.714  11.343  18.547  0.00  0.00    +0.000 A 
ATOM      6  C   UNL     1      -3.614  10.838  17.630  0.00  0.00    +0.000 A 
ATOM      7  C   UNL     1      -2.834  10.092  16.737  0.00  0.00    +0.000 A 
ATOM      8  N   UNL     1      -1.541  10.095  17.060  0.00  0.00    +0.000 NA
ATOM      9  N   UNL     1      -1.457  10.884  18.181  0.00  0.00    +0.000 N 
ATOM     10  C   UNL     1      -0.279  11.139  18.928  0.00  0.00    +0.000 A 
ENDROOT
BRANCH  10  11
ATOM     11  N   UNL     1       0.879  10.515  18.437  0.00  0.00    +0.000 N 
ATOM     12  C   UNL     1       1.440   9.325  18.782  0.00  0.00    +0.000 A 
ATOM     13  N   UNL     1       1.265   8.679  19.916  0.00  0.00    +0.000 NA
ATOM     14  C   UNL     1       1.795   7.398  19.837  0.00  0.00    +0.000 A 
ATOM     15  C   UNL     1       1.703   6.397  20.827  0.00  0.00    +0.000 A 
ATOM     16  C   UNL     1       2.162   5.101  20.560  0.00  0.00    +0.000 A 
ATOM     17  C   UNL     1       2.737   4.800  19.329  0.00  0.00    +0.000 A 
ATOM     18  C   UNL     1       2.906   5.793  18.358  0.00  0.00    +0.000 A 
ATOM     19  C   UNL     1       2.428   7.088  18.632  0.00  0.00    +0.000 A 
ATOM     20  S   UNL     1       2.473   8.510  17.660  0.00  0.00    +0.000 S 
ATOM     21  H   UNL     1       1.503  11.184  17.977  0.00  0.00    +0.000 HD
ENDBRANCH  10  11
BRANCH   3  22
ATOM     22  N   UNL     1      -1.782  13.231  21.652  0.00  0.00    +0.000 N 
ATOM     23  H   UNL     1      -1.778  12.711  22.523  0.00  0.00    +0.000 HD
BRANCH  22  24
ATOM     24  C   UNL     1      -1.365  14.639  21.830  0.00  0.00    +0.000 C 
ATOM     25  C   UNL     1      -2.237  15.393  22.845  0.00  0.00    +0.000 C 
ATOM     26  C   UNL     1      -3.627  15.721  22.304  0.00  0.00    +0.000 C 
ATOM     27  C   UNL     1      -3.571  16.486  20.985  0.00  0.00    +0.000 C 
ATOM     28  N   UNL     1      -2.673  15.930  19.985  0.00  0.00    +0.000 NA
ATOM     29  C   UNL     1      -1.395  15.396  20.471  0.00  0.00    +0.000 C 
ATOM     30  H   UNL     1      -3.140  15.304  19.336  0.00  0.00    +0.000 HD
ENDBRANCH  22  24
ENDBRANCH   3  22
BRANCH   4  31
ATOM     31  C   UNL     1      -4.213  12.711  20.031  0.00  0.00    +0.000 C 
ATOM     32  N   UNL     1      -5.359  13.162  20.299  0.00  0.00    +0.000 NA
ENDBRANCH   4  31
TORSDOF 4
ENDMDL
