MODEL 1
REMARK VINA RESULT:      -8.1      0.000      0.000
REMARK  Name = 
REMARK  7 active torsions:
REMARK  status: ('A' for Active; 'I' for Inactive)
REMARK    1  A    between atoms: C_1  and  C_2
REMARK    2  A    between atoms: C_2  and  C_3
REMARK    3  A    between atoms: C_6  and  C_7
REMARK    4  A    between atoms: N_9  and  C_10
REMARK    5  A    between atoms: C_10  and  C_11
REMARK    6  A    between atoms: C_10  and  C_12
REMARK    7  A    between atoms: C_12  and  C_13
REMARK                            x       y       z     vdW  Elec       q    Type
REMARK                         _______ _______ _______ _____ _____    ______ ____
ROOT
ATOM      1  C   UNL     1       2.470   4.585  20.102  0.00  0.00    +0.000 C 
ATOM      2  C   UNL     1       3.713   5.176  19.372  0.00  0.00    +0.000 C 
ATOM      3  N   UNL     1       3.366   6.469  18.800  0.00  0.00    +0.000 N 
ATOM      4  C   UNL     1       3.793   7.132  17.675  0.00  0.00    +0.000 A 
ATOM      5  C   UNL     1       3.039   8.312  17.641  0.00  0.00    +0.000 A 
ATOM      6  C   UNL     1       2.162   8.347  18.762  0.00  0.00    +0.000 A 
ATOM      7  C   UNL     1       1.178   9.215  19.271  0.00  0.00    +0.000 A 
ATOM      8  C   UNL     1       0.496   8.850  20.451  0.00  0.00    +0.000 A 
ATOM      9  C   UNL     1       0.751   7.632  21.094  0.00  0.00    +0.000 A 
ATOM     10  C   UNL     1       1.679   6.750  20.558  0.00  0.00    +0.000 A 
ATOM     11  C   UNL     1       2.383   7.173  19.440  0.00  0.00    +0.000 A 
ATOM     12  O   UNL     1       1.880   5.495  21.076  0.00  0.00    +0.000 OA
ENDROOT
BRANCH   4  13
ATOM     13  C   UNL     1       4.817   6.631  16.775  0.00  0.00    +0.000 C 
ATOM     14  O   UNL     1       4.928   7.008  15.610  0.00  0.00    +0.000 OA
ATOM     15  N   UNL     1       5.672   5.699  17.316  0.00  0.00    +0.000 N 
ATOM     16  H   UNL     1       5.551   5.411  18.276  0.00  0.00    +0.000 HD
BRANCH  15  17
ATOM     17  C   UNL     1       6.742   5.084  16.537  0.00  0.00    +0.000 C 
ATOM     18  C   UNL     1       7.788   4.489  17.481  0.00  0.00    +0.000 C 
BRANCH  17  19
ATOM     19  C   UNL     1       6.206   4.007  15.579  0.00  0.00    +0.000 C 
BRANCH  19  20
ATOM     20  C   UNL     1       6.657   4.215  14.174  0.00  0.00    +0.000 A 
ATOM     21  C   UNL     1       6.318   3.625  12.973  0.00  0.00    +0.000 A 
ATOM     22  C   UNL     1       7.066   4.299  11.976  0.00  0.00    +0.000 A 
ATOM     23  C   UNL     1       7.824   5.238  12.635  0.00  0.00    +0.000 A 
ATOM     24  O   UNL     1       7.579   5.196  13.970  0.00  0.00    +0.000 OA
ENDBRANCH  19  20
ENDBRANCH  17  19
ENDBRANCH  15  17
ENDBRANCH   4  13
BRANCH   1  26
ATOM     25  C   UNL     1       0.779   2.757  19.408  0.00  0.00    +0.000 C 
ATOM     26  C   UNL     1       1.427   4.089  19.070  0.00  0.00    +0.000 C 
ENDBRANCH   1  26
TORSDOF 5
ENDMDL
MODEL 2
REMARK VINA RESULT:      -8.1      1.488      2.748
REMARK  Name = 
REMARK  7 active torsions:
REMARK  status: ('A' for Active; 'I' for Inactive)
REMARK    1  A    between atoms: C_1  and  C_2
REMARK    2  A    between atoms: C_2  and  C_3
REMARK    3  A    between atoms: C_6  and  C_7
REMARK    4  A    between atoms: N_9  and  C_10
REMARK    5  A    between atoms: C_10  and  C_11
REMARK    6  A    between atoms: C_10  and  C_12
REMARK    7  A    between atoms: C_12  and  C_13
REMARK                            x       y       z     vdW  Elec       q    Type
REMARK                         _______ _______ _______ _____ _____    ______ ____
ROOT
ATOM      1  C   UNL     1       1.912   5.027  20.997  0.00  0.00    +0.000 C 
ATOM      2  C   UNL     1       3.175   4.909  20.093  0.00  0.00    +0.000 C 
ATOM      3  N   UNL     1       3.088   5.884  19.015  0.00  0.00    +0.000 N 
ATOM      4  C   UNL     1       3.539   5.876  17.717  0.00  0.00    +0.000 A 
ATOM      5  C   UNL     1       3.089   7.085  17.170  0.00  0.00    +0.000 A 
ATOM      6  C   UNL     1       2.371   7.816  18.159  0.00  0.00    +0.000 A 
ATOM      7  C   UNL     1       1.682   9.041  18.234  0.00  0.00    +0.000 A 
ATOM      8  C   UNL     1       1.064   9.397  19.452  0.00  0.00    +0.000 A 
ATOM      9  C   UNL     1       1.087   8.542  20.560  0.00  0.00    +0.000 A 
ATOM     10  C   UNL     1       1.715   7.307  20.466  0.00  0.00    +0.000 A 
ATOM     11  C   UNL     1       2.376   7.022  19.281  0.00  0.00    +0.000 A 
ATOM     12  O   UNL     1       1.665   6.381  21.478  0.00  0.00    +0.000 OA
ENDROOT
BRANCH   4  13
ATOM     13  C   UNL     1       4.311   4.796  17.130  0.00  0.00    +0.000 C 
ATOM     14  O   UNL     1       4.380   3.673  17.628  0.00  0.00    +0.000 OA
ATOM     15  N   UNL     1       4.967   5.108  15.963  0.00  0.00    +0.000 N 
ATOM     16  H   UNL     1       4.891   6.040  15.583  0.00  0.00    +0.000 HD
BRANCH  15  17
ATOM     17  C   UNL     1       5.801   4.139  15.259  0.00  0.00    +0.000 C 
ATOM     18  C   UNL     1       5.634   4.319  13.749  0.00  0.00    +0.000 C 
BRANCH  17  19
ATOM     19  C   UNL     1       7.282   4.263  15.656  0.00  0.00    +0.000 C 
BRANCH  19  20
ATOM     20  C   UNL     1       7.485   5.138  16.844  0.00  0.00    +0.000 A 
ATOM     21  C   UNL     1       7.725   4.883  18.179  0.00  0.00    +0.000 A 
ATOM     22  C   UNL     1       7.873   6.146  18.803  0.00  0.00    +0.000 A 
ATOM     23  C   UNL     1       7.692   7.085  17.816  0.00  0.00    +0.000 A 
ATOM     24  O   UNL     1       7.460   6.482  16.622  0.00  0.00    +0.000 OA
ENDBRANCH  19  20
ENDBRANCH  17  19
ENDBRANCH  15  17
ENDBRANCH   4  13
BRANCH   1  26
ATOM     25  C   UNL     1       0.877   3.040  19.711  0.00  0.00    +0.000 C 
ATOM     26  C   UNL     1       0.677   4.436  20.275  0.00  0.00    +0.000 C 
ENDBRANCH   1  26
TORSDOF 5
ENDMDL
MODEL 3
REMARK VINA RESULT:      -8.1      3.267      6.231
REMARK  Name = 
REMARK  7 active torsions:
REMARK  status: ('A' for Active; 'I' for Inactive)
REMARK    1  A    between atoms: C_1  and  C_2
REMARK    2  A    between atoms: C_2  and  C_3
REMARK    3  A    between atoms: C_6  and  C_7
REMARK    4  A    between atoms: N_9  and  C_10
REMARK    5  A    between atoms: C_10  and  C_11
REMARK    6  A    between atoms: C_10  and  C_12
REMARK    7  A    between atoms: C_12  and  C_13
REMARK                            x       y       z     vdW  Elec       q    Type
REMARK                         _______ _______ _______ _____ _____    ______ ____
ROOT
ATOM      1  C   UNL     1       0.286  11.842  18.731  0.00  0.00    +0.000 C 
ATOM      2  C   UNL     1       0.531  10.367  18.296  0.00  0.00    +0.000 C 
ATOM      3  N   UNL     1       0.778   9.552  19.477  0.00  0.00    +0.000 N 
ATOM      4  C   UNL     1       1.550   8.435  19.690  0.00  0.00    +0.000 A 
ATOM      5  C   UNL     1       1.416   8.157  21.056  0.00  0.00    +0.000 A 
ATOM      6  C   UNL     1       0.550   9.116  21.653  0.00  0.00    +0.000 A 
ATOM      7  C   UNL     1       0.046   9.387  22.939  0.00  0.00    +0.000 A 
ATOM      8  C   UNL     1      -0.806  10.498  23.114  0.00  0.00    +0.000 A 
ATOM      9  C   UNL     1      -1.121  11.351  22.048  0.00  0.00    +0.000 A 
ATOM     10  C   UNL     1      -0.575  11.117  20.793  0.00  0.00    +0.000 A 
ATOM     11  C   UNL     1       0.197   9.976  20.641  0.00  0.00    +0.000 A 
ATOM     12  O   UNL     1      -0.751  11.986  19.745  0.00  0.00    +0.000 OA
ENDROOT
BRANCH   4  13
ATOM     13  C   UNL     1       2.308   7.760  18.652  0.00  0.00    +0.000 C 
ATOM     14  O   UNL     1       2.724   8.332  17.645  0.00  0.00    +0.000 OA
ATOM     15  N   UNL     1       2.541   6.422  18.868  0.00  0.00    +0.000 N 
ATOM     16  H   UNL     1       2.183   5.984  19.705  0.00  0.00    +0.000 HD
BRANCH  15  17
ATOM     17  C   UNL     1       3.270   5.596  17.911  0.00  0.00    +0.000 C 
ATOM     18  C   UNL     1       4.770   5.679  18.200  0.00  0.00    +0.000 C 
BRANCH  17  19
ATOM     19  C   UNL     1       2.796   4.133  17.939  0.00  0.00    +0.000 C 
BRANCH  19  20
ATOM     20  C   UNL     1       2.220   3.744  19.256  0.00  0.00    +0.000 A 
ATOM     21  C   UNL     1       0.996   3.232  19.641  0.00  0.00    +0.000 A 
ATOM     22  C   UNL     1       1.076   3.027  21.041  0.00  0.00    +0.000 A 
ATOM     23  C   UNL     1       2.330   3.445  21.419  0.00  0.00    +0.000 A 
ATOM     24  O   UNL     1       3.033   3.878  20.341  0.00  0.00    +0.000 OA
ENDBRANCH  19  20
ENDBRANCH  17  19
ENDBRANCH  15  17
ENDBRANCH   4  13
BRANCH   1  26
ATOM     25  C   UNL     1       1.516  13.977  19.512  0.00  0.00    +0.000 C 
ATOM     26  C   UNL     1       1.617  12.501  19.170  0.00  0.00    +0.000 C 
ENDBRANCH   1  26
TORSDOF 5
ENDMDL
MODEL 4
REMARK VINA RESULT:      -7.8      3.048      7.494
REMARK  Name = 
REMARK  7 active torsions:
REMARK  status: ('A' for Active; 'I' for Inactive)
REMARK    1  A    between atoms: C_1  and  C_2
REMARK    2  A    between atoms: C_2  and  C_3
REMARK    3  A    between atoms: C_6  and  C_7
REMARK    4  A    between atoms: N_9  and  C_10
REMARK    5  A    between atoms: C_10  and  C_11
REMARK    6  A    between atoms: C_10  and  C_12
REMARK    7  A    between atoms: C_12  and  C_13
REMARK                            x       y       z     vdW  Elec       q    Type
REMARK                         _______ _______ _______ _____ _____    ______ ____
ROOT
ATOM      1  C   UNL     1       4.954   4.417  17.985  0.00  0.00    +0.000 C 
ATOM      2  C   UNL     1       4.569   5.855  18.443  0.00  0.00    +0.000 C 
ATOM      3  N   UNL     1       3.399   5.787  19.308  0.00  0.00    +0.000 N 
ATOM      4  C   UNL     1       2.352   6.650  19.524  0.00  0.00    +0.000 A 
ATOM      5  C   UNL     1       1.516   5.987  20.431  0.00  0.00    +0.000 A 
ATOM      6  C   UNL     1       2.081   4.721  20.758  0.00  0.00    +0.000 A 
ATOM      7  C   UNL     1       1.737   3.620  21.564  0.00  0.00    +0.000 A 
ATOM      8  C   UNL     1       2.601   2.504  21.592  0.00  0.00    +0.000 A 
ATOM      9  C   UNL     1       3.760   2.459  20.807  0.00  0.00    +0.000 A 
ATOM     10  C   UNL     1       4.066   3.521  19.967  0.00  0.00    +0.000 A 
ATOM     11  C   UNL     1       3.236   4.630  20.020  0.00  0.00    +0.000 A 
ATOM     12  O   UNL     1       5.120   3.479  19.088  0.00  0.00    +0.000 OA
ENDROOT
BRANCH   4  13
ATOM     13  C   UNL     1       2.230   7.953  18.896  0.00  0.00    +0.000 C 
ATOM     14  O   UNL     1       2.844   8.268  17.878  0.00  0.00    +0.000 OA
ATOM     15  N   UNL     1       1.367   8.827  19.516  0.00  0.00    +0.000 N 
ATOM     16  H   UNL     1       0.881   8.537  20.351  0.00  0.00    +0.000 HD
BRANCH  15  17
ATOM     17  C   UNL     1       1.147  10.183  19.021  0.00  0.00    +0.000 C 
ATOM     18  C   UNL     1      -0.173  10.240  18.252  0.00  0.00    +0.000 C 
BRANCH  17  19
ATOM     19  C   UNL     1       1.153  11.216  20.160  0.00  0.00    +0.000 C 
BRANCH  19  20
ATOM     20  C   UNL     1       0.476  10.716  21.389  0.00  0.00    +0.000 A 
ATOM     21  C   UNL     1      -0.762  10.955  21.954  0.00  0.00    +0.000 A 
ATOM     22  C   UNL     1      -0.835  10.136  23.108  0.00  0.00    +0.000 A 
ATOM     23  C   UNL     1       0.366   9.471  23.183  0.00  0.00    +0.000 A 
ATOM     24  O   UNL     1       1.166   9.814  22.141  0.00  0.00    +0.000 OA
ENDBRANCH  19  20
ENDBRANCH  17  19
ENDBRANCH  15  17
ENDBRANCH   4  13
BRANCH   1  26
ATOM     25  C   UNL     1       3.437   2.487  17.177  0.00  0.00    +0.000 C 
ATOM     26  C   UNL     1       3.942   3.899  16.934  0.00  0.00    +0.000 C 
ENDBRANCH   1  26
TORSDOF 5
ENDMDL
MODEL 5
REMARK VINA RESULT:      -7.7      2.185      7.670
REMARK  Name = 
REMARK  7 active torsions:
REMARK  status: ('A' for Active; 'I' for Inactive)
REMARK    1  A    between atoms: C_1  and  C_2
REMARK    2  A    between atoms: C_2  and  C_3
REMARK    3  A    between atoms: C_6  and  C_7
REMARK    4  A    between atoms: N_9  and  C_10
REMARK    5  A    between atoms: C_10  and  C_11
REMARK    6  A    between atoms: C_10  and  C_12
REMARK    7  A    between atoms: C_12  and  C_13
REMARK                            x       y       z     vdW  Elec       q    Type
REMARK                         _______ _______ _______ _____ _____    ______ ____
ROOT
ATOM      1  C   UNL     1       5.753   5.693  17.067  0.00  0.00    +0.000 C 
ATOM      2  C   UNL     1       5.001   6.905  17.694  0.00  0.00    +0.000 C 
ATOM      3  N   UNL     1       3.837   6.423  18.425  0.00  0.00    +0.000 N 
ATOM      4  C   UNL     1       2.600   6.970  18.665  0.00  0.00    +0.000 A 
ATOM      5  C   UNL     1       1.903   5.989  19.381  0.00  0.00    +0.000 A 
ATOM      6  C   UNL     1       2.741   4.853  19.570  0.00  0.00    +0.000 A 
ATOM      7  C   UNL     1       2.634   3.584  20.168  0.00  0.00    +0.000 A 
ATOM      8  C   UNL     1       3.742   2.712  20.113  0.00  0.00    +0.000 A 
ATOM      9  C   UNL     1       4.919   3.070  19.443  0.00  0.00    +0.000 A 
ATOM     10  C   UNL     1       5.002   4.298  18.802  0.00  0.00    +0.000 A 
ATOM     11  C   UNL     1       3.924   5.159  18.940  0.00  0.00    +0.000 A 
ATOM     12  O   UNL     1       6.082   4.650  18.031  0.00  0.00    +0.000 OA
ENDROOT
BRANCH   4  13
ATOM     13  C   UNL     1       2.197   8.294  18.227  0.00  0.00    +0.000 C 
ATOM     14  O   UNL     1       2.551   8.784  17.156  0.00  0.00    +0.000 OA
ATOM     15  N   UNL     1       1.378   8.977  19.096  0.00  0.00    +0.000 N 
ATOM     16  H   UNL     1       1.108   8.547  19.968  0.00  0.00    +0.000 HD
BRANCH  15  17
ATOM     17  C   UNL     1       0.900  10.327  18.812  0.00  0.00    +0.000 C 
ATOM     18  C   UNL     1      -0.583  10.280  18.443  0.00  0.00    +0.000 C 
BRANCH  17  19
ATOM     19  C   UNL     1       1.129  11.277  20.000  0.00  0.00    +0.000 C 
BRANCH  19  20
ATOM     20  C   UNL     1       0.484  10.793  21.252  0.00  0.00    +0.000 A 
ATOM     21  C   UNL     1      -0.586  11.241  22.001  0.00  0.00    +0.000 A 
ATOM     22  C   UNL     1      -0.739  10.318  23.065  0.00  0.00    +0.000 A 
ATOM     23  C   UNL     1       0.258   9.383  22.908  0.00  0.00    +0.000 A 
ATOM     24  O   UNL     1       1.002   9.662  21.807  0.00  0.00    +0.000 OA
ENDBRANCH  19  20
ENDBRANCH  17  19
ENDBRANCH  15  17
ENDBRANCH   4  13
BRANCH   1  26
ATOM     25  C   UNL     1       5.727   4.150  14.994  0.00  0.00    +0.000 C 
ATOM     26  C   UNL     1       4.960   5.135  15.860  0.00  0.00    +0.000 C 
ENDBRANCH   1  26
TORSDOF 5
ENDMDL
MODEL 6
REMARK VINA RESULT:      -7.6      2.592      7.752
REMARK  Name = 
REMARK  7 active torsions:
REMARK  status: ('A' for Active; 'I' for Inactive)
REMARK    1  A    between atoms: C_1  and  C_2
REMARK    2  A    between atoms: C_2  and  C_3
REMARK    3  A    between atoms: C_6  and  C_7
REMARK    4  A    between atoms: N_9  and  C_10
REMARK    5  A    between atoms: C_10  and  C_11
REMARK    6  A    between atoms: C_10  and  C_12
REMARK    7  A    between atoms: C_12  and  C_13
REMARK                            x       y       z     vdW  Elec       q    Type
REMARK                         _______ _______ _______ _____ _____    ______ ____
ROOT
ATOM      1  C   UNL     1       5.264   4.684  18.088  0.00  0.00    +0.000 C 
ATOM      2  C   UNL     1       4.730   6.064  18.577  0.00  0.00    +0.000 C 
ATOM      3  N   UNL     1       3.488   5.866  19.310  0.00  0.00    +0.000 N 
ATOM      4  C   UNL     1       2.364   6.643  19.458  0.00  0.00    +0.000 A 
ATOM      5  C   UNL     1       1.492   5.873  20.238  0.00  0.00    +0.000 A 
ATOM      6  C   UNL     1       2.111   4.630  20.557  0.00  0.00    +0.000 A 
ATOM      7  C   UNL     1       1.769   3.463  21.264  0.00  0.00    +0.000 A 
ATOM      8  C   UNL     1       2.706   2.409  21.325  0.00  0.00    +0.000 A 
ATOM      9  C   UNL     1       3.938   2.488  20.665  0.00  0.00    +0.000 A 
ATOM     10  C   UNL     1       4.249   3.615  19.917  0.00  0.00    +0.000 A 
ATOM     11  C   UNL     1       3.339   4.662  19.940  0.00  0.00    +0.000 A 
ATOM     12  O   UNL     1       5.386   3.696  19.153  0.00  0.00    +0.000 OA
ENDROOT
BRANCH   4  13
ATOM     13  C   UNL     1       2.211   7.969  18.889  0.00  0.00    +0.000 C 
ATOM     14  O   UNL     1       2.801   8.336  17.874  0.00  0.00    +0.000 OA
ATOM     15  N   UNL     1       1.348   8.803  19.562  0.00  0.00    +0.000 N 
ATOM     16  H   UNL     1       0.882   8.470  20.393  0.00  0.00    +0.000 HD
BRANCH  15  17
ATOM     17  C   UNL     1       1.099  10.174  19.129  0.00  0.00    +0.000 C 
ATOM     18  C   UNL     1      -0.299  10.273  18.515  0.00  0.00    +0.000 C 
BRANCH  17  19
ATOM     19  C   UNL     1       1.250  11.176  20.287  0.00  0.00    +0.000 C 
BRANCH  19  20
ATOM     20  C   UNL     1       0.345  10.872  21.429  0.00  0.00    +0.000 A 
ATOM     21  C   UNL     1       0.180   9.766  22.239  0.00  0.00    +0.000 A 
ATOM     22  C   UNL     1      -0.818  10.112  23.184  0.00  0.00    +0.000 A 
ATOM     23  C   UNL     1      -1.209  11.394  22.875  0.00  0.00    +0.000 A 
ATOM     24  O   UNL     1      -0.506  11.864  21.814  0.00  0.00    +0.000 OA
ENDBRANCH  19  20
ENDBRANCH  17  19
ENDBRANCH  15  17
ENDBRANCH   4  13
BRANCH   1  26
ATOM     25  C   UNL     1       5.077   4.228  15.551  0.00  0.00    +0.000 C 
ATOM     26  C   UNL     1       4.404   4.162  16.911  0.00  0.00    +0.000 C 
ENDBRANCH   1  26
TORSDOF 5
ENDMDL
MODEL 7
REMARK VINA RESULT:      -7.6      3.393      6.008
REMARK  Name = 
REMARK  7 active torsions:
REMARK  status: ('A' for Active; 'I' for Inactive)
REMARK    1  A    between atoms: C_1  and  C_2
REMARK    2  A    between atoms: C_2  and  C_3
REMARK    3  A    between atoms: C_6  and  C_7
REMARK    4  A    between atoms: N_9  and  C_10
REMARK    5  A    between atoms: C_10  and  C_11
REMARK    6  A    between atoms: C_10  and  C_12
REMARK    7  A    between atoms: C_12  and  C_13
REMARK                            x       y       z     vdW  Elec       q    Type
REMARK                         _______ _______ _______ _____ _____    ______ ____
ROOT
ATOM      1  C   UNL     1       0.695  11.179  18.429  0.00  0.00    +0.000 C 
ATOM      2  C   UNL     1       0.925   9.654  18.213  0.00  0.00    +0.000 C 
ATOM      3  N   UNL     1       1.095   9.004  19.505  0.00  0.00    +0.000 N 
ATOM      4  C   UNL     1       1.829   7.915  19.907  0.00  0.00    +0.000 A 
ATOM      5  C   UNL     1       1.622   7.829  21.290  0.00  0.00    +0.000 A 
ATOM      6  C   UNL     1       0.752   8.876  21.706  0.00  0.00    +0.000 A 
ATOM      7  C   UNL     1       0.193   9.330  22.915  0.00  0.00    +0.000 A 
ATOM      8  C   UNL     1      -0.640  10.469  22.893  0.00  0.00    +0.000 A 
ATOM      9  C   UNL     1      -0.882  11.172  21.706  0.00  0.00    +0.000 A 
ATOM     10  C   UNL     1      -0.282  10.759  20.525  0.00  0.00    +0.000 A 
ATOM     11  C   UNL     1       0.469   9.594  20.569  0.00  0.00    +0.000 A 
ATOM     12  O   UNL     1      -0.387  11.478  19.360  0.00  0.00    +0.000 OA
ENDROOT
BRANCH   4  13
ATOM     13  C   UNL     1       2.620   7.091  19.011  0.00  0.00    +0.000 C 
ATOM     14  O   UNL     1       2.515   7.139  17.786  0.00  0.00    +0.000 OA
ATOM     15  N   UNL     1       3.511   6.242  19.624  0.00  0.00    +0.000 N 
ATOM     16  H   UNL     1       3.570   6.226  20.632  0.00  0.00    +0.000 HD
BRANCH  15  17
ATOM     17  C   UNL     1       4.366   5.334  18.865  0.00  0.00    +0.000 C 
ATOM     18  C   UNL     1       5.813   5.826  18.918  0.00  0.00    +0.000 C 
BRANCH  17  19
ATOM     19  C   UNL     1       4.269   3.889  19.384  0.00  0.00    +0.000 C 
BRANCH  19  20
ATOM     20  C   UNL     1       2.935   3.579  19.969  0.00  0.00    +0.000 A 
ATOM     21  C   UNL     1       2.516   3.208  21.232  0.00  0.00    +0.000 A 
ATOM     22  C   UNL     1       1.105   3.105  21.166  0.00  0.00    +0.000 A 
ATOM     23  C   UNL     1       0.759   3.398  19.868  0.00  0.00    +0.000 A 
ATOM     24  O   UNL     1       1.863   3.691  19.136  0.00  0.00    +0.000 OA
ENDBRANCH  19  20
ENDBRANCH  17  19
ENDBRANCH  15  17
ENDBRANCH   4  13
BRANCH   1  26
ATOM     25  C   UNL     1       1.884  13.335  19.217  0.00  0.00    +0.000 C 
ATOM     26  C   UNL     1       2.019  11.869  18.841  0.00  0.00    +0.000 C 
ENDBRANCH   1  26
TORSDOF 5
ENDMDL
MODEL 8
REMARK VINA RESULT:      -7.5      3.205      5.738
REMARK  Name = 
REMARK  7 active torsions:
REMARK  status: ('A' for Active; 'I' for Inactive)
REMARK    1  A    between atoms: C_1  and  C_2
REMARK    2  A    between atoms: C_2  and  C_3
REMARK    3  A    between atoms: C_6  and  C_7
REMARK    4  A    between atoms: N_9  and  C_10
REMARK    5  A    between atoms: C_10  and  C_11
REMARK    6  A    between atoms: C_10  and  C_12
REMARK    7  A    between atoms: C_12  and  C_13
REMARK                            x       y       z     vdW  Elec       q    Type
REMARK                         _______ _______ _______ _____ _____    ______ ____
ROOT
ATOM      1  C   UNL     1      -0.022  11.876  18.820  0.00  0.00    +0.000 C 
ATOM      2  C   UNL     1       0.299  10.436  18.318  0.00  0.00    +0.000 C 
ATOM      3  N   UNL     1       0.688   9.607  19.450  0.00  0.00    +0.000 N 
ATOM      4  C   UNL     1       1.553   8.547  19.571  0.00  0.00    +0.000 A 
ATOM      5  C   UNL     1       1.535   8.218  20.932  0.00  0.00    +0.000 A 
ATOM      6  C   UNL     1       0.645   9.091  21.620  0.00  0.00    +0.000 A 
ATOM      7  C   UNL     1       0.215   9.285  22.946  0.00  0.00    +0.000 A 
ATOM      8  C   UNL     1      -0.703  10.323  23.217  0.00  0.00    +0.000 A 
ATOM      9  C   UNL     1      -1.153  11.181  22.205  0.00  0.00    +0.000 A 
ATOM     10  C   UNL     1      -0.681  11.027  20.909  0.00  0.00    +0.000 A 
ATOM     11  C   UNL     1       0.160   9.951  20.665  0.00  0.00    +0.000 A 
ATOM     12  O   UNL     1      -0.993  11.910  19.906  0.00  0.00    +0.000 OA
ENDROOT
BRANCH   4  13
ATOM     13  C   UNL     1       2.283   7.962  18.461  0.00  0.00    +0.000 C 
ATOM     14  O   UNL     1       2.289   8.448  17.331  0.00  0.00    +0.000 OA
ATOM     15  N   UNL     1       2.984   6.816  18.756  0.00  0.00    +0.000 N 
ATOM     16  H   UNL     1       2.955   6.442  19.693  0.00  0.00    +0.000 HD
BRANCH  15  17
ATOM     17  C   UNL     1       3.753   6.095  17.746  0.00  0.00    +0.000 C 
ATOM     18  C   UNL     1       4.953   6.941  17.315  0.00  0.00    +0.000 C 
BRANCH  17  19
ATOM     19  C   UNL     1       4.218   4.720  18.254  0.00  0.00    +0.000 C 
BRANCH  19  20
ATOM     20  C   UNL     1       3.088   3.769  18.445  0.00  0.00    +0.000 A 
ATOM     21  C   UNL     1       3.021   2.429  18.774  0.00  0.00    +0.000 A 
ATOM     22  C   UNL     1       1.644   2.108  18.850  0.00  0.00    +0.000 A 
ATOM     23  C   UNL     1       0.963   3.263  18.542  0.00  0.00    +0.000 A 
ATOM     24  O   UNL     1       1.833   4.277  18.298  0.00  0.00    +0.000 OA
ENDBRANCH  19  20
ENDBRANCH  17  19
ENDBRANCH  15  17
ENDBRANCH   4  13
BRANCH   1  26
ATOM     25  C   UNL     1       2.443  12.386  18.235  0.00  0.00    +0.000 C 
ATOM     26  C   UNL     1       1.285  12.620  19.190  0.00  0.00    +0.000 C 
ENDBRANCH   1  26
TORSDOF 5
ENDMDL
MODEL 9
REMARK VINA RESULT:      -7.5      3.933      6.657
REMARK  Name = 
REMARK  7 active torsions:
REMARK  status: ('A' for Active; 'I' for Inactive)
REMARK    1  A    between atoms: C_1  and  C_2
REMARK    2  A    between atoms: C_2  and  C_3
REMARK    3  A    between atoms: C_6  and  C_7
REMARK    4  A    between atoms: N_9  and  C_10
REMARK    5  A    between atoms: C_10  and  C_11
REMARK    6  A    between atoms: C_10  and  C_12
REMARK    7  A    between atoms: C_12  and  C_13
REMARK                            x       y       z     vdW  Elec       q    Type
REMARK                         _______ _______ _______ _____ _____    ______ ____
ROOT
ATOM      1  C   UNL     1      -0.532  12.340  18.634  0.00  0.00    +0.000 C 
ATOM      2  C   UNL     1      -0.165  10.848  18.376  0.00  0.00    +0.000 C 
ATOM      3  N   UNL     1       0.139  10.201  19.644  0.00  0.00    +0.000 N 
ATOM      4  C   UNL     1       0.998   9.184  19.985  0.00  0.00    +0.000 A 
ATOM      5  C   UNL     1       0.877   9.059  21.375  0.00  0.00    +0.000 A 
ATOM      6  C   UNL     1      -0.068  10.009  21.857  0.00  0.00    +0.000 A 
ATOM      7  C   UNL     1      -0.601  10.388  23.104  0.00  0.00    +0.000 A 
ATOM      8  C   UNL     1      -1.542  11.439  23.148  0.00  0.00    +0.000 A 
ATOM      9  C   UNL     1      -1.917  12.131  21.989  0.00  0.00    +0.000 A 
ATOM     10  C   UNL     1      -1.345  11.796  20.770  0.00  0.00    +0.000 A 
ATOM     11  C   UNL     1      -0.482  10.711  20.751  0.00  0.00    +0.000 A 
ATOM     12  O   UNL     1      -1.584  12.518  19.627  0.00  0.00    +0.000 OA
ENDROOT
BRANCH   4  13
ATOM     13  C   UNL     1       1.815   8.455  19.033  0.00  0.00    +0.000 C 
ATOM     14  O   UNL     1       2.148   8.917  17.942  0.00  0.00    +0.000 OA
ATOM     15  N   UNL     1       2.204   7.197  19.431  0.00  0.00    +0.000 N 
ATOM     16  H   UNL     1       1.911   6.848  20.332  0.00  0.00    +0.000 HD
BRANCH  15  17
ATOM     17  C   UNL     1       3.012   6.329  18.580  0.00  0.00    +0.000 C 
ATOM     18  C   UNL     1       4.180   5.762  19.388  0.00  0.00    +0.000 C 
BRANCH  17  19
ATOM     19  C   UNL     1       2.177   5.191  17.968  0.00  0.00    +0.000 C 
BRANCH  19  20
ATOM     20  C   UNL     1       1.854   4.123  18.955  0.00  0.00    +0.000 A 
ATOM     21  C   UNL     1       1.074   4.089  20.093  0.00  0.00    +0.000 A 
ATOM     22  C   UNL     1       1.132   2.758  20.573  0.00  0.00    +0.000 A 
ATOM     23  C   UNL     1       1.958   2.075  19.712  0.00  0.00    +0.000 A 
ATOM     24  O   UNL     1       2.398   2.896  18.724  0.00  0.00    +0.000 OA
ENDBRANCH  19  20
ENDBRANCH  17  19
ENDBRANCH  15  17
ENDBRANCH   4  13
BRANCH   1  26
ATOM     25  C   UNL     1       0.517  14.647  19.142  0.00  0.00    +0.000 C 
ATOM     26  C   UNL     1       0.739  13.152  18.988  0.00  0.00    +0.000 C 
ENDBRANCH   1  26
TORSDOF 5
ENDMDL
