MODEL 1
REMARK VINA RESULT:      -7.8      0.000      0.000
REMARK  Name = 
REMARK  3 active torsions:
REMARK  status: ('A' for Active; 'I' for Inactive)
REMARK    1  A    between atoms: C_4  and  C_5
REMARK    2  A    between atoms: C_9  and  O_10
REMARK    3  A    between atoms: C_16  and  O_17
REMARK                            x       y       z     vdW  Elec       q    Type
REMARK                         _______ _______ _______ _____ _____    ______ ____
ROOT
ATOM      1  O   UNL     1       4.437   3.106  18.575  0.00  0.00    +0.000 OA
ATOM      2  C   UNL     1       4.332   4.167  18.006  0.00  0.00    +0.000 C 
ATOM      3  C   UNL     1       4.875   4.586  16.688  0.00  0.00    +0.000 C 
ATOM      4  C   UNL     1       5.590   3.745  15.927  0.00  0.00    +0.000 C 
ATOM      5  O   UNL     1       4.515   5.897  16.400  0.00  0.00    +0.000 OA
ATOM      6  C   UNL     1       3.776   6.328  17.479  0.00  0.00    +0.000 A 
ATOM      7  C   UNL     1       3.215   7.578  17.635  0.00  0.00    +0.000 A 
ATOM      8  C   UNL     1       2.492   7.825  18.812  0.00  0.00    +0.000 A 
ATOM      9  C   UNL     1       2.354   6.823  19.790  0.00  0.00    +0.000 A 
ATOM     10  C   UNL     1       2.924   5.564  19.629  0.00  0.00    +0.000 A 
ATOM     11  C   UNL     1       3.628   5.353  18.463  0.00  0.00    +0.000 A 
ENDROOT
BRANCH   4  12
ATOM     12  C   UNL     1       6.166   4.001  14.600  0.00  0.00    +0.000 A 
ATOM     13  C   UNL     1       5.663   3.430  13.424  0.00  0.00    +0.000 A 
ATOM     14  C   UNL     1       6.243   3.724  12.184  0.00  0.00    +0.000 A 
ATOM     15  C   UNL     1       7.326   4.597  12.104  0.00  0.00    +0.000 A 
ATOM     16  C   UNL     1       7.812   5.181  13.266  0.00  0.00    +0.000 A 
ATOM     17  C   UNL     1       7.234   4.905  14.502  0.00  0.00    +0.000 A 
BRANCH  16  18
ATOM     18  O   UNL     1       8.873   6.038  13.239  0.00  0.00    +0.000 OA
ATOM     19  H   UNL     1       8.561   6.925  13.482  0.00  0.00    +0.000 HD
ENDBRANCH  16  18
ENDBRANCH   4  12
BRANCH   9  20
ATOM     20  O   UNL     1       1.653   7.047  20.939  0.00  0.00    +0.000 OA
ATOM     21  H   UNL     1       2.099   7.737  21.457  0.00  0.00    +0.000 HD
ENDBRANCH   9  20
TORSDOF 3
ENDMDL
MODEL 2
REMARK VINA RESULT:      -7.6      2.199      2.455
REMARK  Name = 
REMARK  3 active torsions:
REMARK  status: ('A' for Active; 'I' for Inactive)
REMARK    1  A    between atoms: C_4  and  C_5
REMARK    2  A    between atoms: C_9  and  O_10
REMARK    3  A    between atoms: C_16  and  O_17
REMARK                            x       y       z     vdW  Elec       q    Type
REMARK                         _______ _______ _______ _____ _____    ______ ____
ROOT
ATOM      1  O   UNL     1       5.835   4.419  19.628  0.00  0.00    +0.000 OA
ATOM      2  C   UNL     1       4.992   4.114  18.817  0.00  0.00    +0.000 C 
ATOM      3  C   UNL     1       5.086   4.073  17.335  0.00  0.00    +0.000 C 
ATOM      4  C   UNL     1       6.221   4.388  16.696  0.00  0.00    +0.000 C 
ATOM      5  O   UNL     1       3.882   3.659  16.776  0.00  0.00    +0.000 OA
ATOM      6  C   UNL     1       3.031   3.444  17.838  0.00  0.00    +0.000 A 
ATOM      7  C   UNL     1       1.718   3.028  17.757  0.00  0.00    +0.000 A 
ATOM      8  C   UNL     1       1.013   2.864  18.960  0.00  0.00    +0.000 A 
ATOM      9  C   UNL     1       1.638   3.119  20.195  0.00  0.00    +0.000 A 
ATOM     10  C   UNL     1       2.961   3.539  20.270  0.00  0.00    +0.000 A 
ATOM     11  C   UNL     1       3.626   3.692  19.072  0.00  0.00    +0.000 A 
ENDROOT
BRANCH   4  12
ATOM     12  C   UNL     1       6.475   4.368  15.249  0.00  0.00    +0.000 A 
ATOM     13  C   UNL     1       5.721   3.605  14.349  0.00  0.00    +0.000 A 
ATOM     14  C   UNL     1       5.998   3.639  12.978  0.00  0.00    +0.000 A 
ATOM     15  C   UNL     1       7.028   4.441  12.488  0.00  0.00    +0.000 A 
ATOM     16  C   UNL     1       7.763   5.215  13.376  0.00  0.00    +0.000 A 
ATOM     17  C   UNL     1       7.486   5.198  14.740  0.00  0.00    +0.000 A 
BRANCH  16  18
ATOM     18  O   UNL     1       8.784   6.012  12.947  0.00  0.00    +0.000 OA
ATOM     19  H   UNL     1       9.577   5.464  12.831  0.00  0.00    +0.000 HD
ENDBRANCH  16  18
ENDBRANCH   4  12
BRANCH   9  20
ATOM     20  O   UNL     1       0.966   2.962  21.372  0.00  0.00    +0.000 OA
ATOM     21  H   UNL     1       1.574   3.123  22.112  0.00  0.00    +0.000 HD
ENDBRANCH   9  20
TORSDOF 3
ENDMDL
MODEL 3
REMARK VINA RESULT:      -7.5      2.238      2.544
REMARK  Name = 
REMARK  3 active torsions:
REMARK  status: ('A' for Active; 'I' for Inactive)
REMARK    1  A    between atoms: C_4  and  C_5
REMARK    2  A    between atoms: C_9  and  O_10
REMARK    3  A    between atoms: C_16  and  O_17
REMARK                            x       y       z     vdW  Elec       q    Type
REMARK                         _______ _______ _______ _____ _____    ______ ____
ROOT
ATOM      1  O   UNL     1       6.402   4.599  19.079  0.00  0.00    +0.000 OA
ATOM      2  C   UNL     1       5.482   4.432  18.312  0.00  0.00    +0.000 C 
ATOM      3  C   UNL     1       5.491   4.400  16.827  0.00  0.00    +0.000 C 
ATOM      4  C   UNL     1       6.626   4.554  16.130  0.00  0.00    +0.000 C 
ATOM      5  O   UNL     1       4.213   4.174  16.330  0.00  0.00    +0.000 OA
ATOM      6  C   UNL     1       3.396   4.071  17.435  0.00  0.00    +0.000 A 
ATOM      7  C   UNL     1       2.033   3.853  17.422  0.00  0.00    +0.000 A 
ATOM      8  C   UNL     1       1.376   3.777  18.660  0.00  0.00    +0.000 A 
ATOM      9  C   UNL     1       2.094   3.920  19.862  0.00  0.00    +0.000 A 
ATOM     10  C   UNL     1       3.467   4.141  19.868  0.00  0.00    +0.000 A 
ATOM     11  C   UNL     1       4.084   4.212  18.638  0.00  0.00    +0.000 A 
ENDROOT
BRANCH   4  12
ATOM     12  C   UNL     1       6.798   4.518  14.672  0.00  0.00    +0.000 A 
ATOM     13  C   UNL     1       7.680   5.361  13.983  0.00  0.00    +0.000 A 
ATOM     14  C   UNL     1       7.815   5.271  12.593  0.00  0.00    +0.000 A 
ATOM     15  C   UNL     1       7.076   4.332  11.875  0.00  0.00    +0.000 A 
ATOM     16  C   UNL     1       6.218   3.479  12.558  0.00  0.00    +0.000 A 
ATOM     17  C   UNL     1       6.087   3.554  13.942  0.00  0.00    +0.000 A 
BRANCH  16  18
ATOM     18  O   UNL     1       5.471   2.547  11.899  0.00  0.00    +0.000 OA
ATOM     19  H   UNL     1       5.950   2.275  11.100  0.00  0.00    +0.000 HD
ENDBRANCH  16  18
ENDBRANCH   4  12
BRANCH   9  20
ATOM     20  O   UNL     1       1.469   3.847  21.072  0.00  0.00    +0.000 OA
ATOM     21  H   UNL     1       1.182   4.735  21.339  0.00  0.00    +0.000 HD
ENDBRANCH   9  20
TORSDOF 3
ENDMDL
MODEL 4
REMARK VINA RESULT:      -7.4      3.614      7.298
REMARK  Name = 
REMARK  3 active torsions:
REMARK  status: ('A' for Active; 'I' for Inactive)
REMARK    1  A    between atoms: C_4  and  C_5
REMARK    2  A    between atoms: C_9  and  O_10
REMARK    3  A    between atoms: C_16  and  O_17
REMARK                            x       y       z     vdW  Elec       q    Type
REMARK                         _______ _______ _______ _____ _____    ______ ____
ROOT
ATOM      1  O   UNL     1       4.525   5.914  17.003  0.00  0.00    +0.000 OA
ATOM      2  C   UNL     1       3.641   5.562  17.750  0.00  0.00    +0.000 C 
ATOM      3  C   UNL     1       2.621   6.383  18.451  0.00  0.00    +0.000 C 
ATOM      4  C   UNL     1       2.568   7.714  18.299  0.00  0.00    +0.000 C 
ATOM      5  O   UNL     1       1.781   5.580  19.214  0.00  0.00    +0.000 OA
ATOM      6  C   UNL     1       2.230   4.291  19.032  0.00  0.00    +0.000 A 
ATOM      7  C   UNL     1       1.699   3.155  19.608  0.00  0.00    +0.000 A 
ATOM      8  C   UNL     1       2.300   1.925  19.296  0.00  0.00    +0.000 A 
ATOM      9  C   UNL     1       3.405   1.870  18.426  0.00  0.00    +0.000 A 
ATOM     10  C   UNL     1       3.938   3.018  17.850  0.00  0.00    +0.000 A 
ATOM     11  C   UNL     1       3.326   4.210  18.177  0.00  0.00    +0.000 A 
ENDROOT
BRANCH   4  12
ATOM     12  C   UNL     1       1.608   8.650  18.898  0.00  0.00    +0.000 A 
ATOM     13  C   UNL     1       1.360   8.719  20.275  0.00  0.00    +0.000 A 
ATOM     14  C   UNL     1       0.446   9.643  20.791  0.00  0.00    +0.000 A 
ATOM     15  C   UNL     1      -0.228  10.516  19.938  0.00  0.00    +0.000 A 
ATOM     16  C   UNL     1       0.031  10.466  18.574  0.00  0.00    +0.000 A 
ATOM     17  C   UNL     1       0.949   9.558  18.054  0.00  0.00    +0.000 A 
BRANCH  16  18
ATOM     18  O   UNL     1      -0.605  11.296  17.699  0.00  0.00    +0.000 OA
ATOM     19  H   UNL     1      -0.650  10.858  16.834  0.00  0.00    +0.000 HD
ENDBRANCH  16  18
ENDBRANCH   4  12
BRANCH   9  20
ATOM     20  O   UNL     1       3.999   0.683  18.112  0.00  0.00    +0.000 OA
ATOM     21  H   UNL     1       3.571  -0.032  18.612  0.00  0.00    +0.000 HD
ENDBRANCH   9  20
TORSDOF 3
ENDMDL
MODEL 5
REMARK VINA RESULT:      -7.3      3.611      7.306
REMARK  Name = 
REMARK  3 active torsions:
REMARK  status: ('A' for Active; 'I' for Inactive)
REMARK    1  A    between atoms: C_4  and  C_5
REMARK    2  A    between atoms: C_9  and  O_10
REMARK    3  A    between atoms: C_16  and  O_17
REMARK                            x       y       z     vdW  Elec       q    Type
REMARK                         _______ _______ _______ _____ _____    ______ ____
ROOT
ATOM      1  O   UNL     1       4.678   5.866  17.092  0.00  0.00    +0.000 OA
ATOM      2  C   UNL     1       3.741   5.532  17.781  0.00  0.00    +0.000 C 
ATOM      3  C   UNL     1       2.688   6.372  18.406  0.00  0.00    +0.000 C 
ATOM      4  C   UNL     1       2.663   7.702  18.242  0.00  0.00    +0.000 C 
ATOM      5  O   UNL     1       1.788   5.586  19.116  0.00  0.00    +0.000 OA
ATOM      6  C   UNL     1       2.231   4.289  18.974  0.00  0.00    +0.000 A 
ATOM      7  C   UNL     1       1.646   3.165  19.521  0.00  0.00    +0.000 A 
ATOM      8  C   UNL     1       2.250   1.925  19.259  0.00  0.00    +0.000 A 
ATOM      9  C   UNL     1       3.410   1.849  18.465  0.00  0.00    +0.000 A 
ATOM     10  C   UNL     1       3.996   2.985  17.918  0.00  0.00    +0.000 A 
ATOM     11  C   UNL     1       3.380   4.187  18.195  0.00  0.00    +0.000 A 
ENDROOT
BRANCH   4  12
ATOM     12  C   UNL     1       1.678   8.656  18.769  0.00  0.00    +0.000 A 
ATOM     13  C   UNL     1       0.919   9.503  17.952  0.00  0.00    +0.000 A 
ATOM     14  C   UNL     1      -0.017  10.381  18.510  0.00  0.00    +0.000 A 
ATOM     15  C   UNL     1      -0.212  10.418  19.890  0.00  0.00    +0.000 A 
ATOM     16  C   UNL     1       0.524   9.563  20.700  0.00  0.00    +0.000 A 
ATOM     17  C   UNL     1       1.449   8.678  20.153  0.00  0.00    +0.000 A 
BRANCH  16  18
ATOM     18  O   UNL     1       0.373   9.565  22.056  0.00  0.00    +0.000 OA
ATOM     19  H   UNL     1       0.044   8.694  22.332  0.00  0.00    +0.000 HD
ENDBRANCH  16  18
ENDBRANCH   4  12
BRANCH   9  20
ATOM     20  O   UNL     1       4.007   0.652  18.200  0.00  0.00    +0.000 OA
ATOM     21  H   UNL     1       4.971   0.769  18.190  0.00  0.00    +0.000 HD
ENDBRANCH   9  20
TORSDOF 3
ENDMDL
MODEL 6
REMARK VINA RESULT:      -7.2      3.935      7.468
REMARK  Name = 
REMARK  3 active torsions:
REMARK  status: ('A' for Active; 'I' for Inactive)
REMARK    1  A    between atoms: C_4  and  C_5
REMARK    2  A    between atoms: C_9  and  O_10
REMARK    3  A    between atoms: C_16  and  O_17
REMARK                            x       y       z     vdW  Elec       q    Type
REMARK                         _______ _______ _______ _____ _____    ______ ____
ROOT
ATOM      1  O   UNL     1       4.515   6.409  17.451  0.00  0.00    +0.000 OA
ATOM      2  C   UNL     1       3.757   6.098  18.340  0.00  0.00    +0.000 C 
ATOM      3  C   UNL     1       2.647   6.879  18.944  0.00  0.00    +0.000 C 
ATOM      4  C   UNL     1       2.344   8.112  18.515  0.00  0.00    +0.000 C 
ATOM      5  O   UNL     1       2.015   6.147  19.942  0.00  0.00    +0.000 OA
ATOM      6  C   UNL     1       2.680   4.942  20.000  0.00  0.00    +0.000 A 
ATOM      7  C   UNL     1       2.400   3.897  20.856  0.00  0.00    +0.000 A 
ATOM      8  C   UNL     1       3.195   2.745  20.759  0.00  0.00    +0.000 A 
ATOM      9  C   UNL     1       4.238   2.673  19.816  0.00  0.00    +0.000 A 
ATOM     10  C   UNL     1       4.517   3.730  18.957  0.00  0.00    +0.000 A 
ATOM     11  C   UNL     1       3.719   4.847  19.077  0.00  0.00    +0.000 A 
ENDROOT
BRANCH   4  12
ATOM     12  C   UNL     1       1.267   8.991  18.990  0.00  0.00    +0.000 A 
ATOM     13  C   UNL     1       0.972   9.178  20.347  0.00  0.00    +0.000 A 
ATOM     14  C   UNL     1      -0.057  10.041  20.741  0.00  0.00    +0.000 A 
ATOM     15  C   UNL     1      -0.798  10.734  19.786  0.00  0.00    +0.000 A 
ATOM     16  C   UNL     1      -0.493  10.568  18.441  0.00  0.00    +0.000 A 
ATOM     17  C   UNL     1       0.536   9.721  18.040  0.00  0.00    +0.000 A 
BRANCH  16  18
ATOM     18  O   UNL     1      -1.193  11.220  17.469  0.00  0.00    +0.000 OA
ATOM     19  H   UNL     1      -1.082  12.176  17.596  0.00  0.00    +0.000 HD
ENDBRANCH  16  18
ENDBRANCH   4  12
BRANCH   9  20
ATOM     20  O   UNL     1       5.018   1.560  19.709  0.00  0.00    +0.000 OA
ATOM     21  H   UNL     1       4.740   0.908  20.373  0.00  0.00    +0.000 HD
ENDBRANCH   9  20
TORSDOF 3
ENDMDL
MODEL 7
REMARK VINA RESULT:      -7.2      4.239      8.225
REMARK  Name = 
REMARK  3 active torsions:
REMARK  status: ('A' for Active; 'I' for Inactive)
REMARK    1  A    between atoms: C_4  and  C_5
REMARK    2  A    between atoms: C_9  and  O_10
REMARK    3  A    between atoms: C_16  and  O_17
REMARK                            x       y       z     vdW  Elec       q    Type
REMARK                         _______ _______ _______ _____ _____    ______ ____
ROOT
ATOM      1  O   UNL     1       3.991   6.412  18.164  0.00  0.00    +0.000 OA
ATOM      2  C   UNL     1       3.104   5.983  18.865  0.00  0.00    +0.000 C 
ATOM      3  C   UNL     1       2.121   6.724  19.696  0.00  0.00    +0.000 C 
ATOM      4  C   UNL     1       2.113   8.064  19.743  0.00  0.00    +0.000 C 
ATOM      5  O   UNL     1       1.262   5.846  20.346  0.00  0.00    +0.000 OA
ATOM      6  C   UNL     1       1.664   4.583  19.969  0.00  0.00    +0.000 A 
ATOM      7  C   UNL     1       1.100   3.393  20.380  0.00  0.00    +0.000 A 
ATOM      8  C   UNL     1       1.655   2.204  19.881  0.00  0.00    +0.000 A 
ATOM      9  C   UNL     1       2.747   2.241  18.994  0.00  0.00    +0.000 A 
ATOM     10  C   UNL     1       3.313   3.444  18.585  0.00  0.00    +0.000 A 
ATOM     11  C   UNL     1       2.747   4.594  19.093  0.00  0.00    +0.000 A 
ENDROOT
BRANCH   4  12
ATOM     12  C   UNL     1       1.193   8.933  20.489  0.00  0.00    +0.000 A 
ATOM     13  C   UNL     1       0.286   9.801  19.869  0.00  0.00    +0.000 A 
ATOM     14  C   UNL     1      -0.579  10.594  20.632  0.00  0.00    +0.000 A 
ATOM     15  C   UNL     1      -0.552  10.524  22.024  0.00  0.00    +0.000 A 
ATOM     16  C   UNL     1       0.332   9.649  22.641  0.00  0.00    +0.000 A 
ATOM     17  C   UNL     1       1.187   8.847  21.890  0.00  0.00    +0.000 A 
BRANCH  16  18
ATOM     18  O   UNL     1       0.399   9.548  23.999  0.00  0.00    +0.000 OA
ATOM     19  H   UNL     1       1.303   9.295  24.247  0.00  0.00    +0.000 HD
ENDBRANCH  16  18
ENDBRANCH   4  12
BRANCH   9  20
ATOM     20  O   UNL     1       3.295   1.095  18.499  0.00  0.00    +0.000 OA
ATOM     21  H   UNL     1       4.067   1.318  17.953  0.00  0.00    +0.000 HD
ENDBRANCH   9  20
TORSDOF 3
ENDMDL
MODEL 8
REMARK VINA RESULT:      -7.2      1.231      1.642
REMARK  Name = 
REMARK  3 active torsions:
REMARK  status: ('A' for Active; 'I' for Inactive)
REMARK    1  A    between atoms: C_4  and  C_5
REMARK    2  A    between atoms: C_9  and  O_10
REMARK    3  A    between atoms: C_16  and  O_17
REMARK                            x       y       z     vdW  Elec       q    Type
REMARK                         _______ _______ _______ _____ _____    ______ ____
ROOT
ATOM      1  O   UNL     1       5.181   3.647  19.053  0.00  0.00    +0.000 OA
ATOM      2  C   UNL     1       4.804   4.555  18.349  0.00  0.00    +0.000 C 
ATOM      3  C   UNL     1       5.150   4.855  16.936  0.00  0.00    +0.000 C 
ATOM      4  C   UNL     1       5.981   4.069  16.237  0.00  0.00    +0.000 C 
ATOM      5  O   UNL     1       4.489   5.996  16.498  0.00  0.00    +0.000 OA
ATOM      6  C   UNL     1       3.747   6.434  17.573  0.00  0.00    +0.000 A 
ATOM      7  C   UNL     1       2.933   7.548  17.601  0.00  0.00    +0.000 A 
ATOM      8  C   UNL     1       2.255   7.829  18.797  0.00  0.00    +0.000 A 
ATOM      9  C   UNL     1       2.411   6.994  19.920  0.00  0.00    +0.000 A 
ATOM     10  C   UNL     1       3.234   5.874  19.887  0.00  0.00    +0.000 A 
ATOM     11  C   UNL     1       3.887   5.626  18.698  0.00  0.00    +0.000 A 
ENDROOT
BRANCH   4  12
ATOM     12  C   UNL     1       6.393   4.217  14.835  0.00  0.00    +0.000 A 
ATOM     13  C   UNL     1       7.410   5.088  14.423  0.00  0.00    +0.000 A 
ATOM     14  C   UNL     1       7.772   5.175  13.074  0.00  0.00    +0.000 A 
ATOM     15  C   UNL     1       7.127   4.389  12.121  0.00  0.00    +0.000 A 
ATOM     16  C   UNL     1       6.133   3.509  12.529  0.00  0.00    +0.000 A 
ATOM     17  C   UNL     1       5.775   3.406  13.871  0.00  0.00    +0.000 A 
BRANCH  16  18
ATOM     18  O   UNL     1       5.470   2.722  11.634  0.00  0.00    +0.000 OA
ATOM     19  H   UNL     1       5.602   1.793  11.882  0.00  0.00    +0.000 HD
ENDBRANCH  16  18
ENDBRANCH   4  12
BRANCH   9  20
ATOM     20  O   UNL     1       1.758   7.253  21.089  0.00  0.00    +0.000 OA
ATOM     21  H   UNL     1       0.909   7.683  20.893  0.00  0.00    +0.000 HD
ENDBRANCH   9  20
TORSDOF 3
ENDMDL
MODEL 9
REMARK VINA RESULT:      -7.1      2.386      7.588
REMARK  Name = 
REMARK  3 active torsions:
REMARK  status: ('A' for Active; 'I' for Inactive)
REMARK    1  A    between atoms: C_4  and  C_5
REMARK    2  A    between atoms: C_9  and  O_10
REMARK    3  A    between atoms: C_16  and  O_17
REMARK                            x       y       z     vdW  Elec       q    Type
REMARK                         _______ _______ _______ _____ _____    ______ ____
ROOT
ATOM      1  O   UNL     1       2.919   3.989  19.712  0.00  0.00    +0.000 OA
ATOM      2  C   UNL     1       3.213   4.936  19.019  0.00  0.00    +0.000 C 
ATOM      3  C   UNL     1       2.792   6.356  19.140  0.00  0.00    +0.000 C 
ATOM      4  C   UNL     1       1.981   6.764  20.126  0.00  0.00    +0.000 C 
ATOM      5  O   UNL     1       3.366   7.128  18.137  0.00  0.00    +0.000 OA
ATOM      6  C   UNL     1       4.125   6.258  17.384  0.00  0.00    +0.000 A 
ATOM      7  C   UNL     1       4.872   6.584  16.271  0.00  0.00    +0.000 A 
ATOM      8  C   UNL     1       5.582   5.551  15.639  0.00  0.00    +0.000 A 
ATOM      9  C   UNL     1       5.522   4.235  16.134  0.00  0.00    +0.000 A 
ATOM     10  C   UNL     1       4.765   3.912  17.255  0.00  0.00    +0.000 A 
ATOM     11  C   UNL     1       4.080   4.948  17.853  0.00  0.00    +0.000 A 
ENDROOT
BRANCH   4  12
ATOM     12  C   UNL     1       1.502   8.127  20.392  0.00  0.00    +0.000 A 
ATOM     13  C   UNL     1       1.335   9.090  19.389  0.00  0.00    +0.000 A 
ATOM     14  C   UNL     1       0.860  10.369  19.699  0.00  0.00    +0.000 A 
ATOM     15  C   UNL     1       0.540  10.699  21.014  0.00  0.00    +0.000 A 
ATOM     16  C   UNL     1       0.684   9.740  22.008  0.00  0.00    +0.000 A 
ATOM     17  C   UNL     1       1.143   8.461  21.706  0.00  0.00    +0.000 A 
BRANCH  16  18
ATOM     18  O   UNL     1       0.387  10.016  23.310  0.00  0.00    +0.000 OA
ATOM     19  H   UNL     1       0.839  10.838  23.563  0.00  0.00    +0.000 HD
ENDBRANCH  16  18
ENDBRANCH   4  12
BRANCH   9  20
ATOM     20  O   UNL     1       6.207   3.221  15.532  0.00  0.00    +0.000 OA
ATOM     21  H   UNL     1       7.084   3.541  15.265  0.00  0.00    +0.000 HD
ENDBRANCH   9  20
TORSDOF 3
ENDMDL
