MODEL 1
REMARK VINA RESULT:      -7.0      0.000      0.000
REMARK  Name = 
REMARK  5 active torsions:
REMARK  status: ('A' for Active; 'I' for Inactive)
REMARK    1  A    between atoms: C_1  and  S_2
REMARK    2  A    between atoms: S_2  and  N_5
REMARK    3  A    between atoms: C_9  and  C_11
REMARK    4  A    between atoms: C_11  and  C_12
REMARK    5  A    between atoms: C_12  and  C_13
REMARK                            x       y       z     vdW  Elec       q    Type
REMARK                         _______ _______ _______ _____ _____    ______ ____
ROOT
ATOM      1  N   UNL     1       2.114   4.101  18.486  0.00  0.00    +0.000 NA
ATOM      2  C   UNL     1       2.795   5.044  19.443  0.00  0.00    +0.000 C 
ATOM      3  C   UNL     1       4.244   4.623  19.765  0.00  0.00    +0.000 C 
ATOM      4  N   UNL     1       5.008   4.291  18.555  0.00  0.00    +0.000 N 
ATOM      5  C   UNL     1       6.317   4.727  18.449  0.00  0.00    +0.000 C 
ATOM      6  O   UNL     1       6.896   5.311  19.369  0.00  0.00    +0.000 OA
ATOM      7  C   UNL     1       4.334   3.364  17.643  0.00  0.00    +0.000 C 
ATOM      8  C   UNL     1       2.957   3.917  17.261  0.00  0.00    +0.000 C 
ENDROOT
BRANCH   1  10
ATOM      9  C   UNL     1       1.068   3.184  20.792  0.00  0.00    +0.000 C 
ATOM     10  S   UNL     1       1.483   2.664  19.144  0.00  0.00    +0.000 S 
ATOM     11  O   UNL     1       2.545   1.687  19.224  0.00  0.00    +0.000 OA
ATOM     12  O   UNL     1       0.243   2.365  18.460  0.00  0.00    +0.000 OA
ENDBRANCH   1  10
BRANCH   5  13
ATOM     13  C   UNL     1       7.053   4.480  17.145  0.00  0.00    +0.000 C 
BRANCH  13  14
ATOM     14  C   UNL     1       6.965   5.620  16.123  0.00  0.00    +0.000 C 
BRANCH  14  15
ATOM     15  C   UNL     1       6.455   5.251  14.732  0.00  0.00    +0.000 C 
ATOM     16  C   UNL     1       6.029   3.806  14.552  0.00  0.00    +0.000 C 
ATOM     17  C   UNL     1       6.138   3.651  13.056  0.00  0.00    +0.000 C 
ATOM     18  C   UNL     1       7.377   4.467  12.746  0.00  0.00    +0.000 C 
ATOM     19  O   UNL     1       7.433   5.526  13.717  0.00  0.00    +0.000 OA
ENDBRANCH  14  15
ENDBRANCH  13  14
ENDBRANCH   5  13
TORSDOF 4
ENDMDL
MODEL 2
REMARK VINA RESULT:      -6.7      2.861      6.522
REMARK  Name = 
REMARK  5 active torsions:
REMARK  status: ('A' for Active; 'I' for Inactive)
REMARK    1  A    between atoms: C_1  and  S_2
REMARK    2  A    between atoms: S_2  and  N_5
REMARK    3  A    between atoms: C_9  and  C_11
REMARK    4  A    between atoms: C_11  and  C_12
REMARK    5  A    between atoms: C_12  and  C_13
REMARK                            x       y       z     vdW  Elec       q    Type
REMARK                         _______ _______ _______ _____ _____    ______ ____
ROOT
ATOM      1  N   UNL     1       5.718   5.955  18.441  0.00  0.00    +0.000 NA
ATOM      2  C   UNL     1       4.837   6.072  17.225  0.00  0.00    +0.000 C 
ATOM      3  C   UNL     1       4.513   4.704  16.589  0.00  0.00    +0.000 C 
ATOM      4  N   UNL     1       4.084   3.715  17.588  0.00  0.00    +0.000 N 
ATOM      5  C   UNL     1       3.024   2.878  17.288  0.00  0.00    +0.000 C 
ATOM      6  O   UNL     1       2.480   2.871  16.181  0.00  0.00    +0.000 OA
ATOM      7  C   UNL     1       4.960   3.609  18.757  0.00  0.00    +0.000 C 
ATOM      8  C   UNL     1       5.123   4.984  19.414  0.00  0.00    +0.000 C 
ENDROOT
BRANCH   1  10
ATOM      9  C   UNL     1       7.903   7.447  17.936  0.00  0.00    +0.000 C 
ATOM     10  S   UNL     1       7.386   5.762  18.163  0.00  0.00    +0.000 S 
ATOM     11  O   UNL     1       7.567   5.052  16.918  0.00  0.00    +0.000 OA
ATOM     12  O   UNL     1       7.991   5.286  19.389  0.00  0.00    +0.000 OA
ENDBRANCH   1  10
BRANCH   5  13
ATOM     13  C   UNL     1       2.516   1.946  18.372  0.00  0.00    +0.000 C 
BRANCH  13  14
ATOM     14  C   UNL     1       1.100   2.247  18.877  0.00  0.00    +0.000 C 
BRANCH  14  15
ATOM     15  C   UNL     1       0.979   3.284  19.992  0.00  0.00    +0.000 C 
ATOM     16  C   UNL     1       1.380   4.698  19.618  0.00  0.00    +0.000 C 
ATOM     17  C   UNL     1       1.683   5.286  20.973  0.00  0.00    +0.000 C 
ATOM     18  C   UNL     1       2.342   4.119  21.681  0.00  0.00    +0.000 C 
ATOM     19  O   UNL     1       1.757   2.921  21.143  0.00  0.00    +0.000 OA
ENDBRANCH  14  15
ENDBRANCH  13  14
ENDBRANCH   5  13
TORSDOF 4
ENDMDL
MODEL 3
REMARK VINA RESULT:      -6.6      1.829      2.445
REMARK  Name = 
REMARK  5 active torsions:
REMARK  status: ('A' for Active; 'I' for Inactive)
REMARK    1  A    between atoms: C_1  and  S_2
REMARK    2  A    between atoms: S_2  and  N_5
REMARK    3  A    between atoms: C_9  and  C_11
REMARK    4  A    between atoms: C_11  and  C_12
REMARK    5  A    between atoms: C_12  and  C_13
REMARK                            x       y       z     vdW  Elec       q    Type
REMARK                         _______ _______ _______ _____ _____    ______ ____
ROOT
ATOM      1  N   UNL     1       3.112   4.668  19.286  0.00  0.00    +0.000 NA
ATOM      2  C   UNL     1       4.515   5.169  19.509  0.00  0.00    +0.000 C 
ATOM      3  C   UNL     1       5.558   4.426  18.648  0.00  0.00    +0.000 C 
ATOM      4  N   UNL     1       5.142   4.317  17.243  0.00  0.00    +0.000 N 
ATOM      5  C   UNL     1       6.081   4.527  16.249  0.00  0.00    +0.000 C 
ATOM      6  O   UNL     1       7.275   4.718  16.497  0.00  0.00    +0.000 OA
ATOM      7  C   UNL     1       3.779   3.818  17.047  0.00  0.00    +0.000 C 
ATOM      8  C   UNL     1       2.786   4.690  17.824  0.00  0.00    +0.000 C 
ENDROOT
BRANCH   1  10
ATOM      9  C   UNL     1       1.106   2.871  19.336  0.00  0.00    +0.000 C 
ATOM     10  S   UNL     1       2.670   3.239  20.097  0.00  0.00    +0.000 S 
ATOM     11  O   UNL     1       2.441   3.550  21.490  0.00  0.00    +0.000 OA
ATOM     12  O   UNL     1       3.596   2.198  19.706  0.00  0.00    +0.000 OA
ENDBRANCH   1  10
BRANCH   5  13
ATOM     13  C   UNL     1       5.612   4.531  14.806  0.00  0.00    +0.000 C 
BRANCH  13  14
ATOM     14  C   UNL     1       6.687   4.177  13.772  0.00  0.00    +0.000 C 
BRANCH  14  15
ATOM     15  C   UNL     1       6.192   3.743  12.394  0.00  0.00    +0.000 C 
ATOM     16  C   UNL     1       4.691   3.566  12.262  0.00  0.00    +0.000 C 
ATOM     17  C   UNL     1       4.606   2.646  11.071  0.00  0.00    +0.000 C 
ATOM     18  C   UNL     1       5.794   1.732  11.296  0.00  0.00    +0.000 C 
ATOM     19  O   UNL     1       6.794   2.508  11.978  0.00  0.00    +0.000 OA
ENDBRANCH  14  15
ENDBRANCH  13  14
ENDBRANCH   5  13
TORSDOF 4
ENDMDL
MODEL 4
REMARK VINA RESULT:      -6.6      1.391      1.867
REMARK  Name = 
REMARK  5 active torsions:
REMARK  status: ('A' for Active; 'I' for Inactive)
REMARK    1  A    between atoms: C_1  and  S_2
REMARK    2  A    between atoms: S_2  and  N_5
REMARK    3  A    between atoms: C_9  and  C_11
REMARK    4  A    between atoms: C_11  and  C_12
REMARK    5  A    between atoms: C_12  and  C_13
REMARK                            x       y       z     vdW  Elec       q    Type
REMARK                         _______ _______ _______ _____ _____    ______ ____
ROOT
ATOM      1  N   UNL     1       2.679   4.283  19.206  0.00  0.00    +0.000 NA
ATOM      2  C   UNL     1       4.048   4.590  19.755  0.00  0.00    +0.000 C 
ATOM      3  C   UNL     1       5.184   4.094  18.837  0.00  0.00    +0.000 C 
ATOM      4  N   UNL     1       4.968   4.470  17.433  0.00  0.00    +0.000 N 
ATOM      5  C   UNL     1       6.041   4.924  16.689  0.00  0.00    +0.000 C 
ATOM      6  O   UNL     1       7.192   4.944  17.133  0.00  0.00    +0.000 OA
ATOM      7  C   UNL     1       3.635   4.153  16.915  0.00  0.00    +0.000 C 
ATOM      8  C   UNL     1       2.563   4.794  17.803  0.00  0.00    +0.000 C 
ENDROOT
BRANCH   1  10
ATOM      9  C   UNL     1       1.873   2.669  21.207  0.00  0.00    +0.000 C 
ATOM     10  S   UNL     1       2.095   2.702  19.443  0.00  0.00    +0.000 S 
ATOM     11  O   UNL     1       3.138   1.766  19.093  0.00  0.00    +0.000 OA
ATOM     12  O   UNL     1       0.781   2.616  18.841  0.00  0.00    +0.000 OA
ENDBRANCH   1  10
BRANCH   5  13
ATOM     13  C   UNL     1       5.780   5.422  15.279  0.00  0.00    +0.000 C 
BRANCH  13  14
ATOM     14  C   UNL     1       6.700   4.837  14.202  0.00  0.00    +0.000 C 
BRANCH  14  15
ATOM     15  C   UNL     1       6.170   3.629  13.433  0.00  0.00    +0.000 C 
ATOM     16  C   UNL     1       6.894   3.305  12.139  0.00  0.00    +0.000 C 
ATOM     17  C   UNL     1       5.845   2.509  11.406  0.00  0.00    +0.000 C 
ATOM     18  C   UNL     1       4.573   3.240  11.788  0.00  0.00    +0.000 C 
ATOM     19  O   UNL     1       4.779   3.776  13.105  0.00  0.00    +0.000 OA
ENDBRANCH  14  15
ENDBRANCH  13  14
ENDBRANCH   5  13
TORSDOF 4
ENDMDL
MODEL 5
REMARK VINA RESULT:      -6.6      1.922      2.390
REMARK  Name = 
REMARK  5 active torsions:
REMARK  status: ('A' for Active; 'I' for Inactive)
REMARK    1  A    between atoms: C_1  and  S_2
REMARK    2  A    between atoms: S_2  and  N_5
REMARK    3  A    between atoms: C_9  and  C_11
REMARK    4  A    between atoms: C_11  and  C_12
REMARK    5  A    between atoms: C_12  and  C_13
REMARK                            x       y       z     vdW  Elec       q    Type
REMARK                         _______ _______ _______ _____ _____    ______ ____
ROOT
ATOM      1  N   UNL     1       2.622   3.763  18.384  0.00  0.00    +0.000 NA
ATOM      2  C   UNL     1       2.453   5.138  17.793  0.00  0.00    +0.000 C 
ATOM      3  C   UNL     1       3.773   5.934  17.747  0.00  0.00    +0.000 C 
ATOM      4  N   UNL     1       4.881   5.142  17.197  0.00  0.00    +0.000 N 
ATOM      5  C   UNL     1       5.759   5.743  16.313  0.00  0.00    +0.000 C 
ATOM      6  O   UNL     1       5.699   6.943  16.035  0.00  0.00    +0.000 OA
ATOM      7  C   UNL     1       5.036   3.813  17.793  0.00  0.00    +0.000 C 
ATOM      8  C   UNL     1       3.722   3.032  17.678  0.00  0.00    +0.000 C 
ENDROOT
BRANCH   1  10
ATOM      9  C   UNL     1       1.017   3.112  20.448  0.00  0.00    +0.000 C 
ATOM     10  S   UNL     1       2.668   3.660  20.083  0.00  0.00    +0.000 S 
ATOM     11  O   UNL     1       2.842   4.989  20.622  0.00  0.00    +0.000 OA
ATOM     12  O   UNL     1       3.569   2.585  20.441  0.00  0.00    +0.000 OA
ENDBRANCH   1  10
BRANCH   5  13
ATOM     13  C   UNL     1       6.825   4.881  15.661  0.00  0.00    +0.000 C 
BRANCH  13  14
ATOM     14  C   UNL     1       6.819   4.888  14.128  0.00  0.00    +0.000 C 
BRANCH  14  15
ATOM     15  C   UNL     1       6.186   3.680  13.442  0.00  0.00    +0.000 C 
ATOM     16  C   UNL     1       6.868   3.217  12.169  0.00  0.00    +0.000 C 
ATOM     17  C   UNL     1       5.751   2.461  11.494  0.00  0.00    +0.000 C 
ATOM     18  C   UNL     1       4.545   3.314  11.835  0.00  0.00    +0.000 C 
ATOM     19  O   UNL     1       4.808   3.916  13.114  0.00  0.00    +0.000 OA
ENDBRANCH  14  15
ENDBRANCH  13  14
ENDBRANCH   5  13
TORSDOF 4
ENDMDL
MODEL 6
REMARK VINA RESULT:      -6.6      1.515      1.966
REMARK  Name = 
REMARK  5 active torsions:
REMARK  status: ('A' for Active; 'I' for Inactive)
REMARK    1  A    between atoms: C_1  and  S_2
REMARK    2  A    between atoms: S_2  and  N_5
REMARK    3  A    between atoms: C_9  and  C_11
REMARK    4  A    between atoms: C_11  and  C_12
REMARK    5  A    between atoms: C_12  and  C_13
REMARK                            x       y       z     vdW  Elec       q    Type
REMARK                         _______ _______ _______ _____ _____    ______ ____
ROOT
ATOM      1  N   UNL     1       2.520   4.322  19.174  0.00  0.00    +0.000 NA
ATOM      2  C   UNL     1       3.869   4.787  19.659  0.00  0.00    +0.000 C 
ATOM      3  C   UNL     1       5.035   4.162  18.866  0.00  0.00    +0.000 C 
ATOM      4  N   UNL     1       4.825   4.241  17.414  0.00  0.00    +0.000 N 
ATOM      5  C   UNL     1       5.891   4.578  16.600  0.00  0.00    +0.000 C 
ATOM      6  O   UNL     1       7.034   4.733  17.038  0.00  0.00    +0.000 OA
ATOM      7  C   UNL     1       3.512   3.773  16.961  0.00  0.00    +0.000 C 
ATOM      8  C   UNL     1       2.404   4.537  17.696  0.00  0.00    +0.000 C 
ENDROOT
BRANCH   1  10
ATOM      9  C   UNL     1       1.829   3.089  21.466  0.00  0.00    +0.000 C 
ATOM     10  S   UNL     1       1.992   2.799  19.720  0.00  0.00    +0.000 S 
ATOM     11  O   UNL     1       3.052   1.840  19.510  0.00  0.00    +0.000 OA
ATOM     12  O   UNL     1       0.663   2.572  19.194  0.00  0.00    +0.000 OA
ENDBRANCH   1  10
BRANCH   5  13
ATOM     13  C   UNL     1       5.631   4.773  15.117  0.00  0.00    +0.000 C 
BRANCH  13  14
ATOM     14  C   UNL     1       6.548   3.972  14.186  0.00  0.00    +0.000 C 
BRANCH  14  15
ATOM     15  C   UNL     1       6.065   3.783  12.750  0.00  0.00    +0.000 C 
ATOM     16  C   UNL     1       4.565   3.628  12.577  0.00  0.00    +0.000 C 
ATOM     17  C   UNL     1       4.493   2.929  11.244  0.00  0.00    +0.000 C 
ATOM     18  C   UNL     1       5.682   1.992  11.316  0.00  0.00    +0.000 C 
ATOM     19  O   UNL     1       6.674   2.640  12.130  0.00  0.00    +0.000 OA
ENDBRANCH  14  15
ENDBRANCH  13  14
ENDBRANCH   5  13
TORSDOF 4
ENDMDL
MODEL 7
REMARK VINA RESULT:      -6.6      1.724      1.980
REMARK  Name = 
REMARK  5 active torsions:
REMARK  status: ('A' for Active; 'I' for Inactive)
REMARK    1  A    between atoms: C_1  and  S_2
REMARK    2  A    between atoms: S_2  and  N_5
REMARK    3  A    between atoms: C_9  and  C_11
REMARK    4  A    between atoms: C_11  and  C_12
REMARK    5  A    between atoms: C_12  and  C_13
REMARK                            x       y       z     vdW  Elec       q    Type
REMARK                         _______ _______ _______ _____ _____    ______ ____
ROOT
ATOM      1  N   UNL     1       2.544   3.365  19.034  0.00  0.00    +0.000 NA
ATOM      2  C   UNL     1       2.159   4.397  18.007  0.00  0.00    +0.000 C 
ATOM      3  C   UNL     1       2.968   5.704  18.143  0.00  0.00    +0.000 C 
ATOM      4  N   UNL     1       4.409   5.454  18.278  0.00  0.00    +0.000 N 
ATOM      5  C   UNL     1       5.296   6.261  17.590  0.00  0.00    +0.000 C 
ATOM      6  O   UNL     1       4.928   7.238  16.932  0.00  0.00    +0.000 OA
ATOM      7  C   UNL     1       4.763   4.456  19.291  0.00  0.00    +0.000 C 
ATOM      8  C   UNL     1       4.025   3.142  19.009  0.00  0.00    +0.000 C 
ENDROOT
BRANCH   1  10
ATOM      9  C   UNL     1       2.830   2.373  21.523  0.00  0.00    +0.000 C 
ATOM     10  S   UNL     1       1.873   3.543  20.588  0.00  0.00    +0.000 S 
ATOM     11  O   UNL     1       0.500   3.091  20.553  0.00  0.00    +0.000 OA
ATOM     12  O   UNL     1       2.212   4.864  21.073  0.00  0.00    +0.000 OA
ENDBRANCH   1  10
BRANCH   5  13
ATOM     13  C   UNL     1       6.773   5.917  17.644  0.00  0.00    +0.000 C 
BRANCH  13  14
ATOM     14  C   UNL     1       7.227   4.841  16.650  0.00  0.00    +0.000 C 
BRANCH  14  15
ATOM     15  C   UNL     1       6.698   4.963  15.223  0.00  0.00    +0.000 C 
ATOM     16  C   UNL     1       6.193   3.676  14.599  0.00  0.00    +0.000 C 
ATOM     17  C   UNL     1       6.293   4.002  13.130  0.00  0.00    +0.000 C 
ATOM     18  C   UNL     1       7.575   4.809  13.075  0.00  0.00    +0.000 C 
ATOM     19  O   UNL     1       7.689   5.497  14.332  0.00  0.00    +0.000 OA
ENDBRANCH  14  15
ENDBRANCH  13  14
ENDBRANCH   5  13
TORSDOF 4
ENDMDL
MODEL 8
REMARK VINA RESULT:      -6.5      2.603      6.502
REMARK  Name = 
REMARK  5 active torsions:
REMARK  status: ('A' for Active; 'I' for Inactive)
REMARK    1  A    between atoms: C_1  and  S_2
REMARK    2  A    between atoms: S_2  and  N_5
REMARK    3  A    between atoms: C_9  and  C_11
REMARK    4  A    between atoms: C_11  and  C_12
REMARK    5  A    between atoms: C_12  and  C_13
REMARK                            x       y       z     vdW  Elec       q    Type
REMARK                         _______ _______ _______ _____ _____    ______ ____
ROOT
ATOM      1  N   UNL     1       5.930   6.152  17.429  0.00  0.00    +0.000 NA
ATOM      2  C   UNL     1       5.675   5.290  16.221  0.00  0.00    +0.000 C 
ATOM      3  C   UNL     1       4.878   4.012  16.557  0.00  0.00    +0.000 C 
ATOM      4  N   UNL     1       3.701   4.295  17.392  0.00  0.00    +0.000 N 
ATOM      5  C   UNL     1       2.511   3.649  17.111  0.00  0.00    +0.000 C 
ATOM      6  O   UNL     1       2.419   2.781  16.239  0.00  0.00    +0.000 OA
ATOM      7  C   UNL     1       3.973   5.125  18.568  0.00  0.00    +0.000 C 
ATOM      8  C   UNL     1       4.641   6.436  18.138  0.00  0.00    +0.000 C 
ENDROOT
BRANCH   1  10
ATOM      9  C   UNL     1       8.173   7.190  18.500  0.00  0.00    +0.000 C 
ATOM     10  S   UNL     1       7.218   5.692  18.441  0.00  0.00    +0.000 S 
ATOM     11  O   UNL     1       7.996   4.677  17.767  0.00  0.00    +0.000 OA
ATOM     12  O   UNL     1       6.686   5.466  19.768  0.00  0.00    +0.000 OA
ENDBRANCH   1  10
BRANCH   5  13
ATOM     13  C   UNL     1       1.277   4.040  17.903  0.00  0.00    +0.000 C 
BRANCH  13  14
ATOM     14  C   UNL     1       0.594   2.891  18.652  0.00  0.00    +0.000 C 
BRANCH  14  15
ATOM     15  C   UNL     1       1.178   2.519  20.013  0.00  0.00    +0.000 C 
ATOM     16  C   UNL     1       1.223   3.640  21.034  0.00  0.00    +0.000 C 
ATOM     17  C   UNL     1       2.299   3.144  21.968  0.00  0.00    +0.000 C 
ATOM     18  C   UNL     1       3.282   2.510  21.004  0.00  0.00    +0.000 C 
ATOM     19  O   UNL     1       2.515   2.009  19.896  0.00  0.00    +0.000 OA
ENDBRANCH  14  15
ENDBRANCH  13  14
ENDBRANCH   5  13
TORSDOF 4
ENDMDL
MODEL 9
REMARK VINA RESULT:      -6.5      0.937      1.203
REMARK  Name = 
REMARK  5 active torsions:
REMARK  status: ('A' for Active; 'I' for Inactive)
REMARK    1  A    between atoms: C_1  and  S_2
REMARK    2  A    between atoms: S_2  and  N_5
REMARK    3  A    between atoms: C_9  and  C_11
REMARK    4  A    between atoms: C_11  and  C_12
REMARK    5  A    between atoms: C_12  and  C_13
REMARK                            x       y       z     vdW  Elec       q    Type
REMARK                         _______ _______ _______ _____ _____    ______ ____
ROOT
ATOM      1  N   UNL     1       1.982   4.051  18.073  0.00  0.00    +0.000 NA
ATOM      2  C   UNL     1       2.541   5.285  18.732  0.00  0.00    +0.000 C 
ATOM      3  C   UNL     1       4.012   5.116  19.164  0.00  0.00    +0.000 C 
ATOM      4  N   UNL     1       4.842   4.539  18.096  0.00  0.00    +0.000 N 
ATOM      5  C   UNL     1       6.106   5.056  17.878  0.00  0.00    +0.000 C 
ATOM      6  O   UNL     1       6.599   5.927  18.600  0.00  0.00    +0.000 OA
ATOM      7  C   UNL     1       4.286   3.334  17.477  0.00  0.00    +0.000 C 
ATOM      8  C   UNL     1       2.875   3.620  16.950  0.00  0.00    +0.000 C 
ENDROOT
BRANCH   1  10
ATOM      9  C   UNL     1       0.947   3.710  20.536  0.00  0.00    +0.000 C 
ATOM     10  S   UNL     1       1.469   2.798  19.103  0.00  0.00    +0.000 S 
ATOM     11  O   UNL     1       2.617   1.996  19.462  0.00  0.00    +0.000 OA
ATOM     12  O   UNL     1       0.289   2.195  18.521  0.00  0.00    +0.000 OA
ENDBRANCH   1  10
BRANCH   5  13
ATOM     13  C   UNL     1       6.902   4.532  16.697  0.00  0.00    +0.000 C 
BRANCH  13  14
ATOM     14  C   UNL     1       6.441   5.040  15.325  0.00  0.00    +0.000 C 
BRANCH  14  15
ATOM     15  C   UNL     1       6.539   4.053  14.164  0.00  0.00    +0.000 C 
ATOM     16  C   UNL     1       7.324   4.535  12.959  0.00  0.00    +0.000 C 
ATOM     17  C   UNL     1       6.771   3.647  11.873  0.00  0.00    +0.000 C 
ATOM     18  C   UNL     1       5.307   3.560  12.255  0.00  0.00    +0.000 C 
ATOM     19  O   UNL     1       5.242   3.662  13.687  0.00  0.00    +0.000 OA
ENDBRANCH  14  15
ENDBRANCH  13  14
ENDBRANCH   5  13
TORSDOF 4
ENDMDL
