MODEL 1
REMARK VINA RESULT:      -7.5      0.000      0.000
REMARK  Name = 
REMARK  10 active torsions:
REMARK  status: ('A' for Active; 'I' for Inactive)
REMARK    1  A    between atoms: C_1  and  O_2
REMARK    2  A    between atoms: O_2  and  C_3
REMARK    3  A    between atoms: C_7  and  C_8
REMARK    4  A    between atoms: C_8  and  N_9
REMARK    5  A    between atoms: N_11  and  C_12
REMARK    6  A    between atoms: C_12  and  C_13
REMARK    7  A    between atoms: C_13  and  C_14
REMARK    8  A    between atoms: C_13  and  C_15
REMARK    9  A    between atoms: N_21  and  C_22
REMARK   10  A    between atoms: N_25  and  C_26
REMARK                            x       y       z     vdW  Elec       q    Type
REMARK                         _______ _______ _______ _____ _____    ______ ____
ROOT
ATOM      1  N   UNL     1       2.202   7.482  18.841  0.00  0.00    +0.000 N 
ATOM      2  C   UNL     1       2.108   6.639  19.939  0.00  0.00    +0.000 A 
ATOM      3  N   UNL     1       2.412   5.320  19.910  0.00  0.00    +0.000 N 
ATOM      4  N   UNL     1       1.623   7.279  20.981  0.00  0.00    +0.000 NA
ATOM      5  C   UNL     1       1.440   8.552  20.565  0.00  0.00    +0.000 A 
ATOM      6  C   UNL     1       1.795   8.729  19.263  0.00  0.00    +0.000 A 
ATOM      7  C   UNL     1       1.696   9.998  18.612  0.00  0.00    +0.000 A 
ATOM      8  O   UNL     1       2.023  10.177  17.446  0.00  0.00    +0.000 OA
ATOM      9  N   UNL     1       1.205  11.006  19.459  0.00  0.00    +0.000 N 
ATOM     10  C   UNL     1       1.071  12.352  18.935  0.00  0.00    +0.000 C 
ATOM     11  C   UNL     1       0.816  10.839  20.804  0.00  0.00    +0.000 A 
ATOM     12  O   UNL     1       0.378  11.786  21.464  0.00  0.00    +0.000 OA
ATOM     13  N   UNL     1       0.948   9.567  21.347  0.00  0.00    +0.000 N 
ATOM     14  C   UNL     1       0.565   9.298  22.720  0.00  0.00    +0.000 C 
ATOM     15  H   UNL     1       2.621   4.860  19.032  0.00  0.00    +0.000 HD
ENDROOT
BRANCH   1  16
ATOM     16  C   UNL     1       2.641   7.119  17.500  0.00  0.00    +0.000 C 
BRANCH  16  21
ATOM     17  C   UNL     1       6.356   6.231  17.634  0.00  0.00    +0.000 A 
ATOM     18  C   UNL     1       6.330   4.855  17.411  0.00  0.00    +0.000 A 
ATOM     19  C   UNL     1       5.117   4.189  17.252  0.00  0.00    +0.000 A 
ATOM     20  C   UNL     1       3.918   4.902  17.287  0.00  0.00    +0.000 A 
ATOM     21  C   UNL     1       3.914   6.294  17.469  0.00  0.00    +0.000 A 
ATOM     22  C   UNL     1       5.150   6.939  17.685  0.00  0.00    +0.000 A 
BRANCH  17  24
ATOM     23  C   UNL     1       7.731   8.172  17.634  0.00  0.00    +0.000 C 
ATOM     24  O   UNL     1       7.609   6.762  17.770  0.00  0.00    +0.000 OA
ENDBRANCH  17  24
ENDBRANCH  16  21
ENDBRANCH   1  16
BRANCH   3  25
ATOM     25  C   UNL     1       1.714   4.489  20.894  0.00  0.00    +0.000 C 
BRANCH  25  26
ATOM     26  C   UNL     1       1.736   2.991  20.558  0.00  0.00    +0.000 C 
ATOM     27  C   UNL     1       0.823   2.635  19.384  0.00  0.00    +0.000 C 
ATOM     28  C   UNL     1       3.154   2.475  20.327  0.00  0.00    +0.000 C 
ENDBRANCH  25  26
ENDBRANCH   3  25
TORSDOF 5
ENDMDL
MODEL 2
REMARK VINA RESULT:      -7.4      3.648      6.634
REMARK  Name = 
REMARK  10 active torsions:
REMARK  status: ('A' for Active; 'I' for Inactive)
REMARK    1  A    between atoms: C_1  and  O_2
REMARK    2  A    between atoms: O_2  and  C_3
REMARK    3  A    between atoms: C_7  and  C_8
REMARK    4  A    between atoms: C_8  and  N_9
REMARK    5  A    between atoms: N_11  and  C_12
REMARK    6  A    between atoms: C_12  and  C_13
REMARK    7  A    between atoms: C_13  and  C_14
REMARK    8  A    between atoms: C_13  and  C_15
REMARK    9  A    between atoms: N_21  and  C_22
REMARK   10  A    between atoms: N_25  and  C_26
REMARK                            x       y       z     vdW  Elec       q    Type
REMARK                         _______ _______ _______ _____ _____    ______ ____
ROOT
ATOM      1  N   UNL     1       5.450   4.776  16.935  0.00  0.00    +0.000 N 
ATOM      2  C   UNL     1       5.545   6.159  17.002  0.00  0.00    +0.000 A 
ATOM      3  N   UNL     1       6.564   6.874  16.468  0.00  0.00    +0.000 N 
ATOM      4  N   UNL     1       4.555   6.665  17.705  0.00  0.00    +0.000 NA
ATOM      5  C   UNL     1       3.794   5.606  18.062  0.00  0.00    +0.000 A 
ATOM      6  C   UNL     1       4.294   4.427  17.601  0.00  0.00    +0.000 A 
ATOM      7  C   UNL     1       3.649   3.176  17.848  0.00  0.00    +0.000 A 
ATOM      8  O   UNL     1       4.078   2.109  17.430  0.00  0.00    +0.000 OA
ATOM      9  N   UNL     1       2.469   3.314  18.602  0.00  0.00    +0.000 N 
ATOM     10  C   UNL     1       1.699   2.125  18.911  0.00  0.00    +0.000 C 
ATOM     11  C   UNL     1       1.944   4.523  19.102  0.00  0.00    +0.000 A 
ATOM     12  O   UNL     1       0.907   4.539  19.772  0.00  0.00    +0.000 OA
ATOM     13  N   UNL     1       2.646   5.686  18.810  0.00  0.00    +0.000 N 
ATOM     14  C   UNL     1       2.187   6.976  19.291  0.00  0.00    +0.000 C 
ATOM     15  H   UNL     1       7.376   6.405  16.084  0.00  0.00    +0.000 HD
ENDROOT
BRANCH   1  16
ATOM     16  C   UNL     1       6.390   3.868  16.293  0.00  0.00    +0.000 C 
BRANCH  16  21
ATOM     17  C   UNL     1       5.672   3.423  12.565  0.00  0.00    +0.000 A 
ATOM     18  C   UNL     1       6.603   4.286  11.989  0.00  0.00    +0.000 A 
ATOM     19  C   UNL     1       7.448   5.050  12.791  0.00  0.00    +0.000 A 
ATOM     20  C   UNL     1       7.386   4.934  14.180  0.00  0.00    +0.000 A 
ATOM     21  C   UNL     1       6.487   4.044  14.788  0.00  0.00    +0.000 A 
ATOM     22  C   UNL     1       5.603   3.323  13.959  0.00  0.00    +0.000 A 
BRANCH  17  24
ATOM     23  C   UNL     1       3.875   3.450  11.006  0.00  0.00    +0.000 C 
ATOM     24  O   UNL     1       4.907   2.730  11.668  0.00  0.00    +0.000 OA
ENDBRANCH  17  24
ENDBRANCH  16  21
ENDBRANCH   1  16
BRANCH   3  25
ATOM     25  C   UNL     1       6.839   8.161  17.114  0.00  0.00    +0.000 C 
BRANCH  25  26
ATOM     26  C   UNL     1       8.205   8.217  17.811  0.00  0.00    +0.000 C 
ATOM     27  C   UNL     1       8.527   9.603  18.370  0.00  0.00    +0.000 C 
ATOM     28  C   UNL     1       8.346   7.144  18.888  0.00  0.00    +0.000 C 
ENDBRANCH  25  26
ENDBRANCH   3  25
TORSDOF 5
ENDMDL
MODEL 3
REMARK VINA RESULT:      -7.4      1.133      1.348
REMARK  Name = 
REMARK  10 active torsions:
REMARK  status: ('A' for Active; 'I' for Inactive)
REMARK    1  A    between atoms: C_1  and  O_2
REMARK    2  A    between atoms: O_2  and  C_3
REMARK    3  A    between atoms: C_7  and  C_8
REMARK    4  A    between atoms: C_8  and  N_9
REMARK    5  A    between atoms: N_11  and  C_12
REMARK    6  A    between atoms: C_12  and  C_13
REMARK    7  A    between atoms: C_13  and  C_14
REMARK    8  A    between atoms: C_13  and  C_15
REMARK    9  A    between atoms: N_21  and  C_22
REMARK   10  A    between atoms: N_25  and  C_26
REMARK                            x       y       z     vdW  Elec       q    Type
REMARK                         _______ _______ _______ _____ _____    ______ ____
ROOT
ATOM      1  N   UNL     1       2.770   6.649  18.786  0.00  0.00    +0.000 N 
ATOM      2  C   UNL     1       2.518   5.826  19.875  0.00  0.00    +0.000 A 
ATOM      3  N   UNL     1       2.968   4.554  19.981  0.00  0.00    +0.000 N 
ATOM      4  N   UNL     1       1.735   6.425  20.745  0.00  0.00    +0.000 NA
ATOM      5  C   UNL     1       1.511   7.657  20.235  0.00  0.00    +0.000 A 
ATOM      6  C   UNL     1       2.138   7.847  19.041  0.00  0.00    +0.000 A 
ATOM      7  C   UNL     1       2.050   9.079  18.322  0.00  0.00    +0.000 A 
ATOM      8  O   UNL     1       2.617   9.271  17.255  0.00  0.00    +0.000 OA
ATOM      9  N   UNL     1       1.264  10.039  18.983  0.00  0.00    +0.000 N 
ATOM     10  C   UNL     1       1.105  11.346  18.376  0.00  0.00    +0.000 C 
ATOM     11  C   UNL     1       0.594   9.856  20.211  0.00  0.00    +0.000 A 
ATOM     12  O   UNL     1      -0.090  10.758  20.705  0.00  0.00    +0.000 OA
ATOM     13  N   UNL     1       0.739   8.622  20.832  0.00  0.00    +0.000 N 
ATOM     14  C   UNL     1       0.079   8.339  22.093  0.00  0.00    +0.000 C 
ATOM     15  H   UNL     1       3.427   4.103  19.199  0.00  0.00    +0.000 HD
ENDROOT
BRANCH   1  16
ATOM     16  C   UNL     1       3.547   6.313  17.601  0.00  0.00    +0.000 C 
BRANCH  16  21
ATOM     17  C   UNL     1       7.174   7.518  17.573  0.00  0.00    +0.000 A 
ATOM     18  C   UNL     1       7.837   6.446  18.171  0.00  0.00    +0.000 A 
ATOM     19  C   UNL     1       7.123   5.340  18.624  0.00  0.00    +0.000 A 
ATOM     20  C   UNL     1       5.738   5.285  18.457  0.00  0.00    +0.000 A 
ATOM     21  C   UNL     1       5.048   6.329  17.822  0.00  0.00    +0.000 A 
ATOM     22  C   UNL     1       5.784   7.465  17.423  0.00  0.00    +0.000 A 
BRANCH  17  24
ATOM     23  C   UNL     1       8.460   9.426  18.176  0.00  0.00    +0.000 C 
ATOM     24  O   UNL     1       7.990   8.539  17.170  0.00  0.00    +0.000 OA
ENDBRANCH  17  24
ENDBRANCH  16  21
ENDBRANCH   1  16
BRANCH   3  25
ATOM     25  C   UNL     1       2.159   3.666  20.821  0.00  0.00    +0.000 C 
BRANCH  25  26
ATOM     26  C   UNL     1       1.658   2.415  20.086  0.00  0.00    +0.000 C 
ATOM     27  C   UNL     1       0.428   2.689  19.221  0.00  0.00    +0.000 C 
ATOM     28  C   UNL     1       2.763   1.747  19.271  0.00  0.00    +0.000 C 
ENDBRANCH  25  26
ENDBRANCH   3  25
TORSDOF 5
ENDMDL
MODEL 4
REMARK VINA RESULT:      -7.4      3.314      6.022
REMARK  Name = 
REMARK  10 active torsions:
REMARK  status: ('A' for Active; 'I' for Inactive)
REMARK    1  A    between atoms: C_1  and  O_2
REMARK    2  A    between atoms: O_2  and  C_3
REMARK    3  A    between atoms: C_7  and  C_8
REMARK    4  A    between atoms: C_8  and  N_9
REMARK    5  A    between atoms: N_11  and  C_12
REMARK    6  A    between atoms: C_12  and  C_13
REMARK    7  A    between atoms: C_13  and  C_14
REMARK    8  A    between atoms: C_13  and  C_15
REMARK    9  A    between atoms: N_21  and  C_22
REMARK   10  A    between atoms: N_25  and  C_26
REMARK                            x       y       z     vdW  Elec       q    Type
REMARK                         _______ _______ _______ _____ _____    ______ ____
ROOT
ATOM      1  N   UNL     1       4.690   5.591  16.722  0.00  0.00    +0.000 N 
ATOM      2  C   UNL     1       5.004   4.440  16.014  0.00  0.00    +0.000 A 
ATOM      3  N   UNL     1       5.880   4.402  14.982  0.00  0.00    +0.000 N 
ATOM      4  N   UNL     1       4.291   3.419  16.437  0.00  0.00    +0.000 NA
ATOM      5  C   UNL     1       3.540   3.904  17.451  0.00  0.00    +0.000 A 
ATOM      6  C   UNL     1       3.759   5.229  17.673  0.00  0.00    +0.000 A 
ATOM      7  C   UNL     1       3.082   5.951  18.703  0.00  0.00    +0.000 A 
ATOM      8  O   UNL     1       3.277   7.139  18.925  0.00  0.00    +0.000 OA
ATOM      9  N   UNL     1       2.191   5.147  19.435  0.00  0.00    +0.000 N 
ATOM     10  C   UNL     1       1.448   5.746  20.527  0.00  0.00    +0.000 C 
ATOM     11  C   UNL     1       1.937   3.778  19.209  0.00  0.00    +0.000 A 
ATOM     12  O   UNL     1       1.119   3.159  19.897  0.00  0.00    +0.000 OA
ATOM     13  N   UNL     1       2.644   3.165  18.183  0.00  0.00    +0.000 N 
ATOM     14  C   UNL     1       2.442   1.762  17.871  0.00  0.00    +0.000 C 
ATOM     15  H   UNL     1       6.268   5.259  14.605  0.00  0.00    +0.000 HD
ENDROOT
BRANCH   1  16
ATOM     16  C   UNL     1       5.231   6.925  16.502  0.00  0.00    +0.000 C 
BRANCH  16  21
ATOM     17  C   UNL     1       8.123   8.887  18.050  0.00  0.00    +0.000 A 
ATOM     18  C   UNL     1       8.724   7.921  18.857  0.00  0.00    +0.000 A 
ATOM     19  C   UNL     1       8.187   6.640  18.943  0.00  0.00    +0.000 A 
ATOM     20  C   UNL     1       7.055   6.305  18.198  0.00  0.00    +0.000 A 
ATOM     21  C   UNL     1       6.452   7.242  17.345  0.00  0.00    +0.000 A 
ATOM     22  C   UNL     1       6.979   8.550  17.318  0.00  0.00    +0.000 A 
BRANCH  17  24
ATOM     23  C   UNL     1       9.343  10.522  19.274  0.00  0.00    +0.000 C 
ATOM     24  O   UNL     1       8.751  10.102  18.051  0.00  0.00    +0.000 OA
ENDBRANCH  17  24
ENDBRANCH  16  21
ENDBRANCH   1  16
BRANCH   3  25
ATOM     25  C   UNL     1       5.653   3.338  14.000  0.00  0.00    +0.000 C 
BRANCH  25  26
ATOM     26  C   UNL     1       5.656   3.835  12.547  0.00  0.00    +0.000 C 
ATOM     27  C   UNL     1       7.024   3.700  11.879  0.00  0.00    +0.000 C 
ATOM     28  C   UNL     1       4.568   3.167  11.710  0.00  0.00    +0.000 C 
ENDBRANCH  25  26
ENDBRANCH   3  25
TORSDOF 5
ENDMDL
MODEL 5
REMARK VINA RESULT:      -7.3      2.864      5.888
REMARK  Name = 
REMARK  10 active torsions:
REMARK  status: ('A' for Active; 'I' for Inactive)
REMARK    1  A    between atoms: C_1  and  O_2
REMARK    2  A    between atoms: O_2  and  C_3
REMARK    3  A    between atoms: C_7  and  C_8
REMARK    4  A    between atoms: C_8  and  N_9
REMARK    5  A    between atoms: N_11  and  C_12
REMARK    6  A    between atoms: C_12  and  C_13
REMARK    7  A    between atoms: C_13  and  C_14
REMARK    8  A    between atoms: C_13  and  C_15
REMARK    9  A    between atoms: N_21  and  C_22
REMARK   10  A    between atoms: N_25  and  C_26
REMARK                            x       y       z     vdW  Elec       q    Type
REMARK                         _______ _______ _______ _____ _____    ______ ____
ROOT
ATOM      1  N   UNL     1       3.743   6.108  17.442  0.00  0.00    +0.000 N 
ATOM      2  C   UNL     1       2.776   6.940  17.990  0.00  0.00    +0.000 A 
ATOM      3  N   UNL     1       2.736   8.280  17.802  0.00  0.00    +0.000 N 
ATOM      4  N   UNL     1       1.956   6.261  18.762  0.00  0.00    +0.000 NA
ATOM      5  C   UNL     1       2.371   4.977  18.681  0.00  0.00    +0.000 A 
ATOM      6  C   UNL     1       3.455   4.830  17.871  0.00  0.00    +0.000 A 
ATOM      7  C   UNL     1       4.059   3.558  17.629  0.00  0.00    +0.000 A 
ATOM      8  O   UNL     1       5.026   3.408  16.894  0.00  0.00    +0.000 OA
ATOM      9  N   UNL     1       3.412   2.511  18.309  0.00  0.00    +0.000 N 
ATOM     10  C   UNL     1       3.908   1.159  18.138  0.00  0.00    +0.000 C 
ATOM     11  C   UNL     1       2.299   2.644  19.164  0.00  0.00    +0.000 A 
ATOM     12  O   UNL     1       1.810   1.663  19.732  0.00  0.00    +0.000 OA
ATOM     13  N   UNL     1       1.785   3.923  19.338  0.00  0.00    +0.000 N 
ATOM     14  C   UNL     1       0.647   4.159  20.207  0.00  0.00    +0.000 C 
ATOM     15  H   UNL     1       3.496   8.756  17.330  0.00  0.00    +0.000 HD
ENDROOT
BRANCH   1  16
ATOM     16  C   UNL     1       4.850   6.507  16.583  0.00  0.00    +0.000 C 
BRANCH  16  21
ATOM     17  C   UNL     1       7.851   8.493  17.872  0.00  0.00    +0.000 A 
ATOM     18  C   UNL     1       8.493   7.552  18.676  0.00  0.00    +0.000 A 
ATOM     19  C   UNL     1       7.951   6.281  18.845  0.00  0.00    +0.000 A 
ATOM     20  C   UNL     1       6.772   5.930  18.185  0.00  0.00    +0.000 A 
ATOM     21  C   UNL     1       6.124   6.842  17.336  0.00  0.00    +0.000 A 
ATOM     22  C   UNL     1       6.660   8.142  17.225  0.00  0.00    +0.000 A 
BRANCH  17  24
ATOM     23  C   UNL     1       9.129  10.176  18.964  0.00  0.00    +0.000 C 
ATOM     24  O   UNL     1       8.488   9.700  17.787  0.00  0.00    +0.000 OA
ENDBRANCH  17  24
ENDBRANCH  16  21
ENDBRANCH   1  16
BRANCH   3  25
ATOM     25  C   UNL     1       2.090   9.048  18.870  0.00  0.00    +0.000 C 
BRANCH  25  26
ATOM     26  C   UNL     1       1.167  10.161  18.353  0.00  0.00    +0.000 C 
ATOM     27  C   UNL     1      -0.214  10.135  19.008  0.00  0.00    +0.000 C 
ATOM     28  C   UNL     1       1.807  11.541  18.477  0.00  0.00    +0.000 C 
ENDBRANCH  25  26
ENDBRANCH   3  25
TORSDOF 5
ENDMDL
MODEL 6
REMARK VINA RESULT:      -7.3      1.051      1.284
REMARK  Name = 
REMARK  10 active torsions:
REMARK  status: ('A' for Active; 'I' for Inactive)
REMARK    1  A    between atoms: C_1  and  O_2
REMARK    2  A    between atoms: O_2  and  C_3
REMARK    3  A    between atoms: C_7  and  C_8
REMARK    4  A    between atoms: C_8  and  N_9
REMARK    5  A    between atoms: N_11  and  C_12
REMARK    6  A    between atoms: C_12  and  C_13
REMARK    7  A    between atoms: C_13  and  C_14
REMARK    8  A    between atoms: C_13  and  C_15
REMARK    9  A    between atoms: N_21  and  C_22
REMARK   10  A    between atoms: N_25  and  C_26
REMARK                            x       y       z     vdW  Elec       q    Type
REMARK                         _______ _______ _______ _____ _____    ______ ____
ROOT
ATOM      1  N   UNL     1       2.286   7.823  19.041  0.00  0.00    +0.000 N 
ATOM      2  C   UNL     1       2.128   7.005  20.151  0.00  0.00    +0.000 A 
ATOM      3  N   UNL     1       2.635   5.754  20.248  0.00  0.00    +0.000 N 
ATOM      4  N   UNL     1       1.370   7.585  21.056  0.00  0.00    +0.000 NA
ATOM      5  C   UNL     1       1.069   8.800  20.545  0.00  0.00    +0.000 A 
ATOM      6  C   UNL     1       1.620   8.998  19.316  0.00  0.00    +0.000 A 
ATOM      7  C   UNL     1       1.444  10.215  18.589  0.00  0.00    +0.000 A 
ATOM      8  O   UNL     1       1.943  10.414  17.490  0.00  0.00    +0.000 OA
ATOM      9  N   UNL     1       0.656  11.152  19.281  0.00  0.00    +0.000 N 
ATOM     10  C   UNL     1       0.412  12.444  18.668  0.00  0.00    +0.000 C 
ATOM     11  C   UNL     1       0.063  10.960  20.546  0.00  0.00    +0.000 A 
ATOM     12  O   UNL     1      -0.630  11.840  21.066  0.00  0.00    +0.000 OA
ATOM     13  N   UNL     1       0.291   9.741  21.172  0.00  0.00    +0.000 N 
ATOM     14  C   UNL     1      -0.286   9.449  22.471  0.00  0.00    +0.000 C 
ATOM     15  H   UNL     1       3.068   5.311  19.446  0.00  0.00    +0.000 HD
ENDROOT
BRANCH   1  16
ATOM     16  C   UNL     1       3.010   7.501  17.818  0.00  0.00    +0.000 C 
BRANCH  16  21
ATOM     17  C   UNL     1       5.667   4.812  18.382  0.00  0.00    +0.000 A 
ATOM     18  C   UNL     1       5.025   3.670  17.905  0.00  0.00    +0.000 A 
ATOM     19  C   UNL     1       3.718   3.742  17.432  0.00  0.00    +0.000 A 
ATOM     20  C   UNL     1       3.050   4.968  17.405  0.00  0.00    +0.000 A 
ATOM     21  C   UNL     1       3.684   6.142  17.840  0.00  0.00    +0.000 A 
ATOM     22  C   UNL     1       4.988   6.035  18.369  0.00  0.00    +0.000 A 
BRANCH  17  24
ATOM     23  C   UNL     1       7.744   5.760  19.052  0.00  0.00    +0.000 C 
ATOM     24  O   UNL     1       6.948   4.606  18.815  0.00  0.00    +0.000 OA
ENDBRANCH  17  24
ENDBRANCH  16  21
ENDBRANCH   1  16
BRANCH   3  25
ATOM     25  C   UNL     1       1.909   4.846  21.141  0.00  0.00    +0.000 C 
BRANCH  25  26
ATOM     26  C   UNL     1       1.900   3.389  20.659  0.00  0.00    +0.000 C 
ATOM     27  C   UNL     1       1.838   2.385  21.810  0.00  0.00    +0.000 C 
ATOM     28  C   UNL     1       0.791   3.127  19.643  0.00  0.00    +0.000 C 
ENDBRANCH  25  26
ENDBRANCH   3  25
TORSDOF 5
ENDMDL
MODEL 7
REMARK VINA RESULT:      -7.2      1.552      1.930
REMARK  Name = 
REMARK  10 active torsions:
REMARK  status: ('A' for Active; 'I' for Inactive)
REMARK    1  A    between atoms: C_1  and  O_2
REMARK    2  A    between atoms: O_2  and  C_3
REMARK    3  A    between atoms: C_7  and  C_8
REMARK    4  A    between atoms: C_8  and  N_9
REMARK    5  A    between atoms: N_11  and  C_12
REMARK    6  A    between atoms: C_12  and  C_13
REMARK    7  A    between atoms: C_13  and  C_14
REMARK    8  A    between atoms: C_13  and  C_15
REMARK    9  A    between atoms: N_21  and  C_22
REMARK   10  A    between atoms: N_25  and  C_26
REMARK                            x       y       z     vdW  Elec       q    Type
REMARK                         _______ _______ _______ _____ _____    ______ ____
ROOT
ATOM      1  N   UNL     1       2.278   7.762  19.212  0.00  0.00    +0.000 N 
ATOM      2  C   UNL     1       2.194   6.967  20.346  0.00  0.00    +0.000 A 
ATOM      3  N   UNL     1       2.829   5.779  20.485  0.00  0.00    +0.000 N 
ATOM      4  N   UNL     1       1.370   7.491  21.227  0.00  0.00    +0.000 NA
ATOM      5  C   UNL     1       0.948   8.651  20.675  0.00  0.00    +0.000 A 
ATOM      6  C   UNL     1       1.489   8.869  19.445  0.00  0.00    +0.000 A 
ATOM      7  C   UNL     1       1.193  10.038  18.679  0.00  0.00    +0.000 A 
ATOM      8  O   UNL     1       1.680  10.255  17.578  0.00  0.00    +0.000 OA
ATOM      9  N   UNL     1       0.304  10.907  19.335  0.00  0.00    +0.000 N 
ATOM     10  C   UNL     1      -0.069  12.146  18.681  0.00  0.00    +0.000 C 
ATOM     11  C   UNL     1      -0.279  10.692  20.601  0.00  0.00    +0.000 A 
ATOM     12  O   UNL     1      -1.066  11.509  21.089  0.00  0.00    +0.000 OA
ATOM     13  N   UNL     1       0.070   9.524  21.267  0.00  0.00    +0.000 N 
ATOM     14  C   UNL     1      -0.488   9.212  22.570  0.00  0.00    +0.000 C 
ATOM     15  H   UNL     1       3.315   5.360  19.701  0.00  0.00    +0.000 HD
ENDROOT
BRANCH   1  16
ATOM     16  C   UNL     1       3.045   7.482  18.005  0.00  0.00    +0.000 C 
BRANCH  16  21
ATOM     17  C   UNL     1       4.393   4.102  16.837  0.00  0.00    +0.000 A 
ATOM     18  C   UNL     1       3.250   3.306  16.884  0.00  0.00    +0.000 A 
ATOM     19  C   UNL     1       2.040   3.834  17.327  0.00  0.00    +0.000 A 
ATOM     20  C   UNL     1       1.958   5.176  17.701  0.00  0.00    +0.000 A 
ATOM     21  C   UNL     1       3.082   6.013  17.626  0.00  0.00    +0.000 A 
ATOM     22  C   UNL     1       4.310   5.443  17.229  0.00  0.00    +0.000 A 
BRANCH  17  24
ATOM     23  C   UNL     1       6.612   4.281  15.997  0.00  0.00    +0.000 C 
ATOM     24  O   UNL     1       5.514   3.464  16.381  0.00  0.00    +0.000 OA
ENDBRANCH  17  24
ENDBRANCH  16  21
ENDBRANCH   1  16
BRANCH   3  25
ATOM     25  C   UNL     1       2.193   4.828  21.401  0.00  0.00    +0.000 C 
BRANCH  25  26
ATOM     26  C   UNL     1       2.139   3.394  20.855  0.00  0.00    +0.000 C 
ATOM     27  C   UNL     1       3.524   2.827  20.543  0.00  0.00    +0.000 C 
ATOM     28  C   UNL     1       1.358   2.459  21.774  0.00  0.00    +0.000 C 
ENDBRANCH  25  26
ENDBRANCH   3  25
TORSDOF 5
ENDMDL
MODEL 8
REMARK VINA RESULT:      -7.2      0.983      1.257
REMARK  Name = 
REMARK  10 active torsions:
REMARK  status: ('A' for Active; 'I' for Inactive)
REMARK    1  A    between atoms: C_1  and  O_2
REMARK    2  A    between atoms: O_2  and  C_3
REMARK    3  A    between atoms: C_7  and  C_8
REMARK    4  A    between atoms: C_8  and  N_9
REMARK    5  A    between atoms: N_11  and  C_12
REMARK    6  A    between atoms: C_12  and  C_13
REMARK    7  A    between atoms: C_13  and  C_14
REMARK    8  A    between atoms: C_13  and  C_15
REMARK    9  A    between atoms: N_21  and  C_22
REMARK   10  A    between atoms: N_25  and  C_26
REMARK                            x       y       z     vdW  Elec       q    Type
REMARK                         _______ _______ _______ _____ _____    ______ ____
ROOT
ATOM      1  N   UNL     1       2.314   7.267  18.871  0.00  0.00    +0.000 N 
ATOM      2  C   UNL     1       2.078   6.458  19.974  0.00  0.00    +0.000 A 
ATOM      3  N   UNL     1       2.364   5.135  20.016  0.00  0.00    +0.000 N 
ATOM      4  N   UNL     1       1.483   7.133  20.933  0.00  0.00    +0.000 NA
ATOM      5  C   UNL     1       1.370   8.396  20.463  0.00  0.00    +0.000 A 
ATOM      6  C   UNL     1       1.879   8.531  19.208  0.00  0.00    +0.000 A 
ATOM      7  C   UNL     1       1.876   9.781  18.515  0.00  0.00    +0.000 A 
ATOM      8  O   UNL     1       2.341   9.923  17.392  0.00  0.00    +0.000 OA
ATOM      9  N   UNL     1       1.303  10.820  19.270  0.00  0.00    +0.000 N 
ATOM     10  C   UNL     1       1.252  12.151  18.697  0.00  0.00    +0.000 C 
ATOM     11  C   UNL     1       0.756  10.696  20.564  0.00  0.00    +0.000 A 
ATOM     12  O   UNL     1       0.257  11.667  21.141  0.00  0.00    +0.000 OA
ATOM     13  N   UNL     1       0.804   9.439  21.153  0.00  0.00    +0.000 N 
ATOM     14  C   UNL     1       0.257   9.214  22.478  0.00  0.00    +0.000 C 
ATOM     15  H   UNL     1       2.669   4.648  19.182  0.00  0.00    +0.000 HD
ENDROOT
BRANCH   1  16
ATOM     16  C   UNL     1       2.903   6.861  17.602  0.00  0.00    +0.000 C 
BRANCH  16  21
ATOM     17  C   UNL     1       6.474   5.926  16.612  0.00  0.00    +0.000 A 
ATOM     18  C   UNL     1       6.993   5.461  17.819  0.00  0.00    +0.000 A 
ATOM     19  C   UNL     1       6.216   5.477  18.974  0.00  0.00    +0.000 A 
ATOM     20  C   UNL     1       4.898   5.934  18.924  0.00  0.00    +0.000 A 
ATOM     21  C   UNL     1       4.334   6.370  17.715  0.00  0.00    +0.000 A 
ATOM     22  C   UNL     1       5.157   6.398  16.570  0.00  0.00    +0.000 A 
BRANCH  17  24
ATOM     23  C   UNL     1       7.083   4.848  14.580  0.00  0.00    +0.000 C 
ATOM     24  O   UNL     1       7.338   5.853  15.554  0.00  0.00    +0.000 OA
ENDBRANCH  17  24
ENDBRANCH  16  21
ENDBRANCH   1  16
BRANCH   3  25
ATOM     25  C   UNL     1       1.543   4.341  20.934  0.00  0.00    +0.000 C 
BRANCH  25  26
ATOM     26  C   UNL     1       1.544   2.840  20.615  0.00  0.00    +0.000 C 
ATOM     27  C   UNL     1       0.739   2.500  19.361  0.00  0.00    +0.000 C 
ATOM     28  C   UNL     1       2.960   2.273  20.529  0.00  0.00    +0.000 C 
ENDBRANCH  25  26
ENDBRANCH   3  25
TORSDOF 5
ENDMDL
MODEL 9
REMARK VINA RESULT:      -7.1      1.538      2.349
REMARK  Name = 
REMARK  10 active torsions:
REMARK  status: ('A' for Active; 'I' for Inactive)
REMARK    1  A    between atoms: C_1  and  O_2
REMARK    2  A    between atoms: O_2  and  C_3
REMARK    3  A    between atoms: C_7  and  C_8
REMARK    4  A    between atoms: C_8  and  N_9
REMARK    5  A    between atoms: N_11  and  C_12
REMARK    6  A    between atoms: C_12  and  C_13
REMARK    7  A    between atoms: C_13  and  C_14
REMARK    8  A    between atoms: C_13  and  C_15
REMARK    9  A    between atoms: N_21  and  C_22
REMARK   10  A    between atoms: N_25  and  C_26
REMARK                            x       y       z     vdW  Elec       q    Type
REMARK                         _______ _______ _______ _____ _____    ______ ____
ROOT
ATOM      1  N   UNL     1       2.237   7.877  19.040  0.00  0.00    +0.000 N 
ATOM      2  C   UNL     1       2.089   7.073  20.161  0.00  0.00    +0.000 A 
ATOM      3  N   UNL     1       2.584   5.817  20.262  0.00  0.00    +0.000 N 
ATOM      4  N   UNL     1       1.352   7.670  21.073  0.00  0.00    +0.000 NA
ATOM      5  C   UNL     1       1.055   8.882  20.554  0.00  0.00    +0.000 A 
ATOM      6  C   UNL     1       1.588   9.062  19.314  0.00  0.00    +0.000 A 
ATOM      7  C   UNL     1       1.412  10.274  18.577  0.00  0.00    +0.000 A 
ATOM      8  O   UNL     1       1.895  10.456  17.468  0.00  0.00    +0.000 OA
ATOM      9  N   UNL     1       0.646  11.226  19.273  0.00  0.00    +0.000 N 
ATOM     10  C   UNL     1       0.405  12.514  18.650  0.00  0.00    +0.000 C 
ATOM     11  C   UNL     1       0.072  11.053  20.549  0.00  0.00    +0.000 A 
ATOM     12  O   UNL     1      -0.602  11.946  21.072  0.00  0.00    +0.000 OA
ATOM     13  N   UNL     1       0.298   9.838  21.184  0.00  0.00    +0.000 N 
ATOM     14  C   UNL     1      -0.261   9.566  22.495  0.00  0.00    +0.000 C 
ATOM     15  H   UNL     1       2.998   5.361  19.458  0.00  0.00    +0.000 HD
ENDROOT
BRANCH   1  16
ATOM     16  C   UNL     1       2.937   7.535  17.809  0.00  0.00    +0.000 C 
BRANCH  16  21
ATOM     17  C   UNL     1       3.771   3.810  17.627  0.00  0.00    +0.000 A 
ATOM     18  C   UNL     1       5.107   3.796  18.024  0.00  0.00    +0.000 A 
ATOM     19  C   UNL     1       5.768   4.985  18.319  0.00  0.00    +0.000 A 
ATOM     20  C   UNL     1       5.086   6.201  18.245  0.00  0.00    +0.000 A 
ATOM     21  C   UNL     1       3.729   6.243  17.888  0.00  0.00    +0.000 A 
ATOM     22  C   UNL     1       3.096   5.033  17.539  0.00  0.00    +0.000 A 
BRANCH  17  24
ATOM     23  C   UNL     1       3.621   1.515  18.237  0.00  0.00    +0.000 C 
ATOM     24  O   UNL     1       3.240   2.576  17.370  0.00  0.00    +0.000 OA
ENDBRANCH  17  24
ENDBRANCH  16  21
ENDBRANCH   1  16
BRANCH   3  25
ATOM     25  C   UNL     1       1.863   4.926  21.177  0.00  0.00    +0.000 C 
BRANCH  25  26
ATOM     26  C   UNL     1       1.809   3.469  20.697  0.00  0.00    +0.000 C 
ATOM     27  C   UNL     1       1.763   2.468  21.851  0.00  0.00    +0.000 C 
ATOM     28  C   UNL     1       0.662   3.230  19.717  0.00  0.00    +0.000 C 
ENDBRANCH  25  26
ENDBRANCH   3  25
TORSDOF 5
ENDMDL
