MODEL 1
REMARK VINA RESULT:      -8.6      0.000      0.000
REMARK  Name = 
REMARK  6 active torsions:
REMARK  status: ('A' for Active; 'I' for Inactive)
REMARK    1  A    between atoms: C_1  and  O_2
REMARK    2  A    between atoms: O_2  and  C_3
REMARK    3  A    between atoms: C_7  and  N_8
REMARK    4  A    between atoms: C_10  and  C_11
REMARK    5  A    between atoms: C_11  and  N_12
REMARK    6  A    between atoms: N_22  and  C_23
REMARK                            x       y       z     vdW  Elec       q    Type
REMARK                         _______ _______ _______ _____ _____    ______ ____
ROOT
ATOM      1  N   UNL     1       2.798   3.550  19.754  0.00  0.00    +0.000 N 
ATOM      2  N   UNL     1       1.699   3.221  19.000  0.00  0.00    +0.000 NA
ATOM      3  C   UNL     1       1.597   4.279  18.182  0.00  0.00    +0.000 A 
ATOM      4  C   UNL     1       2.470   5.326  18.572  0.00  0.00    +0.000 A 
ATOM      5  C   UNL     1       2.770   4.944  19.865  0.00  0.00    +0.000 A 
ATOM      6  C   UNL     1       2.313   5.809  20.993  0.00  0.00    +0.000 C 
ATOM      7  C   UNL     1       1.531   7.060  20.424  0.00  0.00    +0.000 C 
ATOM      8  N   UNL     1       1.989   7.636  19.118  0.00  0.00    +0.000 N 
ATOM      9  C   UNL     1       1.778   8.911  18.616  0.00  0.00    +0.000 C 
ATOM     10  O   UNL     1       2.172   9.202  17.483  0.00  0.00    +0.000 OA
ATOM     11  N   UNL     1       1.121   9.795  19.437  0.00  0.00    +0.000 N 
ATOM     12  C   UNL     1       2.555   6.716  18.112  0.00  0.00    +0.000 C 
ATOM     13  H   UNL     1       1.050   9.549  20.410  0.00  0.00    +0.000 HD
ENDROOT
BRANCH  11  14
ATOM     14  C   UNL     1       0.778  11.135  19.114  0.00  0.00    +0.000 A 
ATOM     15  C   UNL     1      -0.462  11.528  18.606  0.00  0.00    +0.000 A 
ATOM     16  C   UNL     1      -0.716  12.861  18.267  0.00  0.00    +0.000 A 
ATOM     17  C   UNL     1       0.271  13.827  18.437  0.00  0.00    +0.000 A 
ATOM     18  C   UNL     1       1.506  13.460  18.966  0.00  0.00    +0.000 A 
ATOM     19  C   UNL     1       1.755  12.121  19.309  0.00  0.00    +0.000 A 
ENDBRANCH  11  14
BRANCH   1  20
ATOM     20  C   UNL     1       4.028   2.793  19.406  0.00  0.00    +0.000 C 
BRANCH  20  23
ATOM     21  N   UNL     1       5.740   4.141  16.492  0.00  0.00    +0.000 N 
ATOM     22  C   UNL     1       4.710   3.376  16.984  0.00  0.00    +0.000 A 
ATOM     23  C   UNL     1       4.823   3.457  18.353  0.00  0.00    +0.000 A 
ATOM     24  N   UNL     1       5.799   4.367  18.658  0.00  0.00    +0.000 NA
ATOM     25  N   UNL     1       6.338   4.792  17.521  0.00  0.00    +0.000 NA
BRANCH  21  30
ATOM     26  C   UNL     1       6.015   3.609  12.821  0.00  0.00    +0.000 A 
ATOM     27  C   UNL     1       7.079   4.461  12.518  0.00  0.00    +0.000 A 
ATOM     28  C   UNL     1       7.695   5.208  13.517  0.00  0.00    +0.000 A 
ATOM     29  C   UNL     1       7.260   5.097  14.836  0.00  0.00    +0.000 A 
ATOM     30  C   UNL     1       6.203   4.230  15.154  0.00  0.00    +0.000 A 
ATOM     31  C   UNL     1       5.573   3.483  14.140  0.00  0.00    +0.000 A 
BRANCH  26  33
ATOM     32  C   UNL     1       4.186   3.260  11.360  0.00  0.00    +0.000 C 
ATOM     33  O   UNL     1       5.512   2.917  11.752  0.00  0.00    +0.000 OA
ENDBRANCH  26  33
ENDBRANCH  21  30
ENDBRANCH  20  23
ENDBRANCH   1  20
TORSDOF 5
ENDMDL
MODEL 2
REMARK VINA RESULT:      -8.4      3.758      5.255
REMARK  Name = 
REMARK  6 active torsions:
REMARK  status: ('A' for Active; 'I' for Inactive)
REMARK    1  A    between atoms: C_1  and  O_2
REMARK    2  A    between atoms: O_2  and  C_3
REMARK    3  A    between atoms: C_7  and  N_8
REMARK    4  A    between atoms: C_10  and  C_11
REMARK    5  A    between atoms: C_11  and  N_12
REMARK    6  A    between atoms: N_22  and  C_23
REMARK                            x       y       z     vdW  Elec       q    Type
REMARK                         _______ _______ _______ _____ _____    ______ ____
ROOT
ATOM      1  N   UNL     1       5.339   4.452  18.391  0.00  0.00    +0.000 N 
ATOM      2  N   UNL     1       4.654   3.927  17.324  0.00  0.00    +0.000 NA
ATOM      3  C   UNL     1       4.129   5.027  16.763  0.00  0.00    +0.000 A 
ATOM      4  C   UNL     1       4.302   6.167  17.589  0.00  0.00    +0.000 A 
ATOM      5  C   UNL     1       4.599   5.568  18.798  0.00  0.00    +0.000 A 
ATOM      6  C   UNL     1       3.638   5.723  19.931  0.00  0.00    +0.000 C 
ATOM      7  C   UNL     1       2.405   6.599  19.469  0.00  0.00    +0.000 C 
ATOM      8  N   UNL     1       2.660   7.704  18.489  0.00  0.00    +0.000 N 
ATOM      9  C   UNL     1       1.896   8.834  18.245  0.00  0.00    +0.000 C 
ATOM     10  O   UNL     1       2.219   9.617  17.347  0.00  0.00    +0.000 OA
ATOM     11  N   UNL     1       0.791   9.014  19.042  0.00  0.00    +0.000 N 
ATOM     12  C   UNL     1       3.727   7.512  17.487  0.00  0.00    +0.000 C 
ATOM     13  H   UNL     1       0.740   8.465  19.883  0.00  0.00    +0.000 HD
ENDROOT
BRANCH  11  14
ATOM     14  C   UNL     1      -0.141  10.082  18.946  0.00  0.00    +0.000 A 
ATOM     15  C   UNL     1      -1.206  10.117  18.044  0.00  0.00    +0.000 A 
ATOM     16  C   UNL     1      -2.058  11.224  17.974  0.00  0.00    +0.000 A 
ATOM     17  C   UNL     1      -1.860  12.315  18.813  0.00  0.00    +0.000 A 
ATOM     18  C   UNL     1      -0.818  12.289  19.738  0.00  0.00    +0.000 A 
ATOM     19  C   UNL     1       0.032  11.174  19.809  0.00  0.00    +0.000 A 
ENDBRANCH  11  14
BRANCH   1  20
ATOM     20  C   UNL     1       6.814   4.484  18.216  0.00  0.00    +0.000 C 
BRANCH  20  23
ATOM     21  N   UNL     1       8.091   7.871  17.860  0.00  0.00    +0.000 N 
ATOM     22  C   UNL     1       7.860   6.798  18.685  0.00  0.00    +0.000 A 
ATOM     23  C   UNL     1       7.316   5.830  17.873  0.00  0.00    +0.000 A 
ATOM     24  N   UNL     1       7.368   6.267  16.577  0.00  0.00    +0.000 NA
ATOM     25  N   UNL     1       7.858   7.501  16.576  0.00  0.00    +0.000 NA
BRANCH  21  30
ATOM     26  C   UNL     1       8.311  11.585  17.856  0.00  0.00    +0.000 A 
ATOM     27  C   UNL     1       9.102  11.796  18.987  0.00  0.00    +0.000 A 
ATOM     28  C   UNL     1       9.552  10.720  19.746  0.00  0.00    +0.000 A 
ATOM     29  C   UNL     1       9.228   9.419  19.370  0.00  0.00    +0.000 A 
ATOM     30  C   UNL     1       8.449   9.196  18.225  0.00  0.00    +0.000 A 
ATOM     31  C   UNL     1       7.984  10.285  17.463  0.00  0.00    +0.000 A 
BRANCH  26  33
ATOM     32  C   UNL     1       8.031  13.933  17.936  0.00  0.00    +0.000 C 
ATOM     33  O   UNL     1       7.953  12.724  17.187  0.00  0.00    +0.000 OA
ENDBRANCH  26  33
ENDBRANCH  21  30
ENDBRANCH  20  23
ENDBRANCH   1  20
TORSDOF 5
ENDMDL
MODEL 3
REMARK VINA RESULT:      -8.3      4.580      6.818
REMARK  Name = 
REMARK  6 active torsions:
REMARK  status: ('A' for Active; 'I' for Inactive)
REMARK    1  A    between atoms: C_1  and  O_2
REMARK    2  A    between atoms: O_2  and  C_3
REMARK    3  A    between atoms: C_7  and  N_8
REMARK    4  A    between atoms: C_10  and  C_11
REMARK    5  A    between atoms: C_11  and  N_12
REMARK    6  A    between atoms: N_22  and  C_23
REMARK                            x       y       z     vdW  Elec       q    Type
REMARK                         _______ _______ _______ _____ _____    ______ ____
ROOT
ATOM      1  N   UNL     1      -0.067  10.181  19.551  0.00  0.00    +0.000 N 
ATOM      2  N   UNL     1      -1.297  10.010  18.965  0.00  0.00    +0.000 NA
ATOM      3  C   UNL     1      -1.801  11.253  19.012  0.00  0.00    +0.000 A 
ATOM      4  C   UNL     1      -0.998  12.112  19.803  0.00  0.00    +0.000 A 
ATOM      5  C   UNL     1      -0.245  11.190  20.504  0.00  0.00    +0.000 A 
ATOM      6  C   UNL     1      -0.422  11.095  21.983  0.00  0.00    +0.000 C 
ATOM      7  C   UNL     1      -1.508  12.141  22.460  0.00  0.00    +0.000 C 
ATOM      8  N   UNL     1      -1.582  13.451  21.736  0.00  0.00    +0.000 N 
ATOM      9  C   UNL     1      -2.114  14.652  22.177  0.00  0.00    +0.000 C 
ATOM     10  O   UNL     1      -2.153  15.627  21.420  0.00  0.00    +0.000 OA
ATOM     11  N   UNL     1      -2.580  14.681  23.469  0.00  0.00    +0.000 N 
ATOM     12  C   UNL     1      -1.256  13.469  20.296  0.00  0.00    +0.000 C 
ATOM     13  H   UNL     1      -2.298  13.929  24.075  0.00  0.00    +0.000 HD
ENDROOT
BRANCH  11  14
ATOM     14  C   UNL     1      -3.188  15.793  24.112  0.00  0.00    +0.000 A 
ATOM     15  C   UNL     1      -2.482  16.797  24.779  0.00  0.00    +0.000 A 
ATOM     16  C   UNL     1      -3.149  17.840  25.429  0.00  0.00    +0.000 A 
ATOM     17  C   UNL     1      -4.539  17.897  25.418  0.00  0.00    +0.000 A 
ATOM     18  C   UNL     1      -5.261  16.918  24.738  0.00  0.00    +0.000 A 
ATOM     19  C   UNL     1      -4.587  15.876  24.082  0.00  0.00    +0.000 A 
ENDBRANCH  11  14
BRANCH   1  20
ATOM     20  C   UNL     1       1.072  10.163  18.598  0.00  0.00    +0.000 C 
BRANCH  20  23
ATOM     21  N   UNL     1       3.037   7.126  18.207  0.00  0.00    +0.000 N 
ATOM     22  C   UNL     1       2.689   8.357  17.707  0.00  0.00    +0.000 A 
ATOM     23  C   UNL     1       1.817   8.888  18.628  0.00  0.00    +0.000 A 
ATOM     24  N   UNL     1       1.771   8.056  19.715  0.00  0.00    +0.000 NA
ATOM     25  N   UNL     1       2.530   6.998  19.459  0.00  0.00    +0.000 NA
BRANCH  21  30
ATOM     26  C   UNL     1       5.537   5.354  16.098  0.00  0.00    +0.000 A 
ATOM     27  C   UNL     1       5.171   4.026  16.328  0.00  0.00    +0.000 A 
ATOM     28  C   UNL     1       4.111   3.721  17.176  0.00  0.00    +0.000 A 
ATOM     29  C   UNL     1       3.396   4.745  17.792  0.00  0.00    +0.000 A 
ATOM     30  C   UNL     1       3.745   6.083  17.554  0.00  0.00    +0.000 A 
ATOM     31  C   UNL     1       4.824   6.392  16.704  0.00  0.00    +0.000 A 
BRANCH  26  33
ATOM     32  C   UNL     1       6.664   4.564  14.173  0.00  0.00    +0.000 C 
ATOM     33  O   UNL     1       6.580   5.518  15.228  0.00  0.00    +0.000 OA
ENDBRANCH  26  33
ENDBRANCH  21  30
ENDBRANCH  20  23
ENDBRANCH   1  20
TORSDOF 5
ENDMDL
MODEL 4
REMARK VINA RESULT:      -8.3      4.049      5.583
REMARK  Name = 
REMARK  6 active torsions:
REMARK  status: ('A' for Active; 'I' for Inactive)
REMARK    1  A    between atoms: C_1  and  O_2
REMARK    2  A    between atoms: O_2  and  C_3
REMARK    3  A    between atoms: C_7  and  N_8
REMARK    4  A    between atoms: C_10  and  C_11
REMARK    5  A    between atoms: C_11  and  N_12
REMARK    6  A    between atoms: N_22  and  C_23
REMARK                            x       y       z     vdW  Elec       q    Type
REMARK                         _______ _______ _______ _____ _____    ______ ____
ROOT
ATOM      1  N   UNL     1       5.394   4.508  18.421  0.00  0.00    +0.000 N 
ATOM      2  N   UNL     1       4.729   3.978  17.344  0.00  0.00    +0.000 NA
ATOM      3  C   UNL     1       4.195   5.072  16.780  0.00  0.00    +0.000 A 
ATOM      4  C   UNL     1       4.341   6.211  17.612  0.00  0.00    +0.000 A 
ATOM      5  C   UNL     1       4.632   5.612  18.823  0.00  0.00    +0.000 A 
ATOM      6  C   UNL     1       3.656   5.749  19.944  0.00  0.00    +0.000 C 
ATOM      7  C   UNL     1       2.416   6.609  19.471  0.00  0.00    +0.000 C 
ATOM      8  N   UNL     1       2.667   7.721  18.498  0.00  0.00    +0.000 N 
ATOM      9  C   UNL     1       1.890   8.841  18.249  0.00  0.00    +0.000 C 
ATOM     10  O   UNL     1       2.212   9.632  17.357  0.00  0.00    +0.000 OA
ATOM     11  N   UNL     1       0.773   9.002  19.033  0.00  0.00    +0.000 N 
ATOM     12  C   UNL     1       3.748   7.548  17.508  0.00  0.00    +0.000 C 
ATOM     13  H   UNL     1       0.719   8.448  19.871  0.00  0.00    +0.000 HD
ENDROOT
BRANCH  11  14
ATOM     14  C   UNL     1      -0.174  10.056  18.929  0.00  0.00    +0.000 A 
ATOM     15  C   UNL     1      -1.089  10.191  17.884  0.00  0.00    +0.000 A 
ATOM     16  C   UNL     1      -1.963  11.282  17.823  0.00  0.00    +0.000 A 
ATOM     17  C   UNL     1      -1.936  12.257  18.815  0.00  0.00    +0.000 A 
ATOM     18  C   UNL     1      -1.047  12.128  19.880  0.00  0.00    +0.000 A 
ATOM     19  C   UNL     1      -0.175  11.029  19.940  0.00  0.00    +0.000 A 
ENDBRANCH  11  14
BRANCH   1  20
ATOM     20  C   UNL     1       6.870   4.562  18.264  0.00  0.00    +0.000 C 
BRANCH  20  23
ATOM     21  N   UNL     1       8.099   7.966  17.899  0.00  0.00    +0.000 N 
ATOM     22  C   UNL     1       7.875   6.895  18.729  0.00  0.00    +0.000 A 
ATOM     23  C   UNL     1       7.355   5.913  17.918  0.00  0.00    +0.000 A 
ATOM     24  N   UNL     1       7.416   6.342  16.619  0.00  0.00    +0.000 NA
ATOM     25  N   UNL     1       7.886   7.583  16.615  0.00  0.00    +0.000 NA
BRANCH  21  30
ATOM     26  C   UNL     1       9.495  10.862  19.771  0.00  0.00    +0.000 A 
ATOM     27  C   UNL     1       9.136  11.912  18.922  0.00  0.00    +0.000 A 
ATOM     28  C   UNL     1       8.444  11.663  17.742  0.00  0.00    +0.000 A 
ATOM     29  C   UNL     1       8.090  10.359  17.404  0.00  0.00    +0.000 A 
ATOM     30  C   UNL     1       8.431   9.299  18.258  0.00  0.00    +0.000 A 
ATOM     31  C   UNL     1       9.141   9.549  19.448  0.00  0.00    +0.000 A 
BRANCH  26  33
ATOM     32  C   UNL     1      10.020  12.615  21.270  0.00  0.00    +0.000 C 
ATOM     33  O   UNL     1      10.153  11.244  20.908  0.00  0.00    +0.000 OA
ENDBRANCH  26  33
ENDBRANCH  21  30
ENDBRANCH  20  23
ENDBRANCH   1  20
TORSDOF 5
ENDMDL
MODEL 5
REMARK VINA RESULT:      -8.2      4.074     10.047
REMARK  Name = 
REMARK  6 active torsions:
REMARK  status: ('A' for Active; 'I' for Inactive)
REMARK    1  A    between atoms: C_1  and  O_2
REMARK    2  A    between atoms: O_2  and  C_3
REMARK    3  A    between atoms: C_7  and  N_8
REMARK    4  A    between atoms: C_10  and  C_11
REMARK    5  A    between atoms: C_11  and  N_12
REMARK    6  A    between atoms: N_22  and  C_23
REMARK                            x       y       z     vdW  Elec       q    Type
REMARK                         _______ _______ _______ _____ _____    ______ ____
ROOT
ATOM      1  N   UNL     1       0.551  12.346  19.160  0.00  0.00    +0.000 N 
ATOM      2  N   UNL     1      -0.743  11.924  18.984  0.00  0.00    +0.000 NA
ATOM      3  C   UNL     1      -0.717  10.706  19.545  0.00  0.00    +0.000 A 
ATOM      4  C   UNL     1       0.606  10.304  19.856  0.00  0.00    +0.000 A 
ATOM      5  C   UNL     1       1.334  11.189  19.085  0.00  0.00    +0.000 A 
ATOM      6  C   UNL     1       2.151  10.654  17.955  0.00  0.00    +0.000 C 
ATOM      7  C   UNL     1       1.996   9.082  17.882  0.00  0.00    +0.000 C 
ATOM      8  N   UNL     1       1.839   8.334  19.171  0.00  0.00    +0.000 N 
ATOM      9  C   UNL     1       2.093   6.996  19.429  0.00  0.00    +0.000 C 
ATOM     10  O   UNL     1       1.844   6.522  20.541  0.00  0.00    +0.000 OA
ATOM     11  N   UNL     1       2.619   6.259  18.395  0.00  0.00    +0.000 N 
ATOM     12  C   UNL     1       1.130   9.002  20.281  0.00  0.00    +0.000 C 
ATOM     13  H   UNL     1       3.002   6.770  17.618  0.00  0.00    +0.000 HD
ENDROOT
BRANCH  11  14
ATOM     14  C   UNL     1       2.927   4.873  18.432  0.00  0.00    +0.000 A 
ATOM     15  C   UNL     1       4.039   4.331  19.080  0.00  0.00    +0.000 A 
ATOM     16  C   UNL     1       4.305   2.959  19.036  0.00  0.00    +0.000 A 
ATOM     17  C   UNL     1       3.455   2.103  18.344  0.00  0.00    +0.000 A 
ATOM     18  C   UNL     1       2.327   2.620  17.712  0.00  0.00    +0.000 A 
ATOM     19  C   UNL     1       2.060   3.997  17.762  0.00  0.00    +0.000 A 
ENDBRANCH  11  14
BRANCH   1  20
ATOM     20  C   UNL     1       0.722  13.368  20.225  0.00  0.00    +0.000 C 
BRANCH  20  23
ATOM     21  N   UNL     1       4.060  14.783  19.935  0.00  0.00    +0.000 N 
ATOM     22  C   UNL     1       2.806  14.644  19.393  0.00  0.00    +0.000 A 
ATOM     23  C   UNL     1       2.103  13.885  20.299  0.00  0.00    +0.000 A 
ATOM     24  N   UNL     1       2.875  13.712  21.416  0.00  0.00    +0.000 NA
ATOM     25  N   UNL     1       4.056  14.276  21.194  0.00  0.00    +0.000 NA
BRANCH  21  30
ATOM     26  C   UNL     1       6.940  17.003  19.150  0.00  0.00    +0.000 A 
ATOM     27  C   UNL     1       7.565  16.264  18.143  0.00  0.00    +0.000 A 
ATOM     28  C   UNL     1       7.042  15.042  17.733  0.00  0.00    +0.000 A 
ATOM     29  C   UNL     1       5.876  14.553  18.317  0.00  0.00    +0.000 A 
ATOM     30  C   UNL     1       5.231  15.296  19.318  0.00  0.00    +0.000 A 
ATOM     31  C   UNL     1       5.766  16.528  19.740  0.00  0.00    +0.000 A 
BRANCH  26  33
ATOM     32  C   UNL     1       8.896  18.328  19.017  0.00  0.00    +0.000 C 
ATOM     33  O   UNL     1       7.543  18.196  19.444  0.00  0.00    +0.000 OA
ENDBRANCH  26  33
ENDBRANCH  21  30
ENDBRANCH  20  23
ENDBRANCH   1  20
TORSDOF 5
ENDMDL
MODEL 6
REMARK VINA RESULT:      -8.2      4.756      7.102
REMARK  Name = 
REMARK  6 active torsions:
REMARK  status: ('A' for Active; 'I' for Inactive)
REMARK    1  A    between atoms: C_1  and  O_2
REMARK    2  A    between atoms: O_2  and  C_3
REMARK    3  A    between atoms: C_7  and  N_8
REMARK    4  A    between atoms: C_10  and  C_11
REMARK    5  A    between atoms: C_11  and  N_12
REMARK    6  A    between atoms: N_22  and  C_23
REMARK                            x       y       z     vdW  Elec       q    Type
REMARK                         _______ _______ _______ _____ _____    ______ ____
ROOT
ATOM      1  N   UNL     1      -0.259  10.384  19.579  0.00  0.00    +0.000 N 
ATOM      2  N   UNL     1      -1.444  10.334  18.889  0.00  0.00    +0.000 NA
ATOM      3  C   UNL     1      -1.866  11.605  18.970  0.00  0.00    +0.000 A 
ATOM      4  C   UNL     1      -1.076  12.360  19.872  0.00  0.00    +0.000 A 
ATOM      5  C   UNL     1      -0.447  11.350  20.574  0.00  0.00    +0.000 A 
ATOM      6  C   UNL     1      -0.753  11.187  22.026  0.00  0.00    +0.000 C 
ATOM      7  C   UNL     1      -1.802  12.281  22.477  0.00  0.00    +0.000 C 
ATOM      8  N   UNL     1      -1.728  13.630  21.829  0.00  0.00    +0.000 N 
ATOM      9  C   UNL     1      -2.213  14.840  22.299  0.00  0.00    +0.000 C 
ATOM     10  O   UNL     1      -2.125  15.855  21.601  0.00  0.00    +0.000 OA
ATOM     11  N   UNL     1      -2.783  14.832  23.549  0.00  0.00    +0.000 N 
ATOM     12  C   UNL     1      -1.283  13.703  20.424  0.00  0.00    +0.000 C 
ATOM     13  H   UNL     1      -2.603  14.029  24.129  0.00  0.00    +0.000 HD
ENDROOT
BRANCH  11  14
ATOM     14  C   UNL     1      -3.366  15.948  24.208  0.00  0.00    +0.000 A 
ATOM     15  C   UNL     1      -4.741  16.179  24.295  0.00  0.00    +0.000 A 
ATOM     16  C   UNL     1      -5.243  17.324  24.920  0.00  0.00    +0.000 A 
ATOM     17  C   UNL     1      -4.374  18.258  25.474  0.00  0.00    +0.000 A 
ATOM     18  C   UNL     1      -3.000  18.034  25.419  0.00  0.00    +0.000 A 
ATOM     19  C   UNL     1      -2.500  16.881  24.795  0.00  0.00    +0.000 A 
ENDBRANCH  11  14
BRANCH   1  20
ATOM     20  C   UNL     1       0.953  10.337  18.720  0.00  0.00    +0.000 C 
BRANCH  20  23
ATOM     21  N   UNL     1       2.792   7.211  18.434  0.00  0.00    +0.000 N 
ATOM     22  C   UNL     1       2.470   8.424  17.877  0.00  0.00    +0.000 A 
ATOM     23  C   UNL     1       1.652   9.038  18.797  0.00  0.00    +0.000 A 
ATOM     24  N   UNL     1       1.618   8.272  19.931  0.00  0.00    +0.000 NA
ATOM     25  N   UNL     1       2.328   7.172  19.709  0.00  0.00    +0.000 NA
BRANCH  21  30
ATOM     26  C   UNL     1       3.557   3.733  17.358  0.00  0.00    +0.000 A 
ATOM     27  C   UNL     1       4.673   3.955  16.549  0.00  0.00    +0.000 A 
ATOM     28  C   UNL     1       5.164   5.243  16.358  0.00  0.00    +0.000 A 
ATOM     29  C   UNL     1       4.549   6.322  16.988  0.00  0.00    +0.000 A 
ATOM     30  C   UNL     1       3.437   6.107  17.817  0.00  0.00    +0.000 A 
ATOM     31  C   UNL     1       2.934   4.805  18.002  0.00  0.00    +0.000 A 
BRANCH  26  33
ATOM     32  C   UNL     1       2.679   2.036  18.754  0.00  0.00    +0.000 C 
ATOM     33  O   UNL     1       3.189   2.420  17.481  0.00  0.00    +0.000 OA
ENDBRANCH  26  33
ENDBRANCH  21  30
ENDBRANCH  20  23
ENDBRANCH   1  20
TORSDOF 5
ENDMDL
MODEL 7
REMARK VINA RESULT:      -8.1      0.941      1.746
REMARK  Name = 
REMARK  6 active torsions:
REMARK  status: ('A' for Active; 'I' for Inactive)
REMARK    1  A    between atoms: C_1  and  O_2
REMARK    2  A    between atoms: O_2  and  C_3
REMARK    3  A    between atoms: C_7  and  N_8
REMARK    4  A    between atoms: C_10  and  C_11
REMARK    5  A    between atoms: C_11  and  N_12
REMARK    6  A    between atoms: N_22  and  C_23
REMARK                            x       y       z     vdW  Elec       q    Type
REMARK                         _______ _______ _______ _____ _____    ______ ____
ROOT
ATOM      1  N   UNL     1       2.628   3.474  19.902  0.00  0.00    +0.000 N 
ATOM      2  N   UNL     1       1.506   3.159  19.177  0.00  0.00    +0.000 NA
ATOM      3  C   UNL     1       1.425   4.196  18.328  0.00  0.00    +0.000 A 
ATOM      4  C   UNL     1       2.338   5.224  18.672  0.00  0.00    +0.000 A 
ATOM      5  C   UNL     1       2.648   4.871  19.972  0.00  0.00    +0.000 A 
ATOM      6  C   UNL     1       2.238   5.784  21.080  0.00  0.00    +0.000 C 
ATOM      7  C   UNL     1       1.487   7.043  20.486  0.00  0.00    +0.000 C 
ATOM      8  N   UNL     1       1.942   7.564  19.156  0.00  0.00    +0.000 N 
ATOM      9  C   UNL     1       1.765   8.829  18.619  0.00  0.00    +0.000 C 
ATOM     10  O   UNL     1       2.148   9.074  17.471  0.00  0.00    +0.000 OA
ATOM     11  N   UNL     1       1.151   9.759  19.424  0.00  0.00    +0.000 N 
ATOM     12  C   UNL     1       2.460   6.596  18.170  0.00  0.00    +0.000 C 
ATOM     13  H   UNL     1       1.088   9.545  20.405  0.00  0.00    +0.000 HD
ENDROOT
BRANCH  11  14
ATOM     14  C   UNL     1       0.845  11.100  19.066  0.00  0.00    +0.000 A 
ATOM     15  C   UNL     1       1.766  12.149  19.091  0.00  0.00    +0.000 A 
ATOM     16  C   UNL     1       1.384  13.455  18.769  0.00  0.00    +0.000 A 
ATOM     17  C   UNL     1       0.069  13.731  18.410  0.00  0.00    +0.000 A 
ATOM     18  C   UNL     1      -0.860  12.694  18.355  0.00  0.00    +0.000 A 
ATOM     19  C   UNL     1      -0.471  11.384  18.674  0.00  0.00    +0.000 A 
ENDBRANCH  11  14
BRANCH   1  20
ATOM     20  C   UNL     1       3.826   2.666  19.557  0.00  0.00    +0.000 C 
BRANCH  20  23
ATOM     21  N   UNL     1       5.615   4.035  16.700  0.00  0.00    +0.000 N 
ATOM     22  C   UNL     1       4.510   3.366  17.167  0.00  0.00    +0.000 A 
ATOM     23  C   UNL     1       4.670   3.314  18.533  0.00  0.00    +0.000 A 
ATOM     24  N   UNL     1       5.762   4.067  18.873  0.00  0.00    +0.000 NA
ATOM     25  N   UNL     1       6.319   4.517  17.756  0.00  0.00    +0.000 NA
BRANCH  21  30
ATOM     26  C   UNL     1       7.563   5.145  13.732  0.00  0.00    +0.000 A 
ATOM     27  C   UNL     1       6.936   4.408  12.725  0.00  0.00    +0.000 A 
ATOM     28  C   UNL     1       5.884   3.549  13.026  0.00  0.00    +0.000 A 
ATOM     29  C   UNL     1       5.437   3.431  14.340  0.00  0.00    +0.000 A 
ATOM     30  C   UNL     1       6.049   4.180  15.357  0.00  0.00    +0.000 A 
ATOM     31  C   UNL     1       7.121   5.041  15.053  0.00  0.00    +0.000 A 
BRANCH  26  33
ATOM     32  C   UNL     1       8.567   6.268  11.907  0.00  0.00    +0.000 C 
ATOM     33  O   UNL     1       8.569   5.966  13.299  0.00  0.00    +0.000 OA
ENDBRANCH  26  33
ENDBRANCH  21  30
ENDBRANCH  20  23
ENDBRANCH   1  20
TORSDOF 5
ENDMDL
MODEL 8
REMARK VINA RESULT:      -8.1      4.664      6.467
REMARK  Name = 
REMARK  6 active torsions:
REMARK  status: ('A' for Active; 'I' for Inactive)
REMARK    1  A    between atoms: C_1  and  O_2
REMARK    2  A    between atoms: O_2  and  C_3
REMARK    3  A    between atoms: C_7  and  N_8
REMARK    4  A    between atoms: C_10  and  C_11
REMARK    5  A    between atoms: C_11  and  N_12
REMARK    6  A    between atoms: N_22  and  C_23
REMARK                            x       y       z     vdW  Elec       q    Type
REMARK                         _______ _______ _______ _____ _____    ______ ____
ROOT
ATOM      1  N   UNL     1       1.181   9.377  21.450  0.00  0.00    +0.000 N 
ATOM      2  N   UNL     1       1.649   9.293  22.738  0.00  0.00    +0.000 NA
ATOM      3  C   UNL     1       0.576   9.672  23.449  0.00  0.00    +0.000 A 
ATOM      4  C   UNL     1      -0.447  10.186  22.613  0.00  0.00    +0.000 A 
ATOM      5  C   UNL     1       0.264  10.433  21.455  0.00  0.00    +0.000 A 
ATOM      6  C   UNL     1       0.423  11.846  20.998  0.00  0.00    +0.000 C 
ATOM      7  C   UNL     1      -0.307  12.819  22.007  0.00  0.00    +0.000 C 
ATOM      8  N   UNL     1      -1.566  12.334  22.660  0.00  0.00    +0.000 N 
ATOM      9  C   UNL     1      -2.587  13.080  23.227  0.00  0.00    +0.000 C 
ATOM     10  O   UNL     1      -3.530  12.514  23.787  0.00  0.00    +0.000 OA
ATOM     11  N   UNL     1      -2.478  14.447  23.130  0.00  0.00    +0.000 N 
ATOM     12  C   UNL     1      -1.687  10.892  22.952  0.00  0.00    +0.000 C 
ATOM     13  H   UNL     1      -1.813  14.807  22.466  0.00  0.00    +0.000 HD
ENDROOT
BRANCH  11  14
ATOM     14  C   UNL     1      -3.390  15.396  23.664  0.00  0.00    +0.000 A 
ATOM     15  C   UNL     1      -3.162  16.141  24.823  0.00  0.00    +0.000 A 
ATOM     16  C   UNL     1      -4.126  17.026  25.316  0.00  0.00    +0.000 A 
ATOM     17  C   UNL     1      -5.337  17.183  24.651  0.00  0.00    +0.000 A 
ATOM     18  C   UNL     1      -5.575  16.468  23.479  0.00  0.00    +0.000 A 
ATOM     19  C   UNL     1      -4.602  15.585  22.984  0.00  0.00    +0.000 A 
ENDBRANCH  11  14
BRANCH   1  20
ATOM     20  C   UNL     1       0.896   8.064  20.816  0.00  0.00    +0.000 C 
BRANCH  20  23
ATOM     21  N   UNL     1       3.354   6.884  18.408  0.00  0.00    +0.000 N 
ATOM     22  C   UNL     1       2.628   6.630  19.545  0.00  0.00    +0.000 A 
ATOM     23  C   UNL     1       1.840   7.743  19.727  0.00  0.00    +0.000 A 
ATOM     24  N   UNL     1       1.988   8.564  18.641  0.00  0.00    +0.000 NA
ATOM     25  N   UNL     1       2.895   8.026  17.835  0.00  0.00    +0.000 NA
BRANCH  21  30
ATOM     26  C   UNL     1       5.932   5.596  16.054  0.00  0.00    +0.000 A 
ATOM     27  C   UNL     1       6.672   4.778  16.909  0.00  0.00    +0.000 A 
ATOM     28  C   UNL     1       6.325   4.658  18.251  0.00  0.00    +0.000 A 
ATOM     29  C   UNL     1       5.221   5.346  18.748  0.00  0.00    +0.000 A 
ATOM     30  C   UNL     1       4.460   6.158  17.894  0.00  0.00    +0.000 A 
ATOM     31  C   UNL     1       4.818   6.288  16.538  0.00  0.00    +0.000 A 
BRANCH  26  33
ATOM     32  C   UNL     1       6.528   4.334  14.144  0.00  0.00    +0.000 C 
ATOM     33  O   UNL     1       6.365   5.610  14.756  0.00  0.00    +0.000 OA
ENDBRANCH  26  33
ENDBRANCH  21  30
ENDBRANCH  20  23
ENDBRANCH   1  20
TORSDOF 5
ENDMDL
MODEL 9
REMARK VINA RESULT:      -8.0      3.927      9.941
REMARK  Name = 
REMARK  6 active torsions:
REMARK  status: ('A' for Active; 'I' for Inactive)
REMARK    1  A    between atoms: C_1  and  O_2
REMARK    2  A    between atoms: O_2  and  C_3
REMARK    3  A    between atoms: C_7  and  N_8
REMARK    4  A    between atoms: C_10  and  C_11
REMARK    5  A    between atoms: C_11  and  N_12
REMARK    6  A    between atoms: N_22  and  C_23
REMARK                            x       y       z     vdW  Elec       q    Type
REMARK                         _______ _______ _______ _____ _____    ______ ____
ROOT
ATOM      1  N   UNL     1       0.431  12.439  18.958  0.00  0.00    +0.000 N 
ATOM      2  N   UNL     1      -0.841  11.981  18.717  0.00  0.00    +0.000 NA
ATOM      3  C   UNL     1      -0.821  10.779  19.314  0.00  0.00    +0.000 A 
ATOM      4  C   UNL     1       0.490  10.418  19.715  0.00  0.00    +0.000 A 
ATOM      5  C   UNL     1       1.243  11.299  18.963  0.00  0.00    +0.000 A 
ATOM      6  C   UNL     1       2.138  10.753  17.901  0.00  0.00    +0.000 C 
ATOM      7  C   UNL     1       2.023   9.176  17.864  0.00  0.00    +0.000 C 
ATOM      8  N   UNL     1       1.805   8.460  19.162  0.00  0.00    +0.000 N 
ATOM      9  C   UNL     1       2.073   7.137  19.473  0.00  0.00    +0.000 C 
ATOM     10  O   UNL     1       1.768   6.688  20.582  0.00  0.00    +0.000 OA
ATOM     11  N   UNL     1       2.678   6.385  18.495  0.00  0.00    +0.000 N 
ATOM     12  C   UNL     1       1.016   9.141  20.207  0.00  0.00    +0.000 C 
ATOM     13  H   UNL     1       3.095   6.883  17.727  0.00  0.00    +0.000 HD
ENDROOT
BRANCH  11  14
ATOM     14  C   UNL     1       3.014   5.007  18.590  0.00  0.00    +0.000 A 
ATOM     15  C   UNL     1       4.112   4.513  19.296  0.00  0.00    +0.000 A 
ATOM     16  C   UNL     1       4.409   3.147  19.309  0.00  0.00    +0.000 A 
ATOM     17  C   UNL     1       3.604   2.249  18.616  0.00  0.00    +0.000 A 
ATOM     18  C   UNL     1       2.489   2.719  17.926  0.00  0.00    +0.000 A 
ATOM     19  C   UNL     1       2.192   4.090  17.919  0.00  0.00    +0.000 A 
ENDBRANCH  11  14
BRANCH   1  20
ATOM     20  C   UNL     1       0.514  13.493  20.002  0.00  0.00    +0.000 C 
BRANCH  20  23
ATOM     21  N   UNL     1       3.980  14.537  20.362  0.00  0.00    +0.000 N 
ATOM     22  C   UNL     1       2.833  14.559  19.607  0.00  0.00    +0.000 A 
ATOM     23  C   UNL     1       1.907  13.850  20.337  0.00  0.00    +0.000 A 
ATOM     24  N   UNL     1       2.450  13.551  21.558  0.00  0.00    +0.000 NA
ATOM     25  N   UNL     1       3.703  13.988  21.572  0.00  0.00    +0.000 NA
BRANCH  21  30
ATOM     26  C   UNL     1       7.620  15.286  20.530  0.00  0.00    +0.000 A 
ATOM     27  C   UNL     1       7.864  15.667  19.209  0.00  0.00    +0.000 A 
ATOM     28  C   UNL     1       6.835  15.671  18.272  0.00  0.00    +0.000 A 
ATOM     29  C   UNL     1       5.546  15.307  18.653  0.00  0.00    +0.000 A 
ATOM     30  C   UNL     1       5.287  14.939  19.982  0.00  0.00    +0.000 A 
ATOM     31  C   UNL     1       6.330  14.924  20.928  0.00  0.00    +0.000 A 
BRANCH  26  33
ATOM     32  C   UNL     1       8.432  15.337  22.751  0.00  0.00    +0.000 C 
ATOM     33  O   UNL     1       8.711  15.346  21.354  0.00  0.00    +0.000 OA
ENDBRANCH  26  33
ENDBRANCH  21  30
ENDBRANCH  20  23
ENDBRANCH   1  20
TORSDOF 5
ENDMDL
