MODEL 1
REMARK VINA RESULT:      -9.3      0.000      0.000
REMARK  Name = 
REMARK  5 active torsions:
REMARK  status: ('A' for Active; 'I' for Inactive)
REMARK    1  A    between atoms: N_1  and  C_2
REMARK    2  A    between atoms: C_7  and  N_8
REMARK    3  A    between atoms: C_9  and  C_11
REMARK    4  A    between atoms: C_12  and  O_13
REMARK    5  A    between atoms: N_20  and  C_21
REMARK                            x       y       z     vdW  Elec       q    Type
REMARK                         _______ _______ _______ _____ _____    ______ ____
ROOT
ATOM      1  C   UNL     1       4.545   4.609  17.660  0.00  0.00    +0.000 A 
ATOM      2  C   UNL     1       4.216   3.563  18.449  0.00  0.00    +0.000 A 
ATOM      3  C   UNL     1       3.154   3.671  19.458  0.00  0.00    +0.000 A 
ATOM      4  C   UNL     1       2.755   2.536  20.190  0.00  0.00    +0.000 A 
ATOM      5  C   UNL     1       1.649   2.577  21.033  0.00  0.00    +0.000 A 
ATOM      6  C   UNL     1       0.932   3.758  21.156  0.00  0.00    +0.000 A 
ATOM      7  C   UNL     1       1.341   4.901  20.462  0.00  0.00    +0.000 A 
ATOM      8  C   UNL     1       2.471   4.883  19.621  0.00  0.00    +0.000 A 
ATOM      9  N   UNL     1       2.903   6.018  18.862  0.00  0.00    +0.000 N 
ATOM     10  C   UNL     1       3.902   5.934  17.884  0.00  0.00    +0.000 A 
ATOM     11  O   UNL     1       4.291   6.895  17.211  0.00  0.00    +0.000 OA
ENDROOT
BRANCH   9  12
ATOM     12  C   UNL     1       2.265   7.275  19.083  0.00  0.00    +0.000 A 
ATOM     13  C   UNL     1       1.883   7.639  20.379  0.00  0.00    +0.000 A 
ATOM     14  C   UNL     1       1.242   8.855  20.611  0.00  0.00    +0.000 A 
ATOM     15  C   UNL     1       0.953   9.704  19.544  0.00  0.00    +0.000 A 
ATOM     16  C   UNL     1       1.304   9.339  18.245  0.00  0.00    +0.000 A 
ATOM     17  C   UNL     1       1.957   8.128  18.009  0.00  0.00    +0.000 A 
ENDBRANCH   9  12
BRANCH   1  19
ATOM     18  N   UNL     1       5.122   4.507  15.268  0.00  0.00    +0.000 N 
ATOM     19  C   UNL     1       5.550   4.366  16.569  0.00  0.00    +0.000 C 
ATOM     20  O   UNL     1       6.686   4.009  16.896  0.00  0.00    +0.000 OA
ATOM     21  H   UNL     1       4.129   4.680  15.124  0.00  0.00    +0.000 HD
BRANCH  18  27
ATOM     22  C   UNL     1       7.170   4.955  13.996  0.00  0.00    +0.000 A 
ATOM     23  C   UNL     1       7.878   4.851  12.785  0.00  0.00    +0.000 A 
ATOM     24  C   UNL     1       7.415   4.056  11.736  0.00  0.00    +0.000 A 
ATOM     25  C   UNL     1       6.217   3.373  11.874  0.00  0.00    +0.000 A 
ATOM     26  C   UNL     1       5.476   3.505  13.046  0.00  0.00    +0.000 A 
ATOM     27  C   UNL     1       5.912   4.321  14.103  0.00  0.00    +0.000 A 
BRANCH  22  28
ATOM     28  N   UNL     1       7.631   5.890  14.945  0.00  0.00    +0.000 N 
ATOM     29  H   UNL     1       7.047   6.719  15.003  0.00  0.00    +0.000 HD
ATOM     30  H   UNL     1       8.612   6.139  14.862  0.00  0.00    +0.000 HD
ENDBRANCH  22  28
ENDBRANCH  18  27
ENDBRANCH   1  19
BRANCH   2  31
ATOM     31  O   UNL     1       4.763   2.293  18.345  0.00  0.00    +0.000 OA
ATOM     32  H   UNL     1       5.549   2.240  18.936  0.00  0.00    +0.000 HD
ENDBRANCH   2  31
TORSDOF 5
ENDMDL
MODEL 2
REMARK VINA RESULT:      -9.2      2.563      7.226
REMARK  Name = 
REMARK  5 active torsions:
REMARK  status: ('A' for Active; 'I' for Inactive)
REMARK    1  A    between atoms: N_1  and  C_2
REMARK    2  A    between atoms: C_7  and  N_8
REMARK    3  A    between atoms: C_9  and  C_11
REMARK    4  A    between atoms: C_12  and  O_13
REMARK    5  A    between atoms: N_20  and  C_21
REMARK                            x       y       z     vdW  Elec       q    Type
REMARK                         _______ _______ _______ _____ _____    ______ ____
ROOT
ATOM      1  C   UNL     1       2.225   7.293  19.465  0.00  0.00    +0.000 A 
ATOM      2  C   UNL     1       1.801   6.291  20.265  0.00  0.00    +0.000 A 
ATOM      3  C   UNL     1       2.423   4.961  20.220  0.00  0.00    +0.000 A 
ATOM      4  C   UNL     1       2.038   3.966  21.140  0.00  0.00    +0.000 A 
ATOM      5  C   UNL     1       2.722   2.758  21.221  0.00  0.00    +0.000 A 
ATOM      6  C   UNL     1       3.798   2.529  20.376  0.00  0.00    +0.000 A 
ATOM      7  C   UNL     1       4.167   3.495  19.433  0.00  0.00    +0.000 A 
ATOM      8  C   UNL     1       3.472   4.715  19.324  0.00  0.00    +0.000 A 
ATOM      9  N   UNL     1       3.837   5.747  18.401  0.00  0.00    +0.000 N 
ATOM     10  C   UNL     1       3.269   7.026  18.436  0.00  0.00    +0.000 A 
ATOM     11  O   UNL     1       3.568   7.936  17.656  0.00  0.00    +0.000 OA
ENDROOT
BRANCH   9  12
ATOM     12  C   UNL     1       4.849   5.474  17.431  0.00  0.00    +0.000 A 
ATOM     13  C   UNL     1       6.147   5.957  17.630  0.00  0.00    +0.000 A 
ATOM     14  C   UNL     1       7.144   5.716  16.686  0.00  0.00    +0.000 A 
ATOM     15  C   UNL     1       6.842   5.013  15.521  0.00  0.00    +0.000 A 
ATOM     16  C   UNL     1       5.545   4.551  15.299  0.00  0.00    +0.000 A 
ATOM     17  C   UNL     1       4.547   4.779  16.248  0.00  0.00    +0.000 A 
ENDBRANCH   9  12
BRANCH   1  19
ATOM     18  N   UNL     1       1.338   9.402  18.554  0.00  0.00    +0.000 N 
ATOM     19  C   UNL     1       1.618   8.652  19.674  0.00  0.00    +0.000 C 
ATOM     20  O   UNL     1       1.449   9.039  20.835  0.00  0.00    +0.000 OA
ATOM     21  H   UNL     1       1.640   9.026  17.658  0.00  0.00    +0.000 HD
BRANCH  18  27
ATOM     22  C   UNL     1      -0.623  10.861  18.350  0.00  0.00    +0.000 A 
ATOM     23  C   UNL     1      -1.144  12.162  18.221  0.00  0.00    +0.000 A 
ATOM     24  C   UNL     1      -0.336  13.288  18.378  0.00  0.00    +0.000 A 
ATOM     25  C   UNL     1       1.015  13.130  18.641  0.00  0.00    +0.000 A 
ATOM     26  C   UNL     1       1.558  11.849  18.722  0.00  0.00    +0.000 A 
ATOM     27  C   UNL     1       0.768  10.703  18.539  0.00  0.00    +0.000 A 
BRANCH  22  28
ATOM     28  N   UNL     1      -1.473   9.781  18.032  0.00  0.00    +0.000 N 
ATOM     29  H   UNL     1      -2.384   9.849  18.477  0.00  0.00    +0.000 HD
ATOM     30  H   UNL     1      -1.067   8.861  18.168  0.00  0.00    +0.000 HD
ENDBRANCH  22  28
ENDBRANCH  18  27
ENDBRANCH   1  19
BRANCH   2  31
ATOM     31  O   UNL     1       0.823   6.419  21.240  0.00  0.00    +0.000 OA
ATOM     32  H   UNL     1       0.043   5.879  20.976  0.00  0.00    +0.000 HD
ENDBRANCH   2  31
TORSDOF 5
ENDMDL
MODEL 3
REMARK VINA RESULT:      -9.1      2.486      7.171
REMARK  Name = 
REMARK  5 active torsions:
REMARK  status: ('A' for Active; 'I' for Inactive)
REMARK    1  A    between atoms: N_1  and  C_2
REMARK    2  A    between atoms: C_7  and  N_8
REMARK    3  A    between atoms: C_9  and  C_11
REMARK    4  A    between atoms: C_12  and  O_13
REMARK    5  A    between atoms: N_20  and  C_21
REMARK                            x       y       z     vdW  Elec       q    Type
REMARK                         _______ _______ _______ _____ _____    ______ ____
ROOT
ATOM      1  C   UNL     1       2.265   7.144  19.465  0.00  0.00    +0.000 A 
ATOM      2  C   UNL     1       1.908   6.095  20.237  0.00  0.00    +0.000 A 
ATOM      3  C   UNL     1       2.594   4.800  20.133  0.00  0.00    +0.000 A 
ATOM      4  C   UNL     1       2.278   3.757  21.025  0.00  0.00    +0.000 A 
ATOM      5  C   UNL     1       3.022   2.582  21.049  0.00  0.00    +0.000 A 
ATOM      6  C   UNL     1       4.090   2.436  20.176  0.00  0.00    +0.000 A 
ATOM      7  C   UNL     1       4.391   3.450  19.261  0.00  0.00    +0.000 A 
ATOM      8  C   UNL     1       3.634   4.638  19.208  0.00  0.00    +0.000 A 
ATOM      9  N   UNL     1       3.929   5.718  18.315  0.00  0.00    +0.000 N 
ATOM     10  C   UNL     1       3.299   6.964  18.407  0.00  0.00    +0.000 A 
ATOM     11  O   UNL     1       3.536   7.915  17.654  0.00  0.00    +0.000 OA
ENDROOT
BRANCH   9  12
ATOM     12  C   UNL     1       4.932   5.529  17.317  0.00  0.00    +0.000 A 
ATOM     13  C   UNL     1       4.621   4.828  16.148  0.00  0.00    +0.000 A 
ATOM     14  C   UNL     1       5.593   4.617  15.170  0.00  0.00    +0.000 A 
ATOM     15  C   UNL     1       6.891   5.084  15.368  0.00  0.00    +0.000 A 
ATOM     16  C   UNL     1       7.219   5.760  16.543  0.00  0.00    +0.000 A 
ATOM     17  C   UNL     1       6.246   5.983  17.519  0.00  0.00    +0.000 A 
ENDBRANCH   9  12
BRANCH   1  19
ATOM     18  N   UNL     1       1.090   9.151  18.654  0.00  0.00    +0.000 N 
ATOM     19  C   UNL     1       1.597   8.463  19.734  0.00  0.00    +0.000 C 
ATOM     20  O   UNL     1       1.581   8.879  20.897  0.00  0.00    +0.000 OA
ATOM     21  H   UNL     1       1.278   8.765  17.731  0.00  0.00    +0.000 HD
BRANCH  18  27
ATOM     22  C   UNL     1       1.111  11.577  18.296  0.00  0.00    +0.000 A 
ATOM     23  C   UNL     1       0.474  12.820  18.462  0.00  0.00    +0.000 A 
ATOM     24  C   UNL     1      -0.843  12.909  18.913  0.00  0.00    +0.000 A 
ATOM     25  C   UNL     1      -1.536  11.753  19.232  0.00  0.00    +0.000 A 
ATOM     26  C   UNL     1      -0.905  10.516  19.124  0.00  0.00    +0.000 A 
ATOM     27  C   UNL     1       0.429  10.406  18.698  0.00  0.00    +0.000 A 
BRANCH  22  28
ATOM     28  N   UNL     1       2.485  11.582  17.977  0.00  0.00    +0.000 N 
ATOM     29  H   UNL     1       2.801  10.709  17.564  0.00  0.00    +0.000 HD
ATOM     30  H   UNL     1       3.100  11.874  18.730  0.00  0.00    +0.000 HD
ENDBRANCH  22  28
ENDBRANCH  18  27
ENDBRANCH   1  19
BRANCH   2  31
ATOM     31  O   UNL     1       0.947   6.140  21.236  0.00  0.00    +0.000 OA
ATOM     32  H   UNL     1       0.109   5.762  20.883  0.00  0.00    +0.000 HD
ENDBRANCH   2  31
TORSDOF 5
ENDMDL
MODEL 4
REMARK VINA RESULT:      -9.0      2.552      7.881
REMARK  Name = 
REMARK  5 active torsions:
REMARK  status: ('A' for Active; 'I' for Inactive)
REMARK    1  A    between atoms: N_1  and  C_2
REMARK    2  A    between atoms: C_7  and  N_8
REMARK    3  A    between atoms: C_9  and  C_11
REMARK    4  A    between atoms: C_12  and  O_13
REMARK    5  A    between atoms: N_20  and  C_21
REMARK                            x       y       z     vdW  Elec       q    Type
REMARK                         _______ _______ _______ _____ _____    ______ ____
ROOT
ATOM      1  C   UNL     1       2.221   7.198  19.394  0.00  0.00    +0.000 A 
ATOM      2  C   UNL     1       1.843   6.181  20.198  0.00  0.00    +0.000 A 
ATOM      3  C   UNL     1       2.525   4.880  20.158  0.00  0.00    +0.000 A 
ATOM      4  C   UNL     1       2.185   3.873  21.083  0.00  0.00    +0.000 A 
ATOM      5  C   UNL     1       2.924   2.698  21.168  0.00  0.00    +0.000 A 
ATOM      6  C   UNL     1       4.009   2.514  20.324  0.00  0.00    +0.000 A 
ATOM      7  C   UNL     1       4.333   3.491  19.378  0.00  0.00    +0.000 A 
ATOM      8  C   UNL     1       3.583   4.678  19.263  0.00  0.00    +0.000 A 
ATOM      9  N   UNL     1       3.902   5.722  18.336  0.00  0.00    +0.000 N 
ATOM     10  C   UNL     1       3.276   6.974  18.366  0.00  0.00    +0.000 A 
ATOM     11  O   UNL     1       3.533   7.894  17.582  0.00  0.00    +0.000 OA
ENDROOT
BRANCH   9  12
ATOM     12  C   UNL     1       4.925   5.491  17.367  0.00  0.00    +0.000 A 
ATOM     13  C   UNL     1       4.630   4.766  16.208  0.00  0.00    +0.000 A 
ATOM     14  C   UNL     1       5.621   4.515  15.260  0.00  0.00    +0.000 A 
ATOM     15  C   UNL     1       6.922   4.964  15.479  0.00  0.00    +0.000 A 
ATOM     16  C   UNL     1       7.234   5.664  16.644  0.00  0.00    +0.000 A 
ATOM     17  C   UNL     1       6.242   5.928  17.590  0.00  0.00    +0.000 A 
ENDBRANCH   9  12
BRANCH   1  19
ATOM     18  N   UNL     1       1.406   8.974  20.893  0.00  0.00    +0.000 N 
ATOM     19  C   UNL     1       1.553   8.529  19.598  0.00  0.00    +0.000 C 
ATOM     20  O   UNL     1       1.131   9.124  18.602  0.00  0.00    +0.000 OA
ATOM     21  H   UNL     1       1.680   8.335  21.636  0.00  0.00    +0.000 HD
BRANCH  18  27
ATOM     22  C   UNL     1      -0.146  10.204  22.340  0.00  0.00    +0.000 A 
ATOM     23  C   UNL     1      -0.814  11.406  22.636  0.00  0.00    +0.000 A 
ATOM     24  C   UNL     1      -0.485  12.600  21.993  0.00  0.00    +0.000 A 
ATOM     25  C   UNL     1       0.502  12.604  21.020  0.00  0.00    +0.000 A 
ATOM     26  C   UNL     1       1.139  11.413  20.677  0.00  0.00    +0.000 A 
ATOM     27  C   UNL     1       0.804  10.196  21.293  0.00  0.00    +0.000 A 
BRANCH  22  28
ATOM     28  N   UNL     1      -0.637   9.020  22.927  0.00  0.00    +0.000 N 
ATOM     29  H   UNL     1      -0.330   8.180  22.445  0.00  0.00    +0.000 HD
ATOM     30  H   UNL     1      -1.640   9.004  23.087  0.00  0.00    +0.000 HD
ENDBRANCH  22  28
ENDBRANCH  18  27
ENDBRANCH   1  19
BRANCH   2  31
ATOM     31  O   UNL     1       0.860   6.268  21.173  0.00  0.00    +0.000 OA
ATOM     32  H   UNL     1       1.271   6.093  22.051  0.00  0.00    +0.000 HD
ENDBRANCH   2  31
TORSDOF 5
ENDMDL
MODEL 5
REMARK VINA RESULT:      -8.9      2.199      7.144
REMARK  Name = 
REMARK  5 active torsions:
REMARK  status: ('A' for Active; 'I' for Inactive)
REMARK    1  A    between atoms: N_1  and  C_2
REMARK    2  A    between atoms: C_7  and  N_8
REMARK    3  A    between atoms: C_9  and  C_11
REMARK    4  A    between atoms: C_12  and  O_13
REMARK    5  A    between atoms: N_20  and  C_21
REMARK                            x       y       z     vdW  Elec       q    Type
REMARK                         _______ _______ _______ _____ _____    ______ ____
ROOT
ATOM      1  C   UNL     1       2.415   6.421  19.181  0.00  0.00    +0.000 A 
ATOM      2  C   UNL     1       1.810   5.279  19.574  0.00  0.00    +0.000 A 
ATOM      3  C   UNL     1       2.300   3.965  19.137  0.00  0.00    +0.000 A 
ATOM      4  C   UNL     1       1.721   2.787  19.648  0.00  0.00    +0.000 A 
ATOM      5  C   UNL     1       2.271   1.539  19.374  0.00  0.00    +0.000 A 
ATOM      6  C   UNL     1       3.405   1.456  18.580  0.00  0.00    +0.000 A 
ATOM      7  C   UNL     1       3.967   2.616  18.037  0.00  0.00    +0.000 A 
ATOM      8  C   UNL     1       3.411   3.886  18.287  0.00  0.00    +0.000 A 
ATOM      9  N   UNL     1       3.974   5.102  17.783  0.00  0.00    +0.000 N 
ATOM     10  C   UNL     1       3.533   6.364  18.198  0.00  0.00    +0.000 A 
ATOM     11  O   UNL     1       4.004   7.430  17.785  0.00  0.00    +0.000 OA
ENDROOT
BRANCH   9  12
ATOM     12  C   UNL     1       5.054   5.025  16.852  0.00  0.00    +0.000 A 
ATOM     13  C   UNL     1       4.782   4.944  15.483  0.00  0.00    +0.000 A 
ATOM     14  C   UNL     1       5.823   4.850  14.560  0.00  0.00    +0.000 A 
ATOM     15  C   UNL     1       7.144   4.808  15.004  0.00  0.00    +0.000 A 
ATOM     16  C   UNL     1       7.425   4.860  16.368  0.00  0.00    +0.000 A 
ATOM     17  C   UNL     1       6.386   4.967  17.295  0.00  0.00    +0.000 A 
ENDBRANCH   9  12
BRANCH   1  19
ATOM     18  N   UNL     1       1.402   8.652  18.927  0.00  0.00    +0.000 N 
ATOM     19  C   UNL     1       1.925   7.709  19.783  0.00  0.00    +0.000 C 
ATOM     20  O   UNL     1       2.062   7.869  20.999  0.00  0.00    +0.000 OA
ATOM     21  H   UNL     1       1.460   8.454  17.930  0.00  0.00    +0.000 HD
BRANCH  18  27
ATOM     22  C   UNL     1       1.372  11.089  18.657  0.00  0.00    +0.000 A 
ATOM     23  C   UNL     1       0.938  12.344  19.123  0.00  0.00    +0.000 A 
ATOM     24  C   UNL     1      -0.028  12.454  20.124  0.00  0.00    +0.000 A 
ATOM     25  C   UNL     1      -0.555  11.307  20.695  0.00  0.00    +0.000 A 
ATOM     26  C   UNL     1      -0.099  10.057  20.282  0.00  0.00    +0.000 A 
ATOM     27  C   UNL     1       0.891   9.924  19.296  0.00  0.00    +0.000 A 
BRANCH  22  28
ATOM     28  N   UNL     1       2.452  11.066  17.750  0.00  0.00    +0.000 N 
ATOM     29  H   UNL     1       3.050  10.253  17.865  0.00  0.00    +0.000 HD
ATOM     30  H   UNL     1       3.000  11.920  17.712  0.00  0.00    +0.000 HD
ENDBRANCH  22  28
ENDBRANCH  18  27
ENDBRANCH   1  19
BRANCH   2  31
ATOM     31  O   UNL     1       0.749   5.214  20.465  0.00  0.00    +0.000 OA
ATOM     32  H   UNL     1       0.435   4.281  20.512  0.00  0.00    +0.000 HD
ENDBRANCH   2  31
TORSDOF 5
ENDMDL
MODEL 6
REMARK VINA RESULT:      -8.7      0.844      1.374
REMARK  Name = 
REMARK  5 active torsions:
REMARK  status: ('A' for Active; 'I' for Inactive)
REMARK    1  A    between atoms: N_1  and  C_2
REMARK    2  A    between atoms: C_7  and  N_8
REMARK    3  A    between atoms: C_9  and  C_11
REMARK    4  A    between atoms: C_12  and  O_13
REMARK    5  A    between atoms: N_20  and  C_21
REMARK                            x       y       z     vdW  Elec       q    Type
REMARK                         _______ _______ _______ _____ _____    ______ ____
ROOT
ATOM      1  C   UNL     1       4.230   5.560  17.438  0.00  0.00    +0.000 A 
ATOM      2  C   UNL     1       4.299   4.404  18.134  0.00  0.00    +0.000 A 
ATOM      3  C   UNL     1       3.537   4.214  19.375  0.00  0.00    +0.000 A 
ATOM      4  C   UNL     1       3.538   2.963  20.023  0.00  0.00    +0.000 A 
ATOM      5  C   UNL     1       2.701   2.713  21.105  0.00  0.00    +0.000 A 
ATOM      6  C   UNL     1       1.855   3.715  21.555  0.00  0.00    +0.000 A 
ATOM      7  C   UNL     1       1.871   4.973  20.943  0.00  0.00    +0.000 A 
ATOM      8  C   UNL     1       2.728   5.250  19.860  0.00  0.00    +0.000 A 
ATOM      9  N   UNL     1       2.751   6.510  19.179  0.00  0.00    +0.000 N 
ATOM     10  C   UNL     1       3.457   6.709  17.987  0.00  0.00    +0.000 A 
ATOM     11  O   UNL     1       3.491   7.782  17.375  0.00  0.00    +0.000 OA
ENDROOT
BRANCH   9  12
ATOM     12  C   UNL     1       1.992   7.593  19.715  0.00  0.00    +0.000 A 
ATOM     13  C   UNL     1       1.502   8.585  18.859  0.00  0.00    +0.000 A 
ATOM     14  C   UNL     1       0.774   9.661  19.366  0.00  0.00    +0.000 A 
ATOM     15  C   UNL     1       0.556   9.767  20.739  0.00  0.00    +0.000 A 
ATOM     16  C   UNL     1       1.064   8.799  21.604  0.00  0.00    +0.000 A 
ATOM     17  C   UNL     1       1.782   7.713  21.099  0.00  0.00    +0.000 A 
ENDBRANCH   9  12
BRANCH   1  19
ATOM     18  N   UNL     1       5.205   4.419  15.484  0.00  0.00    +0.000 N 
ATOM     19  C   UNL     1       4.940   5.615  16.114  0.00  0.00    +0.000 C 
ATOM     20  O   UNL     1       5.288   6.720  15.688  0.00  0.00    +0.000 OA
ATOM     21  H   UNL     1       4.982   3.568  15.996  0.00  0.00    +0.000 HD
BRANCH  18  27
ATOM     22  C   UNL     1       7.152   4.805  14.045  0.00  0.00    +0.000 A 
ATOM     23  C   UNL     1       7.732   4.735  12.765  0.00  0.00    +0.000 A 
ATOM     24  C   UNL     1       7.109   4.053  11.719  0.00  0.00    +0.000 A 
ATOM     25  C   UNL     1       5.879   3.452  11.932  0.00  0.00    +0.000 A 
ATOM     26  C   UNL     1       5.266   3.554  13.179  0.00  0.00    +0.000 A 
ATOM     27  C   UNL     1       5.863   4.258  14.236  0.00  0.00    +0.000 A 
BRANCH  22  28
ATOM     28  N   UNL     1       7.775   5.634  15.001  0.00  0.00    +0.000 N 
ATOM     29  H   UNL     1       7.439   5.472  15.946  0.00  0.00    +0.000 HD
ATOM     30  H   UNL     1       7.774   6.624  14.777  0.00  0.00    +0.000 HD
ENDBRANCH  22  28
ENDBRANCH  18  27
ENDBRANCH   1  19
BRANCH   2  31
ATOM     31  O   UNL     1       5.004   3.280  17.731  0.00  0.00    +0.000 OA
ATOM     32  H   UNL     1       5.686   3.555  17.076  0.00  0.00    +0.000 HD
ENDBRANCH   2  31
TORSDOF 5
ENDMDL
MODEL 7
REMARK VINA RESULT:      -8.6      2.255      7.125
REMARK  Name = 
REMARK  5 active torsions:
REMARK  status: ('A' for Active; 'I' for Inactive)
REMARK    1  A    between atoms: N_1  and  C_2
REMARK    2  A    between atoms: C_7  and  N_8
REMARK    3  A    between atoms: C_9  and  C_11
REMARK    4  A    between atoms: C_12  and  O_13
REMARK    5  A    between atoms: N_20  and  C_21
REMARK                            x       y       z     vdW  Elec       q    Type
REMARK                         _______ _______ _______ _____ _____    ______ ____
ROOT
ATOM      1  C   UNL     1       2.456   6.736  18.915  0.00  0.00    +0.000 A 
ATOM      2  C   UNL     1       1.826   5.678  19.469  0.00  0.00    +0.000 A 
ATOM      3  C   UNL     1       2.259   4.301  19.194  0.00  0.00    +0.000 A 
ATOM      4  C   UNL     1       1.659   3.221  19.870  0.00  0.00    +0.000 A 
ATOM      5  C   UNL     1       2.158   1.929  19.747  0.00  0.00    +0.000 A 
ATOM      6  C   UNL     1       3.264   1.702  18.941  0.00  0.00    +0.000 A 
ATOM      7  C   UNL     1       3.847   2.761  18.237  0.00  0.00    +0.000 A 
ATOM      8  C   UNL     1       3.340   4.072  18.333  0.00  0.00    +0.000 A 
ATOM      9  N   UNL     1       3.928   5.192  17.661  0.00  0.00    +0.000 N 
ATOM     10  C   UNL     1       3.541   6.512  17.919  0.00  0.00    +0.000 A 
ATOM     11  O   UNL     1       4.033   7.498  17.359  0.00  0.00    +0.000 OA
ENDROOT
BRANCH   9  12
ATOM     12  C   UNL     1       4.976   4.956  16.721  0.00  0.00    +0.000 A 
ATOM     13  C   UNL     1       4.658   4.625  15.400  0.00  0.00    +0.000 A 
ATOM     14  C   UNL     1       5.668   4.373  14.472  0.00  0.00    +0.000 A 
ATOM     15  C   UNL     1       7.004   4.424  14.867  0.00  0.00    +0.000 A 
ATOM     16  C   UNL     1       7.331   4.726  16.188  0.00  0.00    +0.000 A 
ATOM     17  C   UNL     1       6.323   4.991  17.117  0.00  0.00    +0.000 A 
ENDBRANCH   9  12
BRANCH   1  19
ATOM     18  N   UNL     1       1.851   9.063  18.381  0.00  0.00    +0.000 N 
ATOM     19  C   UNL     1       2.027   8.108  19.357  0.00  0.00    +0.000 C 
ATOM     20  O   UNL     1       1.903   8.315  20.568  0.00  0.00    +0.000 OA
ATOM     21  H   UNL     1       2.107   8.806  17.430  0.00  0.00    +0.000 HD
BRANCH  18  27
ATOM     22  C   UNL     1       0.203  10.690  19.189  0.00  0.00    +0.000 A 
ATOM     23  C   UNL     1      -0.218  12.030  19.278  0.00  0.00    +0.000 A 
ATOM     24  C   UNL     1       0.611  13.081  18.885  0.00  0.00    +0.000 A 
ATOM     25  C   UNL     1       1.868  12.806  18.371  0.00  0.00    +0.000 A 
ATOM     26  C   UNL     1       2.282  11.483  18.228  0.00  0.00    +0.000 A 
ATOM     27  C   UNL     1       1.453  10.410  18.592  0.00  0.00    +0.000 A 
BRANCH  22  28
ATOM     28  N   UNL     1      -0.747   9.686  19.468  0.00  0.00    +0.000 N 
ATOM     29  H   UNL     1      -1.373   9.503  18.689  0.00  0.00    +0.000 HD
ATOM     30  H   UNL     1      -1.265   9.813  20.332  0.00  0.00    +0.000 HD
ENDBRANCH  22  28
ENDBRANCH  18  27
ENDBRANCH   1  19
BRANCH   2  31
ATOM     31  O   UNL     1       0.791   5.766  20.388  0.00  0.00    +0.000 OA
ATOM     32  H   UNL     1      -0.002   5.320  20.013  0.00  0.00    +0.000 HD
ENDBRANCH   2  31
TORSDOF 5
ENDMDL
MODEL 8
REMARK VINA RESULT:      -8.6      3.102      5.213
REMARK  Name = 
REMARK  5 active torsions:
REMARK  status: ('A' for Active; 'I' for Inactive)
REMARK    1  A    between atoms: N_1  and  C_2
REMARK    2  A    between atoms: C_7  and  N_8
REMARK    3  A    between atoms: C_9  and  C_11
REMARK    4  A    between atoms: C_12  and  O_13
REMARK    5  A    between atoms: N_20  and  C_21
REMARK                            x       y       z     vdW  Elec       q    Type
REMARK                         _______ _______ _______ _____ _____    ______ ____
ROOT
ATOM      1  C   UNL     1       2.016   8.276  19.176  0.00  0.00    +0.000 A 
ATOM      2  C   UNL     1       1.633   7.962  20.432  0.00  0.00    +0.000 A 
ATOM      3  C   UNL     1       0.929   8.931  21.282  0.00  0.00    +0.000 A 
ATOM      4  C   UNL     1       0.443   8.543  22.546  0.00  0.00    +0.000 A 
ATOM      5  C   UNL     1      -0.362   9.391  23.298  0.00  0.00    +0.000 A 
ATOM      6  C   UNL     1      -0.687  10.642  22.794  0.00  0.00    +0.000 A 
ATOM      7  C   UNL     1      -0.181  11.052  21.557  0.00  0.00    +0.000 A 
ATOM      8  C   UNL     1       0.654  10.213  20.792  0.00  0.00    +0.000 A 
ATOM      9  N   UNL     1       1.163  10.576  19.504  0.00  0.00    +0.000 N 
ATOM     10  C   UNL     1       1.823   9.665  18.671  0.00  0.00    +0.000 A 
ATOM     11  O   UNL     1       2.269   9.948  17.554  0.00  0.00    +0.000 OA
ENDROOT
BRANCH   9  12
ATOM     12  C   UNL     1       0.956  11.908  19.034  0.00  0.00    +0.000 A 
ATOM     13  C   UNL     1       1.991  12.844  19.129  0.00  0.00    +0.000 A 
ATOM     14  C   UNL     1       1.802  14.155  18.692  0.00  0.00    +0.000 A 
ATOM     15  C   UNL     1       0.564  14.545  18.182  0.00  0.00    +0.000 A 
ATOM     16  C   UNL     1      -0.483  13.628  18.109  0.00  0.00    +0.000 A 
ATOM     17  C   UNL     1      -0.293  12.312  18.533  0.00  0.00    +0.000 A 
ENDBRANCH   9  12
BRANCH   1  19
ATOM     18  N   UNL     1       3.946   7.283  18.012  0.00  0.00    +0.000 N 
ATOM     19  C   UNL     1       2.612   7.181  18.336  0.00  0.00    +0.000 C 
ATOM     20  O   UNL     1       1.865   6.279  17.945  0.00  0.00    +0.000 OA
ATOM     21  H   UNL     1       4.424   8.138  18.286  0.00  0.00    +0.000 HD
BRANCH  18  27
ATOM     22  C   UNL     1       5.265   5.222  17.844  0.00  0.00    +0.000 A 
ATOM     23  C   UNL     1       6.095   4.388  17.074  0.00  0.00    +0.000 A 
ATOM     24  C   UNL     1       6.275   4.601  15.707  0.00  0.00    +0.000 A 
ATOM     25  C   UNL     1       5.647   5.673  15.093  0.00  0.00    +0.000 A 
ATOM     26  C   UNL     1       4.862   6.540  15.850  0.00  0.00    +0.000 A 
ATOM     27  C   UNL     1       4.690   6.359  17.232  0.00  0.00    +0.000 A 
BRANCH  22  28
ATOM     28  N   UNL     1       5.253   5.025  19.240  0.00  0.00    +0.000 N 
ATOM     29  H   UNL     1       4.959   4.090  19.507  0.00  0.00    +0.000 HD
ATOM     30  H   UNL     1       4.752   5.732  19.770  0.00  0.00    +0.000 HD
ENDBRANCH  22  28
ENDBRANCH  18  27
ENDBRANCH   1  19
BRANCH   2  31
ATOM     31  O   UNL     1       1.782   6.711  21.013  0.00  0.00    +0.000 OA
ATOM     32  H   UNL     1       2.255   6.124  20.379  0.00  0.00    +0.000 HD
ENDBRANCH   2  31
TORSDOF 5
ENDMDL
MODEL 9
REMARK VINA RESULT:      -8.5      2.333      7.510
REMARK  Name = 
REMARK  5 active torsions:
REMARK  status: ('A' for Active; 'I' for Inactive)
REMARK    1  A    between atoms: N_1  and  C_2
REMARK    2  A    between atoms: C_7  and  N_8
REMARK    3  A    between atoms: C_9  and  C_11
REMARK    4  A    between atoms: C_12  and  O_13
REMARK    5  A    between atoms: N_20  and  C_21
REMARK                            x       y       z     vdW  Elec       q    Type
REMARK                         _______ _______ _______ _____ _____    ______ ____
ROOT
ATOM      1  C   UNL     1       2.474   7.201  19.008  0.00  0.00    +0.000 A 
ATOM      2  C   UNL     1       1.944   6.358  19.920  0.00  0.00    +0.000 A 
ATOM      3  C   UNL     1       2.465   4.996  20.097  0.00  0.00    +0.000 A 
ATOM      4  C   UNL     1       1.970   4.176  21.129  0.00  0.00    +0.000 A 
ATOM      5  C   UNL     1       2.557   2.948  21.416  0.00  0.00    +0.000 A 
ATOM      6  C   UNL     1       3.646   2.525  20.668  0.00  0.00    +0.000 A 
ATOM      7  C   UNL     1       4.124   3.314  19.617  0.00  0.00    +0.000 A 
ATOM      8  C   UNL     1       3.527   4.550  19.300  0.00  0.00    +0.000 A 
ATOM      9  N   UNL     1       4.006   5.409  18.258  0.00  0.00    +0.000 N 
ATOM     10  C   UNL     1       3.535   6.715  18.082  0.00  0.00    +0.000 A 
ATOM     11  O   UNL     1       3.933   7.479  17.195  0.00  0.00    +0.000 OA
ENDROOT
BRANCH   9  12
ATOM     12  C   UNL     1       5.033   4.928  17.390  0.00  0.00    +0.000 A 
ATOM     13  C   UNL     1       6.375   5.101  17.743  0.00  0.00    +0.000 A 
ATOM     14  C   UNL     1       7.391   4.654  16.899  0.00  0.00    +0.000 A 
ATOM     15  C   UNL     1       7.071   4.055  15.681  0.00  0.00    +0.000 A 
ATOM     16  C   UNL     1       5.737   3.904  15.307  0.00  0.00    +0.000 A 
ATOM     17  C   UNL     1       4.716   4.338  16.154  0.00  0.00    +0.000 A 
ENDBRANCH   9  12
BRANCH   1  19
ATOM     18  N   UNL     1       0.973   8.944  19.888  0.00  0.00    +0.000 N 
ATOM     19  C   UNL     1       1.963   8.615  18.990  0.00  0.00    +0.000 C 
ATOM     20  O   UNL     1       2.422   9.386  18.143  0.00  0.00    +0.000 OA
ATOM     21  H   UNL     1       0.587   8.187  20.449  0.00  0.00    +0.000 HD
BRANCH  18  27
ATOM     22  C   UNL     1      -0.465  10.719  18.995  0.00  0.00    +0.000 A 
ATOM     23  C   UNL     1      -0.962  12.030  19.106  0.00  0.00    +0.000 A 
ATOM     24  C   UNL     1      -0.745  12.798  20.250  0.00  0.00    +0.000 A 
ATOM     25  C   UNL     1      -0.000  12.273  21.294  0.00  0.00    +0.000 A 
ATOM     26  C   UNL     1       0.544  10.995  21.182  0.00  0.00    +0.000 A 
ATOM     27  C   UNL     1       0.360  10.217  20.028  0.00  0.00    +0.000 A 
BRANCH  22  28
ATOM     28  N   UNL     1      -0.604  10.068  17.752  0.00  0.00    +0.000 N 
ATOM     29  H   UNL     1      -1.131   9.201  17.814  0.00  0.00    +0.000 HD
ATOM     30  H   UNL     1       0.261   9.934  17.238  0.00  0.00    +0.000 HD
ENDBRANCH  22  28
ENDBRANCH  18  27
ENDBRANCH   1  19
BRANCH   2  31
ATOM     31  O   UNL     1       0.940   6.694  20.817  0.00  0.00    +0.000 OA
ATOM     32  H   UNL     1       1.104   6.221  21.665  0.00  0.00    +0.000 HD
ENDBRANCH   2  31
TORSDOF 5
ENDMDL
