MODEL 1
REMARK VINA RESULT:      -7.6      0.000      0.000
REMARK  Name = 
REMARK  13 active torsions:
REMARK  status: ('A' for Active; 'I' for Inactive)
REMARK    1  A    between atoms: C_1  and  O_2
REMARK    2  A    between atoms: O_2  and  C_3
REMARK    3  A    between atoms: C_3  and  C_5
REMARK    4  A    between atoms: C_5  and  C_6
REMARK    5  A    between atoms: C_6  and  C_7
REMARK    6  A    between atoms: C_7  and  C_8
REMARK    7  A    between atoms: C_8  and  C_9
REMARK    8  A    between atoms: C_9  and  C_10
REMARK    9  A    between atoms: C_10  and  C_11
REMARK   10  A    between atoms: C_10  and  C_22
REMARK   11  A    between atoms: C_11  and  N_12
REMARK   12  A    between atoms: N_12  and  S_13
REMARK   13  A    between atoms: S_13  and  C_16
REMARK                            x       y       z     vdW  Elec       q    Type
REMARK                         _______ _______ _______ _____ _____    ______ ____
ROOT
ATOM      1  C   UNL     1       3.036   5.862  17.942  0.00  0.00    +0.000 C 
ENDROOT
BRANCH   1   2
ATOM      2  C   UNL     1       2.231   4.828  18.754  0.00  0.00    +0.000 A 
ATOM      3  C   UNL     1       1.667   3.718  18.095  0.00  0.00    +0.000 A 
ATOM      4  C   UNL     1       0.942   2.759  18.807  0.00  0.00    +0.000 A 
ATOM      5  C   UNL     1       0.777   2.903  20.181  0.00  0.00    +0.000 A 
ATOM      6  N   UNL     1       1.315   3.974  20.818  0.00  0.00    +0.000 NA
ATOM      7  C   UNL     1       2.024   4.923  20.151  0.00  0.00    +0.000 A 
ENDBRANCH   1   2
BRANCH   1   8
ATOM      8  C   UNL     1       2.829   7.274  18.561  0.00  0.00    +0.000 C 
BRANCH   8   9
ATOM      9  C   UNL     1       2.342   8.388  17.607  0.00  0.00    +0.000 C 
BRANCH   9  10
ATOM     10  C   UNL     1       1.292   9.332  18.218  0.00  0.00    +0.000 C 
BRANCH  10  11
ATOM     11  C   UNL     1       1.249   9.155  19.749  0.00  0.00    +0.000 C 
BRANCH  11  12
ATOM     12  C   UNL     1       0.077   9.893  20.412  0.00  0.00    +0.000 C 
BRANCH  12  13
ATOM     13  C   UNL     1       0.543  10.902  21.424  0.00  0.00    +0.000 C 
ATOM     14  O   UNL     1       1.301  11.798  21.083  0.00  0.00    +0.000 OA
BRANCH  13  16
ATOM     15  C   UNL     1      -0.477   9.680  23.239  0.00  0.00    +0.000 C 
ATOM     16  O   UNL     1       0.107  10.810  22.708  0.00  0.00    +0.000 OA
ENDBRANCH  13  16
ENDBRANCH  12  13
ENDBRANCH  11  12
ENDBRANCH  10  11
ENDBRANCH   9  10
ENDBRANCH   8   9
ENDBRANCH   1   8
BRANCH   1  17
ATOM     17  C   UNL     1       4.538   5.491  17.814  0.00  0.00    +0.000 C 
BRANCH  17  18
ATOM     18  N   UNL     1       5.149   6.288  16.744  0.00  0.00    +0.000 NA
ATOM     19  H   UNL     1       5.336   7.257  17.093  0.00  0.00    +0.000 HD
BRANCH  18  20
ATOM     20  S   UNL     1       6.669   5.565  16.195  0.00  0.00    +0.000 S 
ATOM     21  O   UNL     1       7.708   6.687  16.349  0.00  0.00    +0.000 OA
ATOM     22  O   UNL     1       7.091   4.578  17.296  0.00  0.00    +0.000 OA
BRANCH  20  23
ATOM     23  C   UNL     1       6.681   4.876  14.540  0.00  0.00    +0.000 A 
ATOM     24  C   UNL     1       7.637   5.310  13.611  0.00  0.00    +0.000 A 
ATOM     25  C   UNL     1       7.633   4.798  12.310  0.00  0.00    +0.000 A 
ATOM     26  C   UNL     1       6.681   3.845  11.936  0.00  0.00    +0.000 A 
ATOM     27  C   UNL     1       5.732   3.403  12.864  0.00  0.00    +0.000 A 
ATOM     28  C   UNL     1       5.731   3.917  14.163  0.00  0.00    +0.000 A 
ENDBRANCH  20  23
ENDBRANCH  18  20
ENDBRANCH  17  18
ENDBRANCH   1  17
TORSDOF 12
ENDMDL
MODEL 2
REMARK VINA RESULT:      -7.3      2.928      5.212
REMARK  Name = 
REMARK  13 active torsions:
REMARK  status: ('A' for Active; 'I' for Inactive)
REMARK    1  A    between atoms: C_1  and  O_2
REMARK    2  A    between atoms: O_2  and  C_3
REMARK    3  A    between atoms: C_3  and  C_5
REMARK    4  A    between atoms: C_5  and  C_6
REMARK    5  A    between atoms: C_6  and  C_7
REMARK    6  A    between atoms: C_7  and  C_8
REMARK    7  A    between atoms: C_8  and  C_9
REMARK    8  A    between atoms: C_9  and  C_10
REMARK    9  A    between atoms: C_10  and  C_11
REMARK   10  A    between atoms: C_10  and  C_22
REMARK   11  A    between atoms: C_11  and  N_12
REMARK   12  A    between atoms: N_12  and  S_13
REMARK   13  A    between atoms: S_13  and  C_16
REMARK                            x       y       z     vdW  Elec       q    Type
REMARK                         _______ _______ _______ _____ _____    ______ ____
ROOT
ATOM      1  C   UNL     1       3.326   6.699  18.782  0.00  0.00    +0.000 C 
ENDROOT
BRANCH   1   2
ATOM      2  C   UNL     1       2.303   7.832  18.994  0.00  0.00    +0.000 A 
ATOM      3  C   UNL     1       1.895   8.612  17.894  0.00  0.00    +0.000 A 
ATOM      4  C   UNL     1       0.960   9.638  18.054  0.00  0.00    +0.000 A 
ATOM      5  C   UNL     1       0.427   9.890  19.314  0.00  0.00    +0.000 A 
ATOM      6  N   UNL     1       0.821   9.145  20.377  0.00  0.00    +0.000 NA
ATOM      7  C   UNL     1       1.729   8.141  20.252  0.00  0.00    +0.000 A 
ENDBRANCH   1   2
BRANCH   1   8
ATOM      8  C   UNL     1       2.644   5.331  19.068  0.00  0.00    +0.000 C 
BRANCH   8   9
ATOM      9  C   UNL     1       2.338   5.001  20.547  0.00  0.00    +0.000 C 
BRANCH   9  10
ATOM     10  C   UNL     1       1.424   3.781  20.749  0.00  0.00    +0.000 C 
BRANCH  10  11
ATOM     11  C   UNL     1       0.653   3.476  19.449  0.00  0.00    +0.000 C 
BRANCH  11  12
ATOM     12  C   UNL     1       1.031   2.126  18.822  0.00  0.00    +0.000 C 
BRANCH  12  13
ATOM     13  C   UNL     1       2.287   2.214  18.003  0.00  0.00    +0.000 C 
ATOM     14  O   UNL     1       2.303   2.897  16.989  0.00  0.00    +0.000 OA
BRANCH  13  16
ATOM     15  C   UNL     1       4.326   2.049  19.282  0.00  0.00    +0.000 C 
ATOM     16  O   UNL     1       3.395   1.538  18.404  0.00  0.00    +0.000 OA
ENDBRANCH  13  16
ENDBRANCH  12  13
ENDBRANCH  11  12
ENDBRANCH  10  11
ENDBRANCH   9  10
ENDBRANCH   8   9
ENDBRANCH   1   8
BRANCH   1  17
ATOM     17  C   UNL     1       3.990   6.741  17.378  0.00  0.00    +0.000 C 
BRANCH  17  18
ATOM     18  N   UNL     1       4.377   5.383  16.981  0.00  0.00    +0.000 NA
ATOM     19  H   UNL     1       3.760   5.058  16.200  0.00  0.00    +0.000 HD
BRANCH  18  20
ATOM     20  S   UNL     1       6.065   5.330  16.447  0.00  0.00    +0.000 S 
ATOM     21  O   UNL     1       6.588   6.756  16.683  0.00  0.00    +0.000 OA
ATOM     22  O   UNL     1       6.823   4.524  17.513  0.00  0.00    +0.000 OA
BRANCH  20  23
ATOM     23  C   UNL     1       6.360   4.790  14.763  0.00  0.00    +0.000 A 
ATOM     24  C   UNL     1       7.443   5.311  14.042  0.00  0.00    +0.000 A 
ATOM     25  C   UNL     1       7.661   4.915  12.719  0.00  0.00    +0.000 A 
ATOM     26  C   UNL     1       6.803   3.991  12.115  0.00  0.00    +0.000 A 
ATOM     27  C   UNL     1       5.726   3.462  12.835  0.00  0.00    +0.000 A 
ATOM     28  C   UNL     1       5.505   3.860  14.156  0.00  0.00    +0.000 A 
ENDBRANCH  20  23
ENDBRANCH  18  20
ENDBRANCH  17  18
ENDBRANCH   1  17
TORSDOF 12
ENDMDL
MODEL 3
REMARK VINA RESULT:      -7.3      2.935      5.449
REMARK  Name = 
REMARK  13 active torsions:
REMARK  status: ('A' for Active; 'I' for Inactive)
REMARK    1  A    between atoms: C_1  and  O_2
REMARK    2  A    between atoms: O_2  and  C_3
REMARK    3  A    between atoms: C_3  and  C_5
REMARK    4  A    between atoms: C_5  and  C_6
REMARK    5  A    between atoms: C_6  and  C_7
REMARK    6  A    between atoms: C_7  and  C_8
REMARK    7  A    between atoms: C_8  and  C_9
REMARK    8  A    between atoms: C_9  and  C_10
REMARK    9  A    between atoms: C_10  and  C_11
REMARK   10  A    between atoms: C_10  and  C_22
REMARK   11  A    between atoms: C_11  and  N_12
REMARK   12  A    between atoms: N_12  and  S_13
REMARK   13  A    between atoms: S_13  and  C_16
REMARK                            x       y       z     vdW  Elec       q    Type
REMARK                         _______ _______ _______ _____ _____    ______ ____
ROOT
ATOM      1  C   UNL     1       3.328   6.081  18.579  0.00  0.00    +0.000 C 
ENDROOT
BRANCH   1   2
ATOM      2  C   UNL     1       2.494   7.353  18.827  0.00  0.00    +0.000 A 
ATOM      3  C   UNL     1       2.248   8.239  17.760  0.00  0.00    +0.000 A 
ATOM      4  C   UNL     1       1.486   9.394  17.952  0.00  0.00    +0.000 A 
ATOM      5  C   UNL     1       0.965   9.671  19.213  0.00  0.00    +0.000 A 
ATOM      6  N   UNL     1       1.205   8.823  20.245  0.00  0.00    +0.000 NA
ATOM      7  C   UNL     1       1.943   7.692  20.087  0.00  0.00    +0.000 A 
ENDBRANCH   1   2
BRANCH   1   8
ATOM      8  C   UNL     1       2.412   4.976  17.978  0.00  0.00    +0.000 C 
BRANCH   8   9
ATOM      9  C   UNL     1       1.316   4.403  18.903  0.00  0.00    +0.000 C 
BRANCH   9  10
ATOM     10  C   UNL     1       1.099   2.886  18.766  0.00  0.00    +0.000 C 
BRANCH  10  11
ATOM     11  C   UNL     1       2.101   2.126  19.657  0.00  0.00    +0.000 C 
BRANCH  11  12
ATOM     12  C   UNL     1       3.367   1.687  18.907  0.00  0.00    +0.000 C 
BRANCH  12  13
ATOM     13  C   UNL     1       4.621   2.065  19.644  0.00  0.00    +0.000 C 
ATOM     14  O   UNL     1       4.985   3.232  19.664  0.00  0.00    +0.000 OA
BRANCH  13  16
ATOM     15  C   UNL     1       5.397   0.987  21.659  0.00  0.00    +0.000 C 
ATOM     16  O   UNL     1       5.333   1.103  20.288  0.00  0.00    +0.000 OA
ENDBRANCH  13  16
ENDBRANCH  12  13
ENDBRANCH  11  12
ENDBRANCH  10  11
ENDBRANCH   9  10
ENDBRANCH   8   9
ENDBRANCH   1   8
BRANCH   1  17
ATOM     17  C   UNL     1       4.583   6.344  17.701  0.00  0.00    +0.000 C 
BRANCH  17  18
ATOM     18  N   UNL     1       4.896   5.140  16.924  0.00  0.00    +0.000 NA
ATOM     19  H   UNL     1       4.210   5.042  16.140  0.00  0.00    +0.000 HD
BRANCH  18  20
ATOM     20  S   UNL     1       6.534   5.218  16.256  0.00  0.00    +0.000 S 
ATOM     21  O   UNL     1       6.994   6.659  16.532  0.00  0.00    +0.000 OA
ATOM     22  O   UNL     1       7.422   4.405  17.212  0.00  0.00    +0.000 OA
BRANCH  20  23
ATOM     23  C   UNL     1       6.720   4.786  14.526  0.00  0.00    +0.000 A 
ATOM     24  C   UNL     1       5.908   3.792  13.964  0.00  0.00    +0.000 A 
ATOM     25  C   UNL     1       6.067   3.431  12.623  0.00  0.00    +0.000 A 
ATOM     26  C   UNL     1       7.033   4.067  11.837  0.00  0.00    +0.000 A 
ATOM     27  C   UNL     1       7.839   5.067  12.393  0.00  0.00    +0.000 A 
ATOM     28  C   UNL     1       7.683   5.426  13.734  0.00  0.00    +0.000 A 
ENDBRANCH  20  23
ENDBRANCH  18  20
ENDBRANCH  17  18
ENDBRANCH   1  17
TORSDOF 12
ENDMDL
MODEL 4
REMARK VINA RESULT:      -7.2      2.591      3.403
REMARK  Name = 
REMARK  13 active torsions:
REMARK  status: ('A' for Active; 'I' for Inactive)
REMARK    1  A    between atoms: C_1  and  O_2
REMARK    2  A    between atoms: O_2  and  C_3
REMARK    3  A    between atoms: C_3  and  C_5
REMARK    4  A    between atoms: C_5  and  C_6
REMARK    5  A    between atoms: C_6  and  C_7
REMARK    6  A    between atoms: C_7  and  C_8
REMARK    7  A    between atoms: C_8  and  C_9
REMARK    8  A    between atoms: C_9  and  C_10
REMARK    9  A    between atoms: C_10  and  C_11
REMARK   10  A    between atoms: C_10  and  C_22
REMARK   11  A    between atoms: C_11  and  N_12
REMARK   12  A    between atoms: N_12  and  S_13
REMARK   13  A    between atoms: S_13  and  C_16
REMARK                            x       y       z     vdW  Elec       q    Type
REMARK                         _______ _______ _______ _____ _____    ______ ____
ROOT
ATOM      1  C   UNL     1       2.456   6.655  18.311  0.00  0.00    +0.000 C 
ENDROOT
BRANCH   1   2
ATOM      2  C   UNL     1       1.922   5.319  18.864  0.00  0.00    +0.000 A 
ATOM      3  C   UNL     1       1.747   4.228  17.990  0.00  0.00    +0.000 A 
ATOM      4  C   UNL     1       1.276   3.002  18.465  0.00  0.00    +0.000 A 
ATOM      5  C   UNL     1       0.977   2.858  19.817  0.00  0.00    +0.000 A 
ATOM      6  N   UNL     1       1.139   3.908  20.661  0.00  0.00    +0.000 NA
ATOM      7  C   UNL     1       1.596   5.113  20.227  0.00  0.00    +0.000 A 
ENDBRANCH   1   2
BRANCH   1   8
ATOM      8  C   UNL     1       2.032   7.811  19.262  0.00  0.00    +0.000 C 
BRANCH   8   9
ATOM      9  C   UNL     1       1.611   9.140  18.597  0.00  0.00    +0.000 C 
BRANCH   9  10
ATOM     10  C   UNL     1       0.736  10.044  19.482  0.00  0.00    +0.000 C 
BRANCH  10  11
ATOM     11  C   UNL     1      -0.449  10.597  18.665  0.00  0.00    +0.000 C 
BRANCH  11  12
ATOM     12  C   UNL     1      -0.913   9.647  17.551  0.00  0.00    +0.000 C 
BRANCH  12  13
ATOM     13  C   UNL     1      -2.311   9.953  17.093  0.00  0.00    +0.000 C 
ATOM     14  O   UNL     1      -3.264   9.487  17.701  0.00  0.00    +0.000 OA
BRANCH  13  16
ATOM     15  C   UNL     1      -3.041  10.314  14.821  0.00  0.00    +0.000 C 
ATOM     16  O   UNL     1      -2.500  10.752  16.011  0.00  0.00    +0.000 OA
ENDBRANCH  13  16
ENDBRANCH  12  13
ENDBRANCH  11  12
ENDBRANCH  10  11
ENDBRANCH   9  10
ENDBRANCH   8   9
ENDBRANCH   1   8
BRANCH   1  17
ATOM     17  C   UNL     1       3.989   6.634  18.061  0.00  0.00    +0.000 C 
BRANCH  17  18
ATOM     18  N   UNL     1       4.660   5.986  19.194  0.00  0.00    +0.000 NA
ATOM     19  H   UNL     1       3.942   5.608  19.855  0.00  0.00    +0.000 HD
BRANCH  18  20
ATOM     20  S   UNL     1       5.701   4.662  18.648  0.00  0.00    +0.000 S 
ATOM     21  O   UNL     1       7.014   4.859  19.423  0.00  0.00    +0.000 OA
ATOM     22  O   UNL     1       5.134   3.385  19.288  0.00  0.00    +0.000 OA
BRANCH  20  23
ATOM     23  C   UNL     1       5.989   4.540  16.883  0.00  0.00    +0.000 A 
ATOM     24  C   UNL     1       5.107   3.803  16.081  0.00  0.00    +0.000 A 
ATOM     25  C   UNL     1       5.342   3.680  14.708  0.00  0.00    +0.000 A 
ATOM     26  C   UNL     1       6.455   4.300  14.131  0.00  0.00    +0.000 A 
ATOM     27  C   UNL     1       7.333   5.044  14.927  0.00  0.00    +0.000 A 
ATOM     28  C   UNL     1       7.101   5.164  16.300  0.00  0.00    +0.000 A 
ENDBRANCH  20  23
ENDBRANCH  18  20
ENDBRANCH  17  18
ENDBRANCH   1  17
TORSDOF 12
ENDMDL
MODEL 5
REMARK VINA RESULT:      -7.2      2.959      5.245
REMARK  Name = 
REMARK  13 active torsions:
REMARK  status: ('A' for Active; 'I' for Inactive)
REMARK    1  A    between atoms: C_1  and  O_2
REMARK    2  A    between atoms: O_2  and  C_3
REMARK    3  A    between atoms: C_3  and  C_5
REMARK    4  A    between atoms: C_5  and  C_6
REMARK    5  A    between atoms: C_6  and  C_7
REMARK    6  A    between atoms: C_7  and  C_8
REMARK    7  A    between atoms: C_8  and  C_9
REMARK    8  A    between atoms: C_9  and  C_10
REMARK    9  A    between atoms: C_10  and  C_11
REMARK   10  A    between atoms: C_10  and  C_22
REMARK   11  A    between atoms: C_11  and  N_12
REMARK   12  A    between atoms: N_12  and  S_13
REMARK   13  A    between atoms: S_13  and  C_16
REMARK                            x       y       z     vdW  Elec       q    Type
REMARK                         _______ _______ _______ _____ _____    ______ ____
ROOT
ATOM      1  C   UNL     1       3.175   5.535  17.979  0.00  0.00    +0.000 C 
ENDROOT
BRANCH   1   2
ATOM      2  C   UNL     1       2.527   6.869  18.399  0.00  0.00    +0.000 A 
ATOM      3  C   UNL     1       2.310   7.869  17.430  0.00  0.00    +0.000 A 
ATOM      4  C   UNL     1       1.715   9.084  17.779  0.00  0.00    +0.000 A 
ATOM      5  C   UNL     1       1.333   9.307  19.098  0.00  0.00    +0.000 A 
ATOM      6  N   UNL     1       1.546   8.349  20.036  0.00  0.00    +0.000 NA
ATOM      7  C   UNL     1       2.123   7.158  19.725  0.00  0.00    +0.000 A 
ENDBRANCH   1   2
BRANCH   1   8
ATOM      8  C   UNL     1       2.071   4.572  17.455  0.00  0.00    +0.000 C 
BRANCH   8   9
ATOM      9  C   UNL     1       2.304   3.061  17.677  0.00  0.00    +0.000 C 
BRANCH   9  10
ATOM     10  C   UNL     1       1.626   2.492  18.936  0.00  0.00    +0.000 C 
BRANCH  10  11
ATOM     11  C   UNL     1       2.096   3.266  20.184  0.00  0.00    +0.000 C 
BRANCH  11  12
ATOM     12  C   UNL     1       3.081   2.472  21.055  0.00  0.00    +0.000 C 
BRANCH  12  13
ATOM     13  C   UNL     1       4.430   2.339  20.407  0.00  0.00    +0.000 C 
ATOM     14  O   UNL     1       4.915   3.294  19.816  0.00  0.00    +0.000 OA
BRANCH  13  16
ATOM     15  C   UNL     1       5.691   0.700  21.649  0.00  0.00    +0.000 C 
ATOM     16  O   UNL     1       5.100   1.161  20.493  0.00  0.00    +0.000 OA
ENDBRANCH  13  16
ENDBRANCH  12  13
ENDBRANCH  11  12
ENDBRANCH  10  11
ENDBRANCH   9  10
ENDBRANCH   8   9
ENDBRANCH   1   8
BRANCH   1  17
ATOM     17  C   UNL     1       4.327   5.720  16.954  0.00  0.00    +0.000 C 
BRANCH  17  18
ATOM     18  N   UNL     1       5.401   4.765  17.250  0.00  0.00    +0.000 NA
ATOM     19  H   UNL     1       5.079   3.796  17.023  0.00  0.00    +0.000 HD
BRANCH  18  20
ATOM     20  S   UNL     1       6.856   5.129  16.308  0.00  0.00    +0.000 S 
ATOM     21  O   UNL     1       7.081   6.635  16.512  0.00  0.00    +0.000 OA
ATOM     22  O   UNL     1       8.031   4.516  17.088  0.00  0.00    +0.000 OA
BRANCH  20  23
ATOM     23  C   UNL     1       6.818   4.697  14.569  0.00  0.00    +0.000 A 
ATOM     24  C   UNL     1       7.661   5.360  13.666  0.00  0.00    +0.000 A 
ATOM     25  C   UNL     1       7.615   5.047  12.305  0.00  0.00    +0.000 A 
ATOM     26  C   UNL     1       6.733   4.066  11.841  0.00  0.00    +0.000 A 
ATOM     27  C   UNL     1       5.897   3.396  12.740  0.00  0.00    +0.000 A 
ATOM     28  C   UNL     1       5.939   3.710  14.101  0.00  0.00    +0.000 A 
ENDBRANCH  20  23
ENDBRANCH  18  20
ENDBRANCH  17  18
ENDBRANCH   1  17
TORSDOF 12
ENDMDL
MODEL 6
REMARK VINA RESULT:      -7.2      0.776      1.073
REMARK  Name = 
REMARK  13 active torsions:
REMARK  status: ('A' for Active; 'I' for Inactive)
REMARK    1  A    between atoms: C_1  and  O_2
REMARK    2  A    between atoms: O_2  and  C_3
REMARK    3  A    between atoms: C_3  and  C_5
REMARK    4  A    between atoms: C_5  and  C_6
REMARK    5  A    between atoms: C_6  and  C_7
REMARK    6  A    between atoms: C_7  and  C_8
REMARK    7  A    between atoms: C_8  and  C_9
REMARK    8  A    between atoms: C_9  and  C_10
REMARK    9  A    between atoms: C_10  and  C_11
REMARK   10  A    between atoms: C_10  and  C_22
REMARK   11  A    between atoms: C_11  and  N_12
REMARK   12  A    between atoms: N_12  and  S_13
REMARK   13  A    between atoms: S_13  and  C_16
REMARK                            x       y       z     vdW  Elec       q    Type
REMARK                         _______ _______ _______ _____ _____    ______ ____
ROOT
ATOM      1  C   UNL     1       3.190   5.635  17.798  0.00  0.00    +0.000 C 
ENDROOT
BRANCH   1   2
ATOM      2  C   UNL     1       2.273   4.579  18.444  0.00  0.00    +0.000 A 
ATOM      3  C   UNL     1       1.839   4.759  19.773  0.00  0.00    +0.000 A 
ATOM      4  C   UNL     1       0.998   3.824  20.381  0.00  0.00    +0.000 A 
ATOM      5  C   UNL     1       0.585   2.704  19.666  0.00  0.00    +0.000 A 
ATOM      6  N   UNL     1       1.005   2.524  18.388  0.00  0.00    +0.000 NA
ATOM      7  C   UNL     1       1.824   3.417  17.771  0.00  0.00    +0.000 A 
ENDBRANCH   1   2
BRANCH   1   8
ATOM      8  C   UNL     1       2.889   7.028  18.421  0.00  0.00    +0.000 C 
BRANCH   8   9
ATOM      9  C   UNL     1       2.221   8.073  17.500  0.00  0.00    +0.000 C 
BRANCH   9  10
ATOM     10  C   UNL     1       2.061   9.466  18.131  0.00  0.00    +0.000 C 
BRANCH  10  11
ATOM     11  C   UNL     1       0.707   9.564  18.861  0.00  0.00    +0.000 C 
BRANCH  11  12
ATOM     12  C   UNL     1       0.818   9.354  20.378  0.00  0.00    +0.000 C 
BRANCH  12  13
ATOM     13  C   UNL     1       0.704  10.645  21.139  0.00  0.00    +0.000 C 
ATOM     14  O   UNL     1       0.791  11.709  20.544  0.00  0.00    +0.000 OA
BRANCH  13  16
ATOM     15  C   UNL     1      -0.328   9.703  23.106  0.00  0.00    +0.000 C 
ATOM     16  O   UNL     1       0.496  10.613  22.481  0.00  0.00    +0.000 OA
ENDBRANCH  13  16
ENDBRANCH  12  13
ENDBRANCH  11  12
ENDBRANCH  10  11
ENDBRANCH   9  10
ENDBRANCH   8   9
ENDBRANCH   1   8
BRANCH   1  17
ATOM     17  C   UNL     1       4.696   5.264  17.890  0.00  0.00    +0.000 C 
BRANCH  17  18
ATOM     18  N   UNL     1       5.502   6.356  17.333  0.00  0.00    +0.000 NA
ATOM     19  H   UNL     1       5.799   6.999  18.103  0.00  0.00    +0.000 HD
BRANCH  18  20
ATOM     20  S   UNL     1       6.941   5.732  16.511  0.00  0.00    +0.000 S 
ATOM     21  O   UNL     1       7.888   6.939  16.421  0.00  0.00    +0.000 OA
ATOM     22  O   UNL     1       7.658   4.833  17.532  0.00  0.00    +0.000 OA
BRANCH  20  23
ATOM     23  C   UNL     1       6.686   4.972  14.908  0.00  0.00    +0.000 A 
ATOM     24  C   UNL     1       7.620   5.176  13.882  0.00  0.00    +0.000 A 
ATOM     25  C   UNL     1       7.411   4.609  12.621  0.00  0.00    +0.000 A 
ATOM     26  C   UNL     1       6.275   3.831  12.383  0.00  0.00    +0.000 A 
ATOM     27  C   UNL     1       5.346   3.618  13.407  0.00  0.00    +0.000 A 
ATOM     28  C   UNL     1       5.551   4.187  14.667  0.00  0.00    +0.000 A 
ENDBRANCH  20  23
ENDBRANCH  18  20
ENDBRANCH  17  18
ENDBRANCH   1  17
TORSDOF 12
ENDMDL
MODEL 7
REMARK VINA RESULT:      -7.2      2.528      8.433
REMARK  Name = 
REMARK  13 active torsions:
REMARK  status: ('A' for Active; 'I' for Inactive)
REMARK    1  A    between atoms: C_1  and  O_2
REMARK    2  A    between atoms: O_2  and  C_3
REMARK    3  A    between atoms: C_3  and  C_5
REMARK    4  A    between atoms: C_5  and  C_6
REMARK    5  A    between atoms: C_6  and  C_7
REMARK    6  A    between atoms: C_7  and  C_8
REMARK    7  A    between atoms: C_8  and  C_9
REMARK    8  A    between atoms: C_9  and  C_10
REMARK    9  A    between atoms: C_10  and  C_11
REMARK   10  A    between atoms: C_10  and  C_22
REMARK   11  A    between atoms: C_11  and  N_12
REMARK   12  A    between atoms: N_12  and  S_13
REMARK   13  A    between atoms: S_13  and  C_16
REMARK                            x       y       z     vdW  Elec       q    Type
REMARK                         _______ _______ _______ _____ _____    ______ ____
ROOT
ATOM      1  C   UNL     1       2.838   6.586  19.149  0.00  0.00    +0.000 C 
ENDROOT
BRANCH   1   2
ATOM      2  C   UNL     1       2.098   5.234  19.140  0.00  0.00    +0.000 A 
ATOM      3  C   UNL     1       1.618   4.699  20.351  0.00  0.00    +0.000 A 
ATOM      4  C   UNL     1       0.934   3.481  20.372  0.00  0.00    +0.000 A 
ATOM      5  C   UNL     1       0.725   2.791  19.182  0.00  0.00    +0.000 A 
ATOM      6  N   UNL     1       1.191   3.300  18.013  0.00  0.00    +0.000 NA
ATOM      7  C   UNL     1       1.861   4.482  17.963  0.00  0.00    +0.000 A 
ENDBRANCH   1   2
BRANCH   1   8
ATOM      8  C   UNL     1       3.543   6.795  17.779  0.00  0.00    +0.000 C 
BRANCH   8   9
ATOM      9  C   UNL     1       5.084   6.676  17.763  0.00  0.00    +0.000 C 
BRANCH   9  10
ATOM     10  C   UNL     1       5.635   5.468  18.540  0.00  0.00    +0.000 C 
BRANCH  10  11
ATOM     11  C   UNL     1       6.616   4.673  17.655  0.00  0.00    +0.000 C 
BRANCH  11  12
ATOM     12  C   UNL     1       6.046   4.336  16.269  0.00  0.00    +0.000 C 
BRANCH  12  13
ATOM     13  C   UNL     1       6.924   4.839  15.158  0.00  0.00    +0.000 C 
ATOM     14  O   UNL     1       7.690   5.770  15.365  0.00  0.00    +0.000 OA
BRANCH  13  16
ATOM     15  C   UNL     1       5.699   3.756  13.383  0.00  0.00    +0.000 C 
ATOM     16  O   UNL     1       6.862   4.247  13.937  0.00  0.00    +0.000 OA
ENDBRANCH  13  16
ENDBRANCH  12  13
ENDBRANCH  11  12
ENDBRANCH  10  11
ENDBRANCH   9  10
ENDBRANCH   8   9
ENDBRANCH   1   8
BRANCH   1  17
ATOM     17  C   UNL     1       1.913   7.777  19.521  0.00  0.00    +0.000 C 
BRANCH  17  18
ATOM     18  N   UNL     1       1.937   7.979  20.974  0.00  0.00    +0.000 NA
ATOM     19  H   UNL     1       2.872   8.349  21.260  0.00  0.00    +0.000 HD
BRANCH  18  20
ATOM     20  S   UNL     1       0.681   9.120  21.481  0.00  0.00    +0.000 S 
ATOM     21  O   UNL     1      -0.562   8.247  21.716  0.00  0.00    +0.000 OA
ATOM     22  O   UNL     1       1.050   9.551  22.910  0.00  0.00    +0.000 OA
BRANCH  20  23
ATOM     23  C   UNL     1       0.331  10.480  20.366  0.00  0.00    +0.000 A 
ATOM     24  C   UNL     1      -0.765  10.404  19.495  0.00  0.00    +0.000 A 
ATOM     25  C   UNL     1      -1.026  11.449  18.604  0.00  0.00    +0.000 A 
ATOM     26  C   UNL     1      -0.198  12.575  18.584  0.00  0.00    +0.000 A 
ATOM     27  C   UNL     1       0.891  12.658  19.458  0.00  0.00    +0.000 A 
ATOM     28  C   UNL     1       1.156  11.613  20.347  0.00  0.00    +0.000 A 
ENDBRANCH  20  23
ENDBRANCH  18  20
ENDBRANCH  17  18
ENDBRANCH   1  17
TORSDOF 12
ENDMDL
MODEL 8
REMARK VINA RESULT:      -7.2      3.507      8.023
REMARK  Name = 
REMARK  13 active torsions:
REMARK  status: ('A' for Active; 'I' for Inactive)
REMARK    1  A    between atoms: C_1  and  O_2
REMARK    2  A    between atoms: O_2  and  C_3
REMARK    3  A    between atoms: C_3  and  C_5
REMARK    4  A    between atoms: C_5  and  C_6
REMARK    5  A    between atoms: C_6  and  C_7
REMARK    6  A    between atoms: C_7  and  C_8
REMARK    7  A    between atoms: C_8  and  C_9
REMARK    8  A    between atoms: C_9  and  C_10
REMARK    9  A    between atoms: C_10  and  C_11
REMARK   10  A    between atoms: C_10  and  C_22
REMARK   11  A    between atoms: C_11  and  N_12
REMARK   12  A    between atoms: N_12  and  S_13
REMARK   13  A    between atoms: S_13  and  C_16
REMARK                            x       y       z     vdW  Elec       q    Type
REMARK                         _______ _______ _______ _____ _____    ______ ____
ROOT
ATOM      1  C   UNL     1       2.630   6.545  18.153  0.00  0.00    +0.000 C 
ENDROOT
BRANCH   1   2
ATOM      2  C   UNL     1       4.156   6.434  17.970  0.00  0.00    +0.000 A 
ATOM      3  C   UNL     1       4.910   5.674  18.885  0.00  0.00    +0.000 A 
ATOM      4  C   UNL     1       6.293   5.546  18.738  0.00  0.00    +0.000 A 
ATOM      5  C   UNL     1       6.931   6.178  17.675  0.00  0.00    +0.000 A 
ATOM      6  N   UNL     1       6.209   6.916  16.794  0.00  0.00    +0.000 NA
ATOM      7  C   UNL     1       4.863   7.058  16.913  0.00  0.00    +0.000 A 
ENDBRANCH   1   2
BRANCH   1   8
ATOM      8  C   UNL     1       2.116   5.304  18.939  0.00  0.00    +0.000 C 
BRANCH   8   9
ATOM      9  C   UNL     1       1.537   4.141  18.102  0.00  0.00    +0.000 C 
BRANCH   9  10
ATOM     10  C   UNL     1       2.523   3.536  17.089  0.00  0.00    +0.000 C 
BRANCH  10  11
ATOM     11  C   UNL     1       3.444   2.518  17.790  0.00  0.00    +0.000 C 
BRANCH  11  12
ATOM     12  C   UNL     1       2.853   1.964  19.095  0.00  0.00    +0.000 C 
BRANCH  12  13
ATOM     13  C   UNL     1       3.717   2.273  20.285  0.00  0.00    +0.000 C 
ATOM     14  O   UNL     1       4.933   2.308  20.159  0.00  0.00    +0.000 OA
BRANCH  13  16
ATOM     15  C   UNL     1       1.802   2.833  21.641  0.00  0.00    +0.000 C 
ATOM     16  O   UNL     1       3.135   2.520  21.487  0.00  0.00    +0.000 OA
ENDBRANCH  13  16
ENDBRANCH  12  13
ENDBRANCH  11  12
ENDBRANCH  10  11
ENDBRANCH   9  10
ENDBRANCH   8   9
ENDBRANCH   1   8
BRANCH   1  17
ATOM     17  C   UNL     1       2.198   7.881  18.818  0.00  0.00    +0.000 C 
BRANCH  17  18
ATOM     18  N   UNL     1       2.114   7.697  20.272  0.00  0.00    +0.000 NA
ATOM     19  H   UNL     1       3.064   7.816  20.694  0.00  0.00    +0.000 HD
BRANCH  18  20
ATOM     20  S   UNL     1       1.004   8.869  21.001  0.00  0.00    +0.000 S 
ATOM     21  O   UNL     1      -0.169   8.020  21.515  0.00  0.00    +0.000 OA
ATOM     22  O   UNL     1       1.670   9.329  22.307  0.00  0.00    +0.000 OA
BRANCH  20  23
ATOM     23  C   UNL     1       0.440  10.206  19.948  0.00  0.00    +0.000 A 
ATOM     24  C   UNL     1       1.230  11.354  19.793  0.00  0.00    +0.000 A 
ATOM     25  C   UNL     1       0.782  12.411  18.996  0.00  0.00    +0.000 A 
ATOM     26  C   UNL     1      -0.452  12.323  18.345  0.00  0.00    +0.000 A 
ATOM     27  C   UNL     1      -1.239  11.175  18.490  0.00  0.00    +0.000 A 
ATOM     28  C   UNL     1      -0.794  10.119  19.290  0.00  0.00    +0.000 A 
ENDBRANCH  20  23
ENDBRANCH  18  20
ENDBRANCH  17  18
ENDBRANCH   1  17
TORSDOF 12
ENDMDL
MODEL 9
REMARK VINA RESULT:      -7.2      0.783      1.247
REMARK  Name = 
REMARK  13 active torsions:
REMARK  status: ('A' for Active; 'I' for Inactive)
REMARK    1  A    between atoms: C_1  and  O_2
REMARK    2  A    between atoms: O_2  and  C_3
REMARK    3  A    between atoms: C_3  and  C_5
REMARK    4  A    between atoms: C_5  and  C_6
REMARK    5  A    between atoms: C_6  and  C_7
REMARK    6  A    between atoms: C_7  and  C_8
REMARK    7  A    between atoms: C_8  and  C_9
REMARK    8  A    between atoms: C_9  and  C_10
REMARK    9  A    between atoms: C_10  and  C_11
REMARK   10  A    between atoms: C_10  and  C_22
REMARK   11  A    between atoms: C_11  and  N_12
REMARK   12  A    between atoms: N_12  and  S_13
REMARK   13  A    between atoms: S_13  and  C_16
REMARK                            x       y       z     vdW  Elec       q    Type
REMARK                         _______ _______ _______ _____ _____    ______ ____
ROOT
ATOM      1  C   UNL     1       3.021   5.601  17.986  0.00  0.00    +0.000 C 
ENDROOT
BRANCH   1   2
ATOM      2  C   UNL     1       2.355   4.739  19.076  0.00  0.00    +0.000 A 
ATOM      3  C   UNL     1       1.435   3.740  18.702  0.00  0.00    +0.000 A 
ATOM      4  C   UNL     1       0.824   2.935  19.667  0.00  0.00    +0.000 A 
ATOM      5  C   UNL     1       1.130   3.123  21.011  0.00  0.00    +0.000 A 
ATOM      6  N   UNL     1       2.011   4.088  21.376  0.00  0.00    +0.000 NA
ATOM      7  C   UNL     1       2.620   4.886  20.459  0.00  0.00    +0.000 A 
ENDBRANCH   1   2
BRANCH   1   8
ATOM      8  C   UNL     1       3.024   7.089  18.440  0.00  0.00    +0.000 C 
BRANCH   8   9
ATOM      9  C   UNL     1       2.249   8.089  17.553  0.00  0.00    +0.000 C 
BRANCH   9  10
ATOM     10  C   UNL     1       1.986   9.452  18.214  0.00  0.00    +0.000 C 
BRANCH  10  11
ATOM     11  C   UNL     1       0.470   9.726  18.277  0.00  0.00    +0.000 C 
BRANCH  11  12
ATOM     12  C   UNL     1       0.125  11.090  18.892  0.00  0.00    +0.000 C 
BRANCH  12  13
ATOM     13  C   UNL     1       0.797  11.300  20.219  0.00  0.00    +0.000 C 
ATOM     14  O   UNL     1       1.585  12.225  20.360  0.00  0.00    +0.000 OA
BRANCH  13  16
ATOM     15  C   UNL     1      -0.464  10.709  22.190  0.00  0.00    +0.000 C 
ATOM     16  O   UNL     1       0.514  10.463  21.251  0.00  0.00    +0.000 OA
ENDBRANCH  13  16
ENDBRANCH  12  13
ENDBRANCH  11  12
ENDBRANCH  10  11
ENDBRANCH   9  10
ENDBRANCH   8   9
ENDBRANCH   1   8
BRANCH   1  17
ATOM     17  C   UNL     1       4.441   5.101  17.606  0.00  0.00    +0.000 C 
BRANCH  17  18
ATOM     18  N   UNL     1       5.088   6.087  16.733  0.00  0.00    +0.000 NA
ATOM     19  H   UNL     1       5.226   6.981  17.258  0.00  0.00    +0.000 HD
BRANCH  18  20
ATOM     20  S   UNL     1       6.659   5.502  16.163  0.00  0.00    +0.000 S 
ATOM     21  O   UNL     1       7.614   6.687  16.379  0.00  0.00    +0.000 OA
ATOM     22  O   UNL     1       7.146   4.495  17.217  0.00  0.00    +0.000 OA
BRANCH  20  23
ATOM     23  C   UNL     1       6.730   4.898  14.476  0.00  0.00    +0.000 A 
ATOM     24  C   UNL     1       5.829   3.913  14.049  0.00  0.00    +0.000 A 
ATOM     25  C   UNL     1       5.898   3.418  12.743  0.00  0.00    +0.000 A 
ATOM     26  C   UNL     1       6.861   3.911  11.858  0.00  0.00    +0.000 A 
ATOM     27  C   UNL     1       7.756   4.901  12.278  0.00  0.00    +0.000 A 
ATOM     28  C   UNL     1       7.691   5.394  13.584  0.00  0.00    +0.000 A 
ENDBRANCH  20  23
ENDBRANCH  18  20
ENDBRANCH  17  18
ENDBRANCH   1  17
TORSDOF 12
ENDMDL
