MODEL 1
REMARK VINA RESULT:      -8.2      0.000      0.000
REMARK  Name = 
REMARK  9 active torsions:
REMARK  status: ('A' for Active; 'I' for Inactive)
REMARK    1  A    between atoms: C_1  and  C_2
REMARK    2  A    between atoms: C_2  and  C_3
REMARK    3  A    between atoms: C_2  and  N_6
REMARK    4  A    between atoms: C_3  and  C_4
REMARK    5  A    between atoms: N_10  and  C_11
REMARK    6  A    between atoms: C_11  and  C_12
REMARK    7  A    between atoms: C_11  and  C_13
REMARK    8  A    between atoms: C_17  and  C_18
REMARK    9  A    between atoms: C_22  and  C_23
REMARK                            x       y       z     vdW  Elec       q    Type
REMARK                         _______ _______ _______ _____ _____    ______ ____
ROOT
ATOM      1  N   UNL     1       7.666   6.334  16.696  0.00  0.00    +0.000 N 
ATOM      2  C   UNL     1       6.686   5.450  16.275  0.00  0.00    +0.000 A 
ATOM      3  N   UNL     1       6.819   4.984  15.046  0.00  0.00    +0.000 NA
ATOM      4  C   UNL     1       5.821   4.246  14.583  0.00  0.00    +0.000 A 
ATOM      5  N   UNL     1       5.786   3.873  13.258  0.00  0.00    +0.000 N 
ATOM      6  N   UNL     1       4.778   3.875  15.309  0.00  0.00    +0.000 NA
ATOM      7  C   UNL     1       4.767   4.328  16.563  0.00  0.00    +0.000 A 
ATOM      8  N   UNL     1       5.687   5.140  17.084  0.00  0.00    +0.000 NA
ATOM      9  H   UNL     1       8.529   5.802  16.761  0.00  0.00    +0.000 HD
ATOM     10  H   UNL     1       5.070   3.173  13.115  0.00  0.00    +0.000 HD
ENDROOT
BRANCH   7  11
ATOM     11  C   UNL     1       3.670   3.886  17.463  0.00  0.00    +0.000 A 
ATOM     12  C   UNL     1       3.024   2.663  17.270  0.00  0.00    +0.000 A 
ATOM     13  C   UNL     1       1.996   2.284  18.127  0.00  0.00    +0.000 A 
ATOM     14  C   UNL     1       1.638   3.125  19.173  0.00  0.00    +0.000 A 
ATOM     15  C   UNL     1       2.314   4.334  19.334  0.00  0.00    +0.000 A 
ATOM     16  N   UNL     1       3.315   4.716  18.485  0.00  0.00    +0.000 NA
BRANCH  15  17
ATOM     17  C   UNL     1       1.945   5.258  20.489  0.00  0.00    +0.000 C 
ATOM     18  F   UNL     1       2.330   6.554  20.285  0.00  0.00    +0.000 F 
ATOM     19  F   UNL     1       0.602   5.315  20.720  0.00  0.00    +0.000 F 
ATOM     20  F   UNL     1       2.518   4.895  21.672  0.00  0.00    +0.000 F 
ENDBRANCH  15  17
ENDBRANCH   7  11
BRANCH   1  22
ATOM     21  C   UNL     1       8.254   6.734  19.001  0.00  0.00    +0.000 C 
ATOM     22  C   UNL     1       7.380   7.214  17.832  0.00  0.00    +0.000 C 
BRANCH  22  23
ATOM     23  C   UNL     1       7.711   8.677  17.462  0.00  0.00    +0.000 C 
BRANCH  23  24
ATOM     24  C   UNL     1       8.548   9.323  18.477  0.00  0.00    +0.000 C 
ATOM     25  N   UNL     1       9.199   9.835  19.291  0.00  0.00    +0.000 NA
ENDBRANCH  23  24
ENDBRANCH  22  23
ENDBRANCH   1  22
BRANCH   5  26
ATOM     26  C   UNL     1       7.013   3.752  12.496  0.00  0.00    +0.000 C 
ATOM     27  C   UNL     1       7.442   5.159  12.075  0.00  0.00    +0.000 C 
BRANCH  26  28
ATOM     28  C   UNL     1       6.766   2.884  11.285  0.00  0.00    +0.000 C 
ATOM     29  C   UNL     1       7.188   1.433  11.259  0.00  0.00    +0.000 C 
ATOM     30  C   UNL     1       5.730   1.786  11.337  0.00  0.00    +0.000 C 
ENDBRANCH  26  28
ENDBRANCH   5  26
TORSDOF 7
ENDMDL
MODEL 2
REMARK VINA RESULT:      -7.9      3.111      6.065
REMARK  Name = 
REMARK  9 active torsions:
REMARK  status: ('A' for Active; 'I' for Inactive)
REMARK    1  A    between atoms: C_1  and  C_2
REMARK    2  A    between atoms: C_2  and  C_3
REMARK    3  A    between atoms: C_2  and  N_6
REMARK    4  A    between atoms: C_3  and  C_4
REMARK    5  A    between atoms: N_10  and  C_11
REMARK    6  A    between atoms: C_11  and  C_12
REMARK    7  A    between atoms: C_11  and  C_13
REMARK    8  A    between atoms: C_17  and  C_18
REMARK    9  A    between atoms: C_22  and  C_23
REMARK                            x       y       z     vdW  Elec       q    Type
REMARK                         _______ _______ _______ _____ _____    ______ ____
ROOT
ATOM      1  N   UNL     1       2.117   3.349  18.335  0.00  0.00    +0.000 N 
ATOM      2  C   UNL     1       2.760   4.576  18.293  0.00  0.00    +0.000 A 
ATOM      3  N   UNL     1       4.035   4.547  17.946  0.00  0.00    +0.000 NA
ATOM      4  C   UNL     1       4.696   5.691  18.033  0.00  0.00    +0.000 A 
ATOM      5  N   UNL     1       6.064   5.721  17.869  0.00  0.00    +0.000 N 
ATOM      6  N   UNL     1       4.132   6.849  18.337  0.00  0.00    +0.000 NA
ATOM      7  C   UNL     1       2.825   6.795  18.596  0.00  0.00    +0.000 A 
ATOM      8  N   UNL     1       2.101   5.676  18.611  0.00  0.00    +0.000 NA
ATOM      9  H   UNL     1       2.071   3.012  17.377  0.00  0.00    +0.000 HD
ATOM     10  H   UNL     1       6.381   6.677  17.784  0.00  0.00    +0.000 HD
ENDROOT
BRANCH   7  11
ATOM     11  C   UNL     1       2.106   8.068  18.865  0.00  0.00    +0.000 A 
ATOM     12  C   UNL     1       2.058   9.088  17.912  0.00  0.00    +0.000 A 
ATOM     13  C   UNL     1       1.382  10.269  18.201  0.00  0.00    +0.000 A 
ATOM     14  C   UNL     1       0.754  10.409  19.432  0.00  0.00    +0.000 A 
ATOM     15  C   UNL     1       0.820   9.363  20.352  0.00  0.00    +0.000 A 
ATOM     16  N   UNL     1       1.495   8.207  20.076  0.00  0.00    +0.000 NA
BRANCH  15  17
ATOM     17  C   UNL     1       0.118   9.496  21.698  0.00  0.00    +0.000 C 
ATOM     18  F   UNL     1       0.984   9.491  22.757  0.00  0.00    +0.000 F 
ATOM     19  F   UNL     1      -0.591  10.655  21.819  0.00  0.00    +0.000 F 
ATOM     20  F   UNL     1      -0.761   8.485  21.948  0.00  0.00    +0.000 F 
ENDBRANCH  15  17
ENDBRANCH   7  11
BRANCH   1  22
ATOM     21  C   UNL     1       0.537   1.733  19.180  0.00  0.00    +0.000 C 
ATOM     22  C   UNL     1       0.877   3.230  19.107  0.00  0.00    +0.000 C 
BRANCH  22  23
ATOM     23  C   UNL     1       1.078   3.818  20.521  0.00  0.00    +0.000 C 
BRANCH  23  24
ATOM     24  C   UNL     1       1.990   3.003  21.329  0.00  0.00    +0.000 C 
ATOM     25  N   UNL     1       2.724   2.361  21.958  0.00  0.00    +0.000 NA
ENDBRANCH  23  24
ENDBRANCH  22  23
ENDBRANCH   1  22
BRANCH   5  26
ATOM     26  C   UNL     1       6.730   4.712  17.071  0.00  0.00    +0.000 C 
ATOM     27  C   UNL     1       8.101   4.449  17.698  0.00  0.00    +0.000 C 
BRANCH  26  28
ATOM     28  C   UNL     1       6.879   5.213  15.654  0.00  0.00    +0.000 C 
ATOM     29  C   UNL     1       6.686   4.293  14.470  0.00  0.00    +0.000 C 
ATOM     30  C   UNL     1       5.665   5.353  14.767  0.00  0.00    +0.000 C 
ENDBRANCH  26  28
ENDBRANCH   5  26
TORSDOF 7
ENDMDL
MODEL 3
REMARK VINA RESULT:      -7.7      3.150      5.811
REMARK  Name = 
REMARK  9 active torsions:
REMARK  status: ('A' for Active; 'I' for Inactive)
REMARK    1  A    between atoms: C_1  and  C_2
REMARK    2  A    between atoms: C_2  and  C_3
REMARK    3  A    between atoms: C_2  and  N_6
REMARK    4  A    between atoms: C_3  and  C_4
REMARK    5  A    between atoms: N_10  and  C_11
REMARK    6  A    between atoms: C_11  and  C_12
REMARK    7  A    between atoms: C_11  and  C_13
REMARK    8  A    between atoms: C_17  and  C_18
REMARK    9  A    between atoms: C_22  and  C_23
REMARK                            x       y       z     vdW  Elec       q    Type
REMARK                         _______ _______ _______ _____ _____    ______ ____
ROOT
ATOM      1  N   UNL     1       2.562   3.425  19.221  0.00  0.00    +0.000 N 
ATOM      2  C   UNL     1       2.961   4.650  18.712  0.00  0.00    +0.000 A 
ATOM      3  N   UNL     1       4.012   4.626  17.911  0.00  0.00    +0.000 NA
ATOM      4  C   UNL     1       4.487   5.801  17.526  0.00  0.00    +0.000 A 
ATOM      5  N   UNL     1       5.682   5.881  16.845  0.00  0.00    +0.000 N 
ATOM      6  N   UNL     1       3.912   6.959  17.808  0.00  0.00    +0.000 NA
ATOM      7  C   UNL     1       2.811   6.881  18.557  0.00  0.00    +0.000 A 
ATOM      8  N   UNL     1       2.312   5.749  19.054  0.00  0.00    +0.000 NA
ATOM      9  H   UNL     1       2.218   2.881  18.434  0.00  0.00    +0.000 HD
ATOM     10  H   UNL     1       5.805   6.813  16.471  0.00  0.00    +0.000 HD
ENDROOT
BRANCH   7  11
ATOM     11  C   UNL     1       2.065   8.133  18.847  0.00  0.00    +0.000 A 
ATOM     12  C   UNL     1       1.973   9.156  17.901  0.00  0.00    +0.000 A 
ATOM     13  C   UNL     1       1.272  10.317  18.209  0.00  0.00    +0.000 A 
ATOM     14  C   UNL     1       0.662  10.434  19.451  0.00  0.00    +0.000 A 
ATOM     15  C   UNL     1       0.772   9.385  20.364  0.00  0.00    +0.000 A 
ATOM     16  N   UNL     1       1.472   8.248  20.069  0.00  0.00    +0.000 NA
BRANCH  15  17
ATOM     17  C   UNL     1       0.090   9.492  21.723  0.00  0.00    +0.000 C 
ATOM     18  F   UNL     1      -0.743   8.441  21.989  0.00  0.00    +0.000 F 
ATOM     19  F   UNL     1       0.973   9.523  22.763  0.00  0.00    +0.000 F 
ATOM     20  F   UNL     1      -0.685  10.606  21.849  0.00  0.00    +0.000 F 
ENDBRANCH  15  17
ENDBRANCH   7  11
BRANCH   1  22
ATOM     21  C   UNL     1       0.411   2.693  20.033  0.00  0.00    +0.000 C 
ATOM     22  C   UNL     1       1.719   3.401  20.419  0.00  0.00    +0.000 C 
BRANCH  22  23
ATOM     23  C   UNL     1       2.440   2.644  21.556  0.00  0.00    +0.000 C 
BRANCH  23  24
ATOM     24  C   UNL     1       3.783   2.209  21.158  0.00  0.00    +0.000 C 
ATOM     25  N   UNL     1       4.852   1.875  20.854  0.00  0.00    +0.000 NA
ENDBRANCH  23  24
ENDBRANCH  22  23
ENDBRANCH   1  22
BRANCH   5  26
ATOM     26  C   UNL     1       6.150   4.764  16.048  0.00  0.00    +0.000 C 
ATOM     27  C   UNL     1       7.607   4.497  16.429  0.00  0.00    +0.000 C 
BRANCH  26  28
ATOM     28  C   UNL     1       6.036   5.113  14.583  0.00  0.00    +0.000 C 
ATOM     29  C   UNL     1       7.135   4.766  13.605  0.00  0.00    +0.000 C 
ATOM     30  C   UNL     1       5.831   4.023  13.558  0.00  0.00    +0.000 C 
ENDBRANCH  26  28
ENDBRANCH   5  26
TORSDOF 7
ENDMDL
MODEL 4
REMARK VINA RESULT:      -7.6      4.215      8.303
REMARK  Name = 
REMARK  9 active torsions:
REMARK  status: ('A' for Active; 'I' for Inactive)
REMARK    1  A    between atoms: C_1  and  C_2
REMARK    2  A    between atoms: C_2  and  C_3
REMARK    3  A    between atoms: C_2  and  N_6
REMARK    4  A    between atoms: C_3  and  C_4
REMARK    5  A    between atoms: N_10  and  C_11
REMARK    6  A    between atoms: C_11  and  C_12
REMARK    7  A    between atoms: C_11  and  C_13
REMARK    8  A    between atoms: C_17  and  C_18
REMARK    9  A    between atoms: C_22  and  C_23
REMARK                            x       y       z     vdW  Elec       q    Type
REMARK                         _______ _______ _______ _____ _____    ______ ____
ROOT
ATOM      1  N   UNL     1       1.779   5.640  20.474  0.00  0.00    +0.000 N 
ATOM      2  C   UNL     1       2.348   6.470  19.522  0.00  0.00    +0.000 A 
ATOM      3  N   UNL     1       1.745   7.631  19.335  0.00  0.00    +0.000 NA
ATOM      4  C   UNL     1       2.195   8.375  18.336  0.00  0.00    +0.000 A 
ATOM      5  N   UNL     1       1.516   9.510  17.950  0.00  0.00    +0.000 N 
ATOM      6  N   UNL     1       3.257   8.070  17.608  0.00  0.00    +0.000 NA
ATOM      7  C   UNL     1       3.850   6.917  17.920  0.00  0.00    +0.000 A 
ATOM      8  N   UNL     1       3.416   6.070  18.853  0.00  0.00    +0.000 NA
ATOM      9  H   UNL     1       1.910   6.096  21.373  0.00  0.00    +0.000 HD
ATOM     10  H   UNL     1       2.082  10.050  17.310  0.00  0.00    +0.000 HD
ENDROOT
BRANCH   7  11
ATOM     11  C   UNL     1       5.097   6.547  17.200  0.00  0.00    +0.000 A 
ATOM     12  C   UNL     1       6.330   7.093  17.561  0.00  0.00    +0.000 A 
ATOM     13  C   UNL     1       7.476   6.730  16.861  0.00  0.00    +0.000 A 
ATOM     14  C   UNL     1       7.375   5.816  15.819  0.00  0.00    +0.000 A 
ATOM     15  C   UNL     1       6.125   5.290  15.496  0.00  0.00    +0.000 A 
ATOM     16  N   UNL     1       4.995   5.655  16.174  0.00  0.00    +0.000 NA
BRANCH  15  17
ATOM     17  C   UNL     1       6.003   4.271  14.368  0.00  0.00    +0.000 C 
ATOM     18  F   UNL     1       6.147   2.980  14.794  0.00  0.00    +0.000 F 
ATOM     19  F   UNL     1       4.792   4.310  13.741  0.00  0.00    +0.000 F 
ATOM     20  F   UNL     1       6.941   4.435  13.393  0.00  0.00    +0.000 F 
ENDBRANCH  15  17
ENDBRANCH   7  11
BRANCH   1  22
ATOM     21  C   UNL     1       2.070   3.712  21.895  0.00  0.00    +0.000 C 
ATOM     22  C   UNL     1       2.095   4.209  20.442  0.00  0.00    +0.000 C 
BRANCH  22  23
ATOM     23  C   UNL     1       1.052   3.459  19.584  0.00  0.00    +0.000 C 
BRANCH  23  24
ATOM     24  C   UNL     1       1.632   2.949  18.338  0.00  0.00    +0.000 C 
ATOM     25  N   UNL     1       2.084   2.558  17.343  0.00  0.00    +0.000 NA
ENDBRANCH  23  24
ENDBRANCH  22  23
ENDBRANCH   1  22
BRANCH   5  26
ATOM     26  C   UNL     1       0.690  10.230  18.899  0.00  0.00    +0.000 C 
ATOM     27  C   UNL     1      -0.771   9.886  18.602  0.00  0.00    +0.000 C 
BRANCH  26  28
ATOM     28  C   UNL     1       0.931  11.713  18.746  0.00  0.00    +0.000 C 
ATOM     29  C   UNL     1       1.728  12.489  19.770  0.00  0.00    +0.000 C 
ATOM     30  C   UNL     1       2.312  12.227  18.412  0.00  0.00    +0.000 C 
ENDBRANCH  26  28
ENDBRANCH   5  26
TORSDOF 7
ENDMDL
MODEL 5
REMARK VINA RESULT:      -7.5      1.577      2.057
REMARK  Name = 
REMARK  9 active torsions:
REMARK  status: ('A' for Active; 'I' for Inactive)
REMARK    1  A    between atoms: C_1  and  C_2
REMARK    2  A    between atoms: C_2  and  C_3
REMARK    3  A    between atoms: C_2  and  N_6
REMARK    4  A    between atoms: C_3  and  C_4
REMARK    5  A    between atoms: N_10  and  C_11
REMARK    6  A    between atoms: C_11  and  C_12
REMARK    7  A    between atoms: C_11  and  C_13
REMARK    8  A    between atoms: C_17  and  C_18
REMARK    9  A    between atoms: C_22  and  C_23
REMARK                            x       y       z     vdW  Elec       q    Type
REMARK                         _______ _______ _______ _____ _____    ______ ____
ROOT
ATOM      1  N   UNL     1       7.872   6.889  16.909  0.00  0.00    +0.000 N 
ATOM      2  C   UNL     1       6.770   6.094  16.636  0.00  0.00    +0.000 A 
ATOM      3  N   UNL     1       6.789   5.461  15.476  0.00  0.00    +0.000 NA
ATOM      4  C   UNL     1       5.686   4.807  15.143  0.00  0.00    +0.000 A 
ATOM      5  N   UNL     1       5.546   4.275  13.880  0.00  0.00    +0.000 N 
ATOM      6  N   UNL     1       4.639   4.671  15.939  0.00  0.00    +0.000 NA
ATOM      7  C   UNL     1       4.740   5.278  17.123  0.00  0.00    +0.000 A 
ATOM      8  N   UNL     1       5.777   6.023  17.506  0.00  0.00    +0.000 NA
ATOM      9  H   UNL     1       8.663   6.261  17.021  0.00  0.00    +0.000 HD
ATOM     10  H   UNL     1       4.742   3.662  13.851  0.00  0.00    +0.000 HD
ENDROOT
BRANCH   7  11
ATOM     11  C   UNL     1       3.637   5.102  18.103  0.00  0.00    +0.000 A 
ATOM     12  C   UNL     1       3.130   6.184  18.826  0.00  0.00    +0.000 A 
ATOM     13  C   UNL     1       2.102   5.980  19.740  0.00  0.00    +0.000 A 
ATOM     14  C   UNL     1       1.585   4.702  19.909  0.00  0.00    +0.000 A 
ATOM     15  C   UNL     1       2.115   3.651  19.161  0.00  0.00    +0.000 A 
ATOM     16  N   UNL     1       3.135   3.845  18.272  0.00  0.00    +0.000 NA
BRANCH  15  17
ATOM     17  C   UNL     1       1.543   2.247  19.322  0.00  0.00    +0.000 C 
ATOM     18  F   UNL     1       1.269   1.925  20.622  0.00  0.00    +0.000 F 
ATOM     19  F   UNL     1       0.369   2.068  18.652  0.00  0.00    +0.000 F 
ATOM     20  F   UNL     1       2.385   1.271  18.879  0.00  0.00    +0.000 F 
ENDBRANCH  15  17
ENDBRANCH   7  11
BRANCH   1  22
ATOM     21  C   UNL     1       8.484   7.434  19.178  0.00  0.00    +0.000 C 
ATOM     22  C   UNL     1       7.749   7.937  17.926  0.00  0.00    +0.000 C 
BRANCH  22  23
ATOM     23  C   UNL     1       8.378   9.249  17.408  0.00  0.00    +0.000 C 
BRANCH  23  24
ATOM     24  C   UNL     1       8.897  10.077  18.502  0.00  0.00    +0.000 C 
ATOM     25  N   UNL     1       9.303  10.746  19.360  0.00  0.00    +0.000 NA
ENDBRANCH  23  24
ENDBRANCH  22  23
ENDBRANCH   1  22
BRANCH   5  26
ATOM     26  C   UNL     1       6.713   3.898  13.107  0.00  0.00    +0.000 C 
ATOM     27  C   UNL     1       7.565   5.153  12.906  0.00  0.00    +0.000 C 
BRANCH  26  28
ATOM     28  C   UNL     1       6.272   3.333  11.779  0.00  0.00    +0.000 C 
ATOM     29  C   UNL     1       6.964   2.138  11.164  0.00  0.00    +0.000 C 
ATOM     30  C   UNL     1       5.575   1.994  11.717  0.00  0.00    +0.000 C 
ENDBRANCH  26  28
ENDBRANCH   5  26
TORSDOF 7
ENDMDL
MODEL 6
REMARK VINA RESULT:      -7.3      0.903      1.058
REMARK  Name = 
REMARK  9 active torsions:
REMARK  status: ('A' for Active; 'I' for Inactive)
REMARK    1  A    between atoms: C_1  and  C_2
REMARK    2  A    between atoms: C_2  and  C_3
REMARK    3  A    between atoms: C_2  and  N_6
REMARK    4  A    between atoms: C_3  and  C_4
REMARK    5  A    between atoms: N_10  and  C_11
REMARK    6  A    between atoms: C_11  and  C_12
REMARK    7  A    between atoms: C_11  and  C_13
REMARK    8  A    between atoms: C_17  and  C_18
REMARK    9  A    between atoms: C_22  and  C_23
REMARK                            x       y       z     vdW  Elec       q    Type
REMARK                         _______ _______ _______ _____ _____    ______ ____
ROOT
ATOM      1  N   UNL     1       7.937   5.274  17.529  0.00  0.00    +0.000 N 
ATOM      2  C   UNL     1       6.830   4.703  16.923  0.00  0.00    +0.000 A 
ATOM      3  N   UNL     1       6.929   4.492  15.623  0.00  0.00    +0.000 NA
ATOM      4  C   UNL     1       5.832   4.074  15.007  0.00  0.00    +0.000 A 
ATOM      5  N   UNL     1       5.788   4.004  13.632  0.00  0.00    +0.000 N 
ATOM      6  N   UNL     1       4.708   3.764  15.632  0.00  0.00    +0.000 NA
ATOM      7  C   UNL     1       4.725   3.934  16.955  0.00  0.00    +0.000 A 
ATOM      8  N   UNL     1       5.755   4.426  17.642  0.00  0.00    +0.000 NA
ATOM      9  H   UNL     1       8.682   4.585  17.480  0.00  0.00    +0.000 HD
ATOM     10  H   UNL     1       4.962   3.501  13.339  0.00  0.00    +0.000 HD
ENDROOT
BRANCH   7  11
ATOM     11  C   UNL     1       3.525   3.529  17.733  0.00  0.00    +0.000 A 
ATOM     12  C   UNL     1       2.821   2.364  17.425  0.00  0.00    +0.000 A 
ATOM     13  C   UNL     1       1.699   2.019  18.170  0.00  0.00    +0.000 A 
ATOM     14  C   UNL     1       1.304   2.837  19.221  0.00  0.00    +0.000 A 
ATOM     15  C   UNL     1       2.039   3.988  19.500  0.00  0.00    +0.000 A 
ATOM     16  N   UNL     1       3.135   4.336  18.761  0.00  0.00    +0.000 NA
BRANCH  15  17
ATOM     17  C   UNL     1       1.628   4.883  20.664  0.00  0.00    +0.000 C 
ATOM     18  F   UNL     1       2.102   6.161  20.551  0.00  0.00    +0.000 F 
ATOM     19  F   UNL     1       0.276   5.011  20.788  0.00  0.00    +0.000 F 
ATOM     20  F   UNL     1       2.080   4.437  21.870  0.00  0.00    +0.000 F 
ENDBRANCH  15  17
ENDBRANCH   7  11
BRANCH   1  22
ATOM     21  C   UNL     1       8.484   5.055  19.869  0.00  0.00    +0.000 C 
ATOM     22  C   UNL     1       7.769   5.931  18.828  0.00  0.00    +0.000 C 
BRANCH  22  23
ATOM     23  C   UNL     1       8.385   7.348  18.785  0.00  0.00    +0.000 C 
BRANCH  23  24
ATOM     24  C   UNL     1       7.712   8.208  17.807  0.00  0.00    +0.000 C 
ATOM     25  N   UNL     1       7.190   8.885  17.021  0.00  0.00    +0.000 NA
ENDBRANCH  23  24
ENDBRANCH  22  23
ENDBRANCH   1  22
BRANCH   5  26
ATOM     26  C   UNL     1       7.004   3.815  12.867  0.00  0.00    +0.000 C 
ATOM     27  C   UNL     1       7.626   5.193  12.630  0.00  0.00    +0.000 C 
BRANCH  26  28
ATOM     28  C   UNL     1       6.670   3.147  11.554  0.00  0.00    +0.000 C 
ATOM     29  C   UNL     1       6.932   1.675  11.332  0.00  0.00    +0.000 C 
ATOM     30  C   UNL     1       5.521   2.170  11.471  0.00  0.00    +0.000 C 
ENDBRANCH  26  28
ENDBRANCH   5  26
TORSDOF 7
ENDMDL
MODEL 7
REMARK VINA RESULT:      -7.3      1.093      1.421
REMARK  Name = 
REMARK  9 active torsions:
REMARK  status: ('A' for Active; 'I' for Inactive)
REMARK    1  A    between atoms: C_1  and  C_2
REMARK    2  A    between atoms: C_2  and  C_3
REMARK    3  A    between atoms: C_2  and  N_6
REMARK    4  A    between atoms: C_3  and  C_4
REMARK    5  A    between atoms: N_10  and  C_11
REMARK    6  A    between atoms: C_11  and  C_12
REMARK    7  A    between atoms: C_11  and  C_13
REMARK    8  A    between atoms: C_17  and  C_18
REMARK    9  A    between atoms: C_22  and  C_23
REMARK                            x       y       z     vdW  Elec       q    Type
REMARK                         _______ _______ _______ _____ _____    ______ ____
ROOT
ATOM      1  N   UNL     1       7.666   6.224  16.871  0.00  0.00    +0.000 N 
ATOM      2  C   UNL     1       6.634   5.418  16.420  0.00  0.00    +0.000 A 
ATOM      3  N   UNL     1       6.778   4.925  15.202  0.00  0.00    +0.000 NA
ATOM      4  C   UNL     1       5.742   4.266  14.706  0.00  0.00    +0.000 A 
ATOM      5  N   UNL     1       5.730   3.877  13.384  0.00  0.00    +0.000 N 
ATOM      6  N   UNL     1       4.644   3.991  15.392  0.00  0.00    +0.000 NA
ATOM      7  C   UNL     1       4.619   4.461  16.640  0.00  0.00    +0.000 A 
ATOM      8  N   UNL     1       5.581   5.202  17.189  0.00  0.00    +0.000 NA
ATOM      9  H   UNL     1       8.479   5.624  16.978  0.00  0.00    +0.000 HD
ATOM     10  H   UNL     1       4.965   3.237  13.220  0.00  0.00    +0.000 HD
ENDROOT
BRANCH   7  11
ATOM     11  C   UNL     1       3.454   4.122  17.498  0.00  0.00    +0.000 A 
ATOM     12  C   UNL     1       2.147   4.217  17.015  0.00  0.00    +0.000 A 
ATOM     13  C   UNL     1       1.080   3.899  17.848  0.00  0.00    +0.000 A 
ATOM     14  C   UNL     1       1.334   3.477  19.147  0.00  0.00    +0.000 A 
ATOM     15  C   UNL     1       2.654   3.389  19.587  0.00  0.00    +0.000 A 
ATOM     16  N   UNL     1       3.704   3.715  18.775  0.00  0.00    +0.000 NA
BRANCH  15  17
ATOM     17  C   UNL     1       2.947   2.909  21.003  0.00  0.00    +0.000 C 
ATOM     18  F   UNL     1       4.174   2.318  21.126  0.00  0.00    +0.000 F 
ATOM     19  F   UNL     1       2.940   3.917  21.922  0.00  0.00    +0.000 F 
ATOM     20  F   UNL     1       2.055   1.981  21.451  0.00  0.00    +0.000 F 
ENDBRANCH  15  17
ENDBRANCH   7  11
BRANCH   1  22
ATOM     21  C   UNL     1       8.366   6.748  19.120  0.00  0.00    +0.000 C 
ATOM     22  C   UNL     1       7.407   7.141  17.986  0.00  0.00    +0.000 C 
BRANCH  22  23
ATOM     23  C   UNL     1       7.653   8.598  17.537  0.00  0.00    +0.000 C 
BRANCH  23  24
ATOM     24  C   UNL     1       8.510   9.325  18.480  0.00  0.00    +0.000 C 
ATOM     25  N   UNL     1       9.185   9.914  19.218  0.00  0.00    +0.000 NA
ENDBRANCH  23  24
ENDBRANCH  22  23
ENDBRANCH   1  22
BRANCH   5  26
ATOM     26  C   UNL     1       6.973   3.646  12.675  0.00  0.00    +0.000 C 
ATOM     27  C   UNL     1       7.583   5.010  12.345  0.00  0.00    +0.000 C 
BRANCH  26  28
ATOM     28  C   UNL     1       6.690   2.867  11.413  0.00  0.00    +0.000 C 
ATOM     29  C   UNL     1       6.910   1.373  11.346  0.00  0.00    +0.000 C 
ATOM     30  C   UNL     1       5.513   1.923  11.351  0.00  0.00    +0.000 C 
ENDBRANCH  26  28
ENDBRANCH   5  26
TORSDOF 7
ENDMDL
MODEL 8
REMARK VINA RESULT:      -7.3      3.761      8.407
REMARK  Name = 
REMARK  9 active torsions:
REMARK  status: ('A' for Active; 'I' for Inactive)
REMARK    1  A    between atoms: C_1  and  C_2
REMARK    2  A    between atoms: C_2  and  C_3
REMARK    3  A    between atoms: C_2  and  N_6
REMARK    4  A    between atoms: C_3  and  C_4
REMARK    5  A    between atoms: N_10  and  C_11
REMARK    6  A    between atoms: C_11  and  C_12
REMARK    7  A    between atoms: C_11  and  C_13
REMARK    8  A    between atoms: C_17  and  C_18
REMARK    9  A    between atoms: C_22  and  C_23
REMARK                            x       y       z     vdW  Elec       q    Type
REMARK                         _______ _______ _______ _____ _____    ______ ____
ROOT
ATOM      1  N   UNL     1       1.416   4.580  20.824  0.00  0.00    +0.000 N 
ATOM      2  C   UNL     1       2.128   5.459  20.024  0.00  0.00    +0.000 A 
ATOM      3  N   UNL     1       1.592   6.657  19.865  0.00  0.00    +0.000 NA
ATOM      4  C   UNL     1       2.189   7.460  18.998  0.00  0.00    +0.000 A 
ATOM      5  N   UNL     1       1.601   8.651  18.631  0.00  0.00    +0.000 N 
ATOM      6  N   UNL     1       3.324   7.170  18.383  0.00  0.00    +0.000 NA
ATOM      7  C   UNL     1       3.834   5.970  18.664  0.00  0.00    +0.000 A 
ATOM      8  N   UNL     1       3.258   5.070  19.460  0.00  0.00    +0.000 NA
ATOM      9  H   UNL     1       1.447   4.955  21.768  0.00  0.00    +0.000 HD
ATOM     10  H   UNL     1       2.261   9.217  18.115  0.00  0.00    +0.000 HD
ENDROOT
BRANCH   7  11
ATOM     11  C   UNL     1       5.149   5.607  18.074  0.00  0.00    +0.000 A 
ATOM     12  C   UNL     1       6.308   5.575  18.852  0.00  0.00    +0.000 A 
ATOM     13  C   UNL     1       7.523   5.237  18.265  0.00  0.00    +0.000 A 
ATOM     14  C   UNL     1       7.560   4.924  16.913  0.00  0.00    +0.000 A 
ATOM     15  C   UNL     1       6.378   4.961  16.173  0.00  0.00    +0.000 A 
ATOM     16  N   UNL     1       5.186   5.305  16.745  0.00  0.00    +0.000 NA
BRANCH  15  17
ATOM     17  C   UNL     1       6.402   4.599  14.693  0.00  0.00    +0.000 C 
ATOM     18  F   UNL     1       6.612   3.267  14.469  0.00  0.00    +0.000 F 
ATOM     19  F   UNL     1       5.234   4.891  14.052  0.00  0.00    +0.000 F 
ATOM     20  F   UNL     1       7.386   5.240  14.000  0.00  0.00    +0.000 F 
ENDBRANCH  15  17
ENDBRANCH   7  11
BRANCH   1  22
ATOM     21  C   UNL     1       1.305   2.505  22.050  0.00  0.00    +0.000 C 
ATOM     22  C   UNL     1       1.687   3.144  20.706  0.00  0.00    +0.000 C 
BRANCH  22  23
ATOM     23  C   UNL     1       0.851   2.543  19.554  0.00  0.00    +0.000 C 
BRANCH  23  24
ATOM     24  C   UNL     1       1.643   2.378  18.331  0.00  0.00    +0.000 C 
ATOM     25  N   UNL     1       2.282   2.258  17.369  0.00  0.00    +0.000 NA
ENDBRANCH  23  24
ENDBRANCH  22  23
ENDBRANCH   1  22
BRANCH   5  26
ATOM     26  C   UNL     1       0.686   9.326  19.530  0.00  0.00    +0.000 C 
ATOM     27  C   UNL     1       0.036  10.476  18.758  0.00  0.00    +0.000 C 
BRANCH  26  28
ATOM     28  C   UNL     1       1.452   9.849  20.722  0.00  0.00    +0.000 C 
ATOM     29  C   UNL     1       0.754  10.591  21.839  0.00  0.00    +0.000 C 
ATOM     30  C   UNL     1       1.278   9.204  22.077  0.00  0.00    +0.000 C 
ENDBRANCH  26  28
ENDBRANCH   5  26
TORSDOF 7
ENDMDL
MODEL 9
REMARK VINA RESULT:      -7.2      3.069      5.984
REMARK  Name = 
REMARK  9 active torsions:
REMARK  status: ('A' for Active; 'I' for Inactive)
REMARK    1  A    between atoms: C_1  and  C_2
REMARK    2  A    between atoms: C_2  and  C_3
REMARK    3  A    between atoms: C_2  and  N_6
REMARK    4  A    between atoms: C_3  and  C_4
REMARK    5  A    between atoms: N_10  and  C_11
REMARK    6  A    between atoms: C_11  and  C_12
REMARK    7  A    between atoms: C_11  and  C_13
REMARK    8  A    between atoms: C_17  and  C_18
REMARK    9  A    between atoms: C_22  and  C_23
REMARK                            x       y       z     vdW  Elec       q    Type
REMARK                         _______ _______ _______ _____ _____    ______ ____
ROOT
ATOM      1  N   UNL     1       3.068   3.152  19.927  0.00  0.00    +0.000 N 
ATOM      2  C   UNL     1       3.369   4.367  19.332  0.00  0.00    +0.000 A 
ATOM      3  N   UNL     1       4.461   4.389  18.587  0.00  0.00    +0.000 NA
ATOM      4  C   UNL     1       4.835   5.572  18.124  0.00  0.00    +0.000 A 
ATOM      5  N   UNL     1       6.052   5.722  17.496  0.00  0.00    +0.000 N 
ATOM      6  N   UNL     1       4.130   6.681  18.276  0.00  0.00    +0.000 NA
ATOM      7  C   UNL     1       3.002   6.548  18.975  0.00  0.00    +0.000 A 
ATOM      8  N   UNL     1       2.593   5.415  19.545  0.00  0.00    +0.000 NA
ATOM      9  H   UNL     1       2.827   2.512  19.176  0.00  0.00    +0.000 HD
ATOM     10  H   UNL     1       6.100   6.627  17.049  0.00  0.00    +0.000 HD
ENDROOT
BRANCH   7  11
ATOM     11  C   UNL     1       2.117   7.734  19.117  0.00  0.00    +0.000 A 
ATOM     12  C   UNL     1       1.846   8.569  18.032  0.00  0.00    +0.000 A 
ATOM     13  C   UNL     1       1.018   9.674  18.203  0.00  0.00    +0.000 A 
ATOM     14  C   UNL     1       0.462   9.920  19.452  0.00  0.00    +0.000 A 
ATOM     15  C   UNL     1       0.753   9.056  20.507  0.00  0.00    +0.000 A 
ATOM     16  N   UNL     1       1.577   7.978  20.345  0.00  0.00    +0.000 NA
BRANCH  15  17
ATOM     17  C   UNL     1       0.134   9.304  21.878  0.00  0.00    +0.000 C 
ATOM     18  F   UNL     1      -0.459  10.531  21.985  0.00  0.00    +0.000 F 
ATOM     19  F   UNL     1      -0.841   8.404  22.195  0.00  0.00    +0.000 F 
ATOM     20  F   UNL     1       1.042   9.253  22.894  0.00  0.00    +0.000 F 
ENDBRANCH  15  17
ENDBRANCH   7  11
BRANCH   1  22
ATOM     21  C   UNL     1       2.451   4.413  21.889  0.00  0.00    +0.000 C 
ATOM     22  C   UNL     1       2.165   3.138  21.081  0.00  0.00    +0.000 C 
BRANCH  22  23
ATOM     23  C   UNL     1       0.697   3.108  20.601  0.00  0.00    +0.000 C 
BRANCH  23  24
ATOM     24  C   UNL     1       0.570   2.518  19.265  0.00  0.00    +0.000 C 
ATOM     25  N   UNL     1       0.473   2.065  18.201  0.00  0.00    +0.000 NA
ENDBRANCH  23  24
ENDBRANCH  22  23
ENDBRANCH   1  22
BRANCH   5  26
ATOM     26  C   UNL     1       6.676   4.599  16.824  0.00  0.00    +0.000 C 
ATOM     27  C   UNL     1       8.024   4.341  17.499  0.00  0.00    +0.000 C 
BRANCH  26  28
ATOM     28  C   UNL     1       6.865   4.933  15.364  0.00  0.00    +0.000 C 
ATOM     29  C   UNL     1       6.389   3.997  14.276  0.00  0.00    +0.000 C 
ATOM     30  C   UNL     1       5.674   5.297  14.509  0.00  0.00    +0.000 C 
ENDBRANCH  26  28
ENDBRANCH   5  26
TORSDOF 7
ENDMDL
