MODEL 1
REMARK VINA RESULT:      -8.0      0.000      0.000
REMARK  Name = 
REMARK  5 active torsions:
REMARK  status: ('A' for Active; 'I' for Inactive)
REMARK    1  A    between atoms: N_6  and  C_7
REMARK    2  A    between atoms: C_7  and  C_8
REMARK    3  A    between atoms: C_8  and  C_9
REMARK    4  A    between atoms: C_9  and  C_10
REMARK    5  A    between atoms: C_10  and  N_11
REMARK                            x       y       z     vdW  Elec       q    Type
REMARK                         _______ _______ _______ _____ _____    ______ ____
ROOT
ATOM      1  C   UNL     1       2.713   2.733  20.335  0.00  0.00    +0.000 C 
ENDROOT
BRANCH   1   2
ATOM      2  C   UNL     1       3.253   2.200  19.009  0.00  0.00    +0.000 C 
BRANCH   2   8
ATOM      3  C   UNL     1       7.455   6.816  17.408  0.00  0.00    +0.000 A 
ATOM      4  C   UNL     1       7.696   6.410  18.719  0.00  0.00    +0.000 A 
ATOM      5  C   UNL     1       6.919   5.406  19.293  0.00  0.00    +0.000 A 
ATOM      6  C   UNL     1       5.900   4.793  18.547  0.00  0.00    +0.000 A 
ATOM      7  C   UNL     1       5.103   3.792  19.097  0.00  0.00    +0.000 A 
ATOM      8  N   UNL     1       4.128   3.199  18.368  0.00  0.00    +0.000 N 
ATOM      9  C   UNL     1       3.908   3.561  17.083  0.00  0.00    +0.000 A 
ATOM     10  C   UNL     1       4.660   4.560  16.490  0.00  0.00    +0.000 A 
ATOM     11  C   UNL     1       5.666   5.193  17.216  0.00  0.00    +0.000 A 
ATOM     12  C   UNL     1       6.444   6.216  16.659  0.00  0.00    +0.000 A 
ENDBRANCH   2   8
ENDBRANCH   1   2
BRANCH   1  13
ATOM     13  C   UNL     1       1.724   3.896  20.157  0.00  0.00    +0.000 C 
BRANCH  13  14
ATOM     14  C   UNL     1       2.037   5.101  21.049  0.00  0.00    +0.000 C 
BRANCH  14  15
ATOM     15  N   UNL     1       1.989   6.343  20.254  0.00  0.00    +0.000 N 
ATOM     16  C   UNL     1       2.523   6.365  19.012  0.00  0.00    +0.000 A 
ATOM     17  C   UNL     1       2.487   7.521  18.249  0.00  0.00    +0.000 A 
ATOM     18  C   UNL     1       1.888   8.672  18.763  0.00  0.00    +0.000 A 
ATOM     19  C   UNL     1       1.800   9.851  18.012  0.00  0.00    +0.000 A 
ATOM     20  C   UNL     1       1.183  10.984  18.544  0.00  0.00    +0.000 A 
ATOM     21  C   UNL     1       0.665  10.958  19.837  0.00  0.00    +0.000 A 
ATOM     22  C   UNL     1       0.754   9.796  20.600  0.00  0.00    +0.000 A 
ATOM     23  C   UNL     1       1.353   8.645  20.065  0.00  0.00    +0.000 A 
ATOM     24  C   UNL     1       1.430   7.457  20.788  0.00  0.00    +0.000 A 
ENDBRANCH  14  15
ENDBRANCH  13  14
ENDBRANCH   1  13
TORSDOF 5
ENDMDL
MODEL 2
REMARK VINA RESULT:      -7.6      0.816      1.197
REMARK  Name = 
REMARK  5 active torsions:
REMARK  status: ('A' for Active; 'I' for Inactive)
REMARK    1  A    between atoms: N_6  and  C_7
REMARK    2  A    between atoms: C_7  and  C_8
REMARK    3  A    between atoms: C_8  and  C_9
REMARK    4  A    between atoms: C_9  and  C_10
REMARK    5  A    between atoms: C_10  and  N_11
REMARK                            x       y       z     vdW  Elec       q    Type
REMARK                         _______ _______ _______ _____ _____    ______ ____
ROOT
ATOM      1  C   UNL     1       1.573   2.679  20.561  0.00  0.00    +0.000 C 
ENDROOT
BRANCH   1   2
ATOM      2  C   UNL     1       3.099   2.590  20.580  0.00  0.00    +0.000 C 
BRANCH   2   8
ATOM      3  C   UNL     1       6.348   5.206  15.668  0.00  0.00    +0.000 A 
ATOM      4  C   UNL     1       7.073   5.383  16.845  0.00  0.00    +0.000 A 
ATOM      5  C   UNL     1       6.580   4.889  18.050  0.00  0.00    +0.000 A 
ATOM      6  C   UNL     1       5.356   4.201  18.079  0.00  0.00    +0.000 A 
ATOM      7  C   UNL     1       4.834   3.703  19.271  0.00  0.00    +0.000 A 
ATOM      8  N   UNL     1       3.658   3.033  19.289  0.00  0.00    +0.000 N 
ATOM      9  C   UNL     1       2.962   2.825  18.148  0.00  0.00    +0.000 A 
ATOM     10  C   UNL     1       3.425   3.311  16.937  0.00  0.00    +0.000 A 
ATOM     11  C   UNL     1       4.629   4.009  16.887  0.00  0.00    +0.000 A 
ATOM     12  C   UNL     1       5.131   4.527  15.686  0.00  0.00    +0.000 A 
ENDBRANCH   2   8
ENDBRANCH   1   2
BRANCH   1  13
ATOM     13  C   UNL     1       1.057   4.119  20.414  0.00  0.00    +0.000 C 
BRANCH  13  14
ATOM     14  C   UNL     1       1.987   5.164  21.036  0.00  0.00    +0.000 C 
BRANCH  14  15
ATOM     15  N   UNL     1       1.954   6.406  20.242  0.00  0.00    +0.000 N 
ATOM     16  C   UNL     1       2.484   6.421  18.998  0.00  0.00    +0.000 A 
ATOM     17  C   UNL     1       2.462   7.577  18.234  0.00  0.00    +0.000 A 
ATOM     18  C   UNL     1       1.880   8.736  18.750  0.00  0.00    +0.000 A 
ATOM     19  C   UNL     1       1.807   9.916  17.999  0.00  0.00    +0.000 A 
ATOM     20  C   UNL     1       1.207  11.057  18.532  0.00  0.00    +0.000 A 
ATOM     21  C   UNL     1       0.693  11.039  19.826  0.00  0.00    +0.000 A 
ATOM     22  C   UNL     1       0.767   9.876  20.590  0.00  0.00    +0.000 A 
ATOM     23  C   UNL     1       1.349   8.716  20.053  0.00  0.00    +0.000 A 
ATOM     24  C   UNL     1       1.412   7.528  20.777  0.00  0.00    +0.000 A 
ENDBRANCH  14  15
ENDBRANCH  13  14
ENDBRANCH   1  13
TORSDOF 5
ENDMDL
MODEL 3
REMARK VINA RESULT:      -7.5      1.529      7.040
REMARK  Name = 
REMARK  5 active torsions:
REMARK  status: ('A' for Active; 'I' for Inactive)
REMARK    1  A    between atoms: N_6  and  C_7
REMARK    2  A    between atoms: C_7  and  C_8
REMARK    3  A    between atoms: C_8  and  C_9
REMARK    4  A    between atoms: C_9  and  C_10
REMARK    5  A    between atoms: C_10  and  N_11
REMARK                            x       y       z     vdW  Elec       q    Type
REMARK                         _______ _______ _______ _____ _____    ______ ____
ROOT
ATOM      1  C   UNL     1       1.502   5.565  20.468  0.00  0.00    +0.000 C 
ENDROOT
BRANCH   1   2
ATOM      2  C   UNL     1       2.338   6.774  20.049  0.00  0.00    +0.000 C 
BRANCH   2   8
ATOM      3  C   UNL     1      -1.321  11.658  22.118  0.00  0.00    +0.000 A 
ATOM      4  C   UNL     1      -1.108  10.767  23.168  0.00  0.00    +0.000 A 
ATOM      5  C   UNL     1      -0.330   9.628  22.970  0.00  0.00    +0.000 A 
ATOM      6  C   UNL     1       0.250   9.383  21.715  0.00  0.00    +0.000 A 
ATOM      7  C   UNL     1       1.026   8.249  21.486  0.00  0.00    +0.000 A 
ATOM      8  N   UNL     1       1.590   8.024  20.277  0.00  0.00    +0.000 N 
ATOM      9  C   UNL     1       1.418   8.900  19.259  0.00  0.00    +0.000 A 
ATOM     10  C   UNL     1       0.645  10.036  19.426  0.00  0.00    +0.000 A 
ATOM     11  C   UNL     1       0.047  10.292  20.657  0.00  0.00    +0.000 A 
ATOM     12  C   UNL     1      -0.751  11.423  20.868  0.00  0.00    +0.000 A 
ENDBRANCH   2   8
ENDBRANCH   1   2
BRANCH   1  13
ATOM     13  C   UNL     1       2.328   4.482  21.181  0.00  0.00    +0.000 C 
BRANCH  13  14
ATOM     14  C   UNL     1       2.448   3.184  20.378  0.00  0.00    +0.000 C 
BRANCH  14  15
ATOM     15  N   UNL     1       3.254   3.415  19.164  0.00  0.00    +0.000 N 
ATOM     16  C   UNL     1       2.728   3.141  17.948  0.00  0.00    +0.000 A 
ATOM     17  C   UNL     1       3.467   3.352  16.795  0.00  0.00    +0.000 A 
ATOM     18  C   UNL     1       4.764   3.860  16.888  0.00  0.00    +0.000 A 
ATOM     19  C   UNL     1       5.532   4.120  15.746  0.00  0.00    +0.000 A 
ATOM     20  C   UNL     1       6.821   4.641  15.865  0.00  0.00    +0.000 A 
ATOM     21  C   UNL     1       7.364   4.890  17.123  0.00  0.00    +0.000 A 
ATOM     22  C   UNL     1       6.615   4.627  18.269  0.00  0.00    +0.000 A 
ATOM     23  C   UNL     1       5.310   4.123  18.158  0.00  0.00    +0.000 A 
ATOM     24  C   UNL     1       4.522   3.879  19.281  0.00  0.00    +0.000 A 
ENDBRANCH  14  15
ENDBRANCH  13  14
ENDBRANCH   1  13
TORSDOF 5
ENDMDL
MODEL 4
REMARK VINA RESULT:      -7.5      0.326      5.757
REMARK  Name = 
REMARK  5 active torsions:
REMARK  status: ('A' for Active; 'I' for Inactive)
REMARK    1  A    between atoms: N_6  and  C_7
REMARK    2  A    between atoms: C_7  and  C_8
REMARK    3  A    between atoms: C_8  and  C_9
REMARK    4  A    between atoms: C_9  and  C_10
REMARK    5  A    between atoms: C_10  and  N_11
REMARK                            x       y       z     vdW  Elec       q    Type
REMARK                         _______ _______ _______ _____ _____    ______ ____
ROOT
ATOM      1  C   UNL     1       1.856   4.132  19.591  0.00  0.00    +0.000 C 
ENDROOT
BRANCH   1   2
ATOM      2  C   UNL     1       2.124   5.215  20.634  0.00  0.00    +0.000 C 
BRANCH   2   8
ATOM      3  C   UNL     1       0.947  11.305  18.885  0.00  0.00    +0.000 A 
ATOM      4  C   UNL     1       0.469  11.097  20.177  0.00  0.00    +0.000 A 
ATOM      5  C   UNL     1       0.618   9.853  20.786  0.00  0.00    +0.000 A 
ATOM      6  C   UNL     1       1.262   8.809  20.102  0.00  0.00    +0.000 A 
ATOM      7  C   UNL     1       1.418   7.553  20.682  0.00  0.00    +0.000 A 
ATOM      8  N   UNL     1       2.048   6.554  20.021  0.00  0.00    +0.000 N 
ATOM      9  C   UNL     1       2.547   6.754  18.778  0.00  0.00    +0.000 A 
ATOM     10  C   UNL     1       2.407   7.977  18.147  0.00  0.00    +0.000 A 
ATOM     11  C   UNL     1       1.759   9.023  18.800  0.00  0.00    +0.000 A 
ATOM     12  C   UNL     1       1.586  10.274  18.197  0.00  0.00    +0.000 A 
ENDBRANCH   2   8
ENDBRANCH   1   2
BRANCH   1  13
ATOM     13  C   UNL     1       2.365   2.746  20.020  0.00  0.00    +0.000 C 
BRANCH  13  14
ATOM     14  C   UNL     1       3.415   2.164  19.070  0.00  0.00    +0.000 C 
BRANCH  14  15
ATOM     15  N   UNL     1       4.180   3.254  18.435  0.00  0.00    +0.000 N 
ATOM     16  C   UNL     1       3.846   3.671  17.192  0.00  0.00    +0.000 A 
ATOM     17  C   UNL     1       4.550   4.694  16.578  0.00  0.00    +0.000 A 
ATOM     18  C   UNL     1       5.610   5.306  17.250  0.00  0.00    +0.000 A 
ATOM     19  C   UNL     1       6.325   6.366  16.678  0.00  0.00    +0.000 A 
ATOM     20  C   UNL     1       7.371   6.970  17.377  0.00  0.00    +0.000 A 
ATOM     21  C   UNL     1       7.726   6.511  18.643  0.00  0.00    +0.000 A 
ATOM     22  C   UNL     1       7.031   5.450  19.220  0.00  0.00    +0.000 A 
ATOM     23  C   UNL     1       5.962   4.851  18.534  0.00  0.00    +0.000 A 
ATOM     24  C   UNL     1       5.225   3.811  19.095  0.00  0.00    +0.000 A 
ENDBRANCH  14  15
ENDBRANCH  13  14
ENDBRANCH   1  13
TORSDOF 5
ENDMDL
MODEL 5
REMARK VINA RESULT:      -7.4      1.633      4.112
REMARK  Name = 
REMARK  5 active torsions:
REMARK  status: ('A' for Active; 'I' for Inactive)
REMARK    1  A    between atoms: N_6  and  C_7
REMARK    2  A    between atoms: C_7  and  C_8
REMARK    3  A    between atoms: C_8  and  C_9
REMARK    4  A    between atoms: C_9  and  C_10
REMARK    5  A    between atoms: C_10  and  N_11
REMARK                            x       y       z     vdW  Elec       q    Type
REMARK                         _______ _______ _______ _____ _____    ______ ____
ROOT
ATOM      1  C   UNL     1       5.255   5.115  15.821  0.00  0.00    +0.000 C 
ENDROOT
BRANCH   1   2
ATOM      2  C   UNL     1       5.170   3.712  16.420  0.00  0.00    +0.000 C 
BRANCH   2   8
ATOM      3  C   UNL     1       1.080   2.752  21.307  0.00  0.00    +0.000 A 
ATOM      4  C   UNL     1       2.387   2.592  21.763  0.00  0.00    +0.000 A 
ATOM      5  C   UNL     1       3.458   2.763  20.888  0.00  0.00    +0.000 A 
ATOM      6  C   UNL     1       3.222   3.108  19.548  0.00  0.00    +0.000 A 
ATOM      7  C   UNL     1       4.273   3.278  18.649  0.00  0.00    +0.000 A 
ATOM      8  N   UNL     1       4.038   3.620  17.361  0.00  0.00    +0.000 N 
ATOM      9  C   UNL     1       2.775   3.813  16.915  0.00  0.00    +0.000 A 
ATOM     10  C   UNL     1       1.692   3.644  17.760  0.00  0.00    +0.000 A 
ATOM     11  C   UNL     1       1.901   3.286  19.090  0.00  0.00    +0.000 A 
ATOM     12  C   UNL     1       0.836   3.094  19.978  0.00  0.00    +0.000 A 
ENDBRANCH   2   8
ENDBRANCH   1   2
BRANCH   1  13
ATOM     13  C   UNL     1       5.245   6.225  16.885  0.00  0.00    +0.000 C 
BRANCH  13  14
ATOM     14  C   UNL     1       4.230   7.334  16.596  0.00  0.00    +0.000 C 
BRANCH  14  15
ATOM     15  N   UNL     1       3.355   7.535  17.766  0.00  0.00    +0.000 N 
ATOM     16  C   UNL     1       3.425   6.679  18.811  0.00  0.00    +0.000 A 
ATOM     17  C   UNL     1       2.613   6.851  19.920  0.00  0.00    +0.000 A 
ATOM     18  C   UNL     1       1.718   7.922  19.964  0.00  0.00    +0.000 A 
ATOM     19  C   UNL     1       0.904   8.151  21.081  0.00  0.00    +0.000 A 
ATOM     20  C   UNL     1       0.028   9.237  21.105  0.00  0.00    +0.000 A 
ATOM     21  C   UNL     1      -0.058  10.093  20.010  0.00  0.00    +0.000 A 
ATOM     22  C   UNL     1       0.738   9.872  18.888  0.00  0.00    +0.000 A 
ATOM     23  C   UNL     1       1.638   8.795  18.863  0.00  0.00    +0.000 A 
ATOM     24  C   UNL     1       2.472   8.563  17.771  0.00  0.00    +0.000 A 
ENDBRANCH  14  15
ENDBRANCH  13  14
ENDBRANCH   1  13
TORSDOF 5
ENDMDL
MODEL 6
REMARK VINA RESULT:      -7.3      4.631      7.573
REMARK  Name = 
REMARK  5 active torsions:
REMARK  status: ('A' for Active; 'I' for Inactive)
REMARK    1  A    between atoms: N_6  and  C_7
REMARK    2  A    between atoms: C_7  and  C_8
REMARK    3  A    between atoms: C_8  and  C_9
REMARK    4  A    between atoms: C_9  and  C_10
REMARK    5  A    between atoms: C_10  and  N_11
REMARK                            x       y       z     vdW  Elec       q    Type
REMARK                         _______ _______ _______ _____ _____    ______ ____
ROOT
ATOM      1  C   UNL     1       7.183   6.934  17.674  0.00  0.00    +0.000 C 
ENDROOT
BRANCH   1   2
ATOM      2  C   UNL     1       6.796   5.984  18.806  0.00  0.00    +0.000 C 
BRANCH   2   8
ATOM      3  C   UNL     1       1.136   2.913  18.543  0.00  0.00    +0.000 A 
ATOM      4  C   UNL     1       2.032   2.162  19.301  0.00  0.00    +0.000 A 
ATOM      5  C   UNL     1       3.328   2.627  19.514  0.00  0.00    +0.000 A 
ATOM      6  C   UNL     1       3.730   3.859  18.976  0.00  0.00    +0.000 A 
ATOM      7  C   UNL     1       5.021   4.346  19.166  0.00  0.00    +0.000 A 
ATOM      8  N   UNL     1       5.399   5.539  18.652  0.00  0.00    +0.000 N 
ATOM      9  C   UNL     1       4.527   6.294  17.943  0.00  0.00    +0.000 A 
ATOM     10  C   UNL     1       3.236   5.854  17.710  0.00  0.00    +0.000 A 
ATOM     11  C   UNL     1       2.820   4.627  18.222  0.00  0.00    +0.000 A 
ATOM     12  C   UNL     1       1.526   4.138  18.002  0.00  0.00    +0.000 A 
ENDBRANCH   2   8
ENDBRANCH   1   2
BRANCH   1  13
ATOM     13  C   UNL     1       8.250   7.960  18.090  0.00  0.00    +0.000 C 
BRANCH  13  14
ATOM     14  C   UNL     1       7.789   9.412  17.936  0.00  0.00    +0.000 C 
BRANCH  14  15
ATOM     15  N   UNL     1       8.821  10.327  18.458  0.00  0.00    +0.000 N 
ATOM     16  C   UNL     1       9.226  10.217  19.744  0.00  0.00    +0.000 A 
ATOM     17  C   UNL     1      10.195  11.066  20.254  0.00  0.00    +0.000 A 
ATOM     18  C   UNL     1      10.764  12.040  19.431  0.00  0.00    +0.000 A 
ATOM     19  C   UNL     1      11.771  12.896  19.898  0.00  0.00    +0.000 A 
ATOM     20  C   UNL     1      12.333  13.852  19.051  0.00  0.00    +0.000 A 
ATOM     21  C   UNL     1      11.885  13.977  17.739  0.00  0.00    +0.000 A 
ATOM     22  C   UNL     1      10.877  13.140  17.263  0.00  0.00    +0.000 A 
ATOM     23  C   UNL     1      10.321  12.160  18.101  0.00  0.00    +0.000 A 
ATOM     24  C   UNL     1       9.335  11.286  17.650  0.00  0.00    +0.000 A 
ENDBRANCH  14  15
ENDBRANCH  13  14
ENDBRANCH   1  13
TORSDOF 5
ENDMDL
MODEL 7
REMARK VINA RESULT:      -7.2      4.780      7.541
REMARK  Name = 
REMARK  5 active torsions:
REMARK  status: ('A' for Active; 'I' for Inactive)
REMARK    1  A    between atoms: N_6  and  C_7
REMARK    2  A    between atoms: C_7  and  C_8
REMARK    3  A    between atoms: C_8  and  C_9
REMARK    4  A    between atoms: C_9  and  C_10
REMARK    5  A    between atoms: C_10  and  N_11
REMARK                            x       y       z     vdW  Elec       q    Type
REMARK                         _______ _______ _______ _____ _____    ______ ____
ROOT
ATOM      1  C   UNL     1       8.161   8.207  18.707  0.00  0.00    +0.000 C 
ENDROOT
BRANCH   1   2
ATOM      2  C   UNL     1       8.243   9.437  17.804  0.00  0.00    +0.000 C 
BRANCH   2   8
ATOM      3  C   UNL     1      12.332  14.196  19.275  0.00  0.00    +0.000 A 
ATOM      4  C   UNL     1      12.067  14.224  17.907  0.00  0.00    +0.000 A 
ATOM      5  C   UNL     1      11.194  13.294  17.346  0.00  0.00    +0.000 A 
ATOM      6  C   UNL     1      10.571  12.335  18.160  0.00  0.00    +0.000 A 
ATOM      7  C   UNL     1       9.700  11.389  17.625  0.00  0.00    +0.000 A 
ATOM      8  N   UNL     1       9.095  10.472  18.417  0.00  0.00    +0.000 N 
ATOM      9  C   UNL     1       9.319  10.457  19.752  0.00  0.00    +0.000 A 
ATOM     10  C   UNL     1      10.185  11.364  20.335  0.00  0.00    +0.000 A 
ATOM     11  C   UNL     1      10.827  12.315  19.545  0.00  0.00    +0.000 A 
ATOM     12  C   UNL     1      11.720  13.246  20.092  0.00  0.00    +0.000 A 
ENDBRANCH   2   8
ENDBRANCH   1   2
BRANCH   1  13
ATOM     13  C   UNL     1       7.783   6.926  17.946  0.00  0.00    +0.000 C 
BRANCH  13  14
ATOM     14  C   UNL     1       7.370   5.774  18.865  0.00  0.00    +0.000 C 
BRANCH  14  15
ATOM     15  N   UNL     1       6.076   5.218  18.426  0.00  0.00    +0.000 N 
ATOM     16  C   UNL     1       5.908   4.850  17.135  0.00  0.00    +0.000 A 
ATOM     17  C   UNL     1       4.701   4.324  16.703  0.00  0.00    +0.000 A 
ATOM     18  C   UNL     1       3.651   4.165  17.608  0.00  0.00    +0.000 A 
ATOM     19  C   UNL     1       2.426   3.606  17.220  0.00  0.00    +0.000 A 
ATOM     20  C   UNL     1       1.397   3.445  18.148  0.00  0.00    +0.000 A 
ATOM     21  C   UNL     1       1.571   3.857  19.467  0.00  0.00    +0.000 A 
ATOM     22  C   UNL     1       2.780   4.425  19.866  0.00  0.00    +0.000 A 
ATOM     23  C   UNL     1       3.829   4.570  18.944  0.00  0.00    +0.000 A 
ATOM     24  C   UNL     1       5.061   5.103  19.316  0.00  0.00    +0.000 A 
ENDBRANCH  14  15
ENDBRANCH  13  14
ENDBRANCH   1  13
TORSDOF 5
ENDMDL
MODEL 8
REMARK VINA RESULT:      -7.2      1.551      2.836
REMARK  Name = 
REMARK  5 active torsions:
REMARK  status: ('A' for Active; 'I' for Inactive)
REMARK    1  A    between atoms: N_6  and  C_7
REMARK    2  A    between atoms: C_7  and  C_8
REMARK    3  A    between atoms: C_8  and  C_9
REMARK    4  A    between atoms: C_9  and  C_10
REMARK    5  A    between atoms: C_10  and  N_11
REMARK                            x       y       z     vdW  Elec       q    Type
REMARK                         _______ _______ _______ _____ _____    ______ ____
ROOT
ATOM      1  C   UNL     1       2.313   4.489  20.299  0.00  0.00    +0.000 C 
ENDROOT
BRANCH   1   2
ATOM      2  C   UNL     1       2.857   3.351  19.437  0.00  0.00    +0.000 C 
BRANCH   2   8
ATOM      3  C   UNL     1       7.228   4.811  14.932  0.00  0.00    +0.000 A 
ATOM      4  C   UNL     1       6.050   4.399  14.313  0.00  0.00    +0.000 A 
ATOM      5  C   UNL     1       4.945   4.041  15.082  0.00  0.00    +0.000 A 
ATOM      6  C   UNL     1       5.014   4.104  16.482  0.00  0.00    +0.000 A 
ATOM      7  C   UNL     1       3.927   3.744  17.277  0.00  0.00    +0.000 A 
ATOM      8  N   UNL     1       3.998   3.816  18.627  0.00  0.00    +0.000 N 
ATOM      9  C   UNL     1       5.126   4.247  19.239  0.00  0.00    +0.000 A 
ATOM     10  C   UNL     1       6.240   4.604  18.500  0.00  0.00    +0.000 A 
ATOM     11  C   UNL     1       6.200   4.534  17.109  0.00  0.00    +0.000 A 
ATOM     12  C   UNL     1       7.307   4.875  16.322  0.00  0.00    +0.000 A 
ENDBRANCH   2   8
ENDBRANCH   1   2
BRANCH   1  13
ATOM     13  C   UNL     1       1.722   5.641  19.470  0.00  0.00    +0.000 C 
BRANCH  13  14
ATOM     14  C   UNL     1       2.577   6.911  19.501  0.00  0.00    +0.000 C 
BRANCH  14  15
ATOM     15  N   UNL     1       1.747   8.069  19.883  0.00  0.00    +0.000 N 
ATOM     16  C   UNL     1       1.503   9.046  18.981  0.00  0.00    +0.000 A 
ATOM     17  C   UNL     1       0.725  10.142  19.319  0.00  0.00    +0.000 A 
ATOM     18  C   UNL     1       0.181  10.235  20.602  0.00  0.00    +0.000 A 
ATOM     19  C   UNL     1      -0.639  11.308  20.974  0.00  0.00    +0.000 A 
ATOM     20  C   UNL     1      -1.181  11.371  22.258  0.00  0.00    +0.000 A 
ATOM     21  C   UNL     1      -0.896  10.375  23.189  0.00  0.00    +0.000 A 
ATOM     22  C   UNL     1      -0.074   9.306  22.837  0.00  0.00    +0.000 A 
ATOM     23  C   UNL     1       0.458   9.223  21.540  0.00  0.00    +0.000 A 
ATOM     24  C   UNL     1       1.257   8.153  21.144  0.00  0.00    +0.000 A 
ENDBRANCH  14  15
ENDBRANCH  13  14
ENDBRANCH   1  13
TORSDOF 5
ENDMDL
MODEL 9
REMARK VINA RESULT:      -7.1      4.492      7.352
REMARK  Name = 
REMARK  5 active torsions:
REMARK  status: ('A' for Active; 'I' for Inactive)
REMARK    1  A    between atoms: N_6  and  C_7
REMARK    2  A    between atoms: C_7  and  C_8
REMARK    3  A    between atoms: C_8  and  C_9
REMARK    4  A    between atoms: C_9  and  C_10
REMARK    5  A    between atoms: C_10  and  N_11
REMARK                            x       y       z     vdW  Elec       q    Type
REMARK                         _______ _______ _______ _____ _____    ______ ____
ROOT
ATOM      1  C   UNL     1       8.065   7.675  18.304  0.00  0.00    +0.000 C 
ENDROOT
BRANCH   1   2
ATOM      2  C   UNL     1       7.990   8.993  17.535  0.00  0.00    +0.000 C 
BRANCH   2   8
ATOM      3  C   UNL     1      10.667  14.387  19.831  0.00  0.00    +0.000 A 
ATOM      4  C   UNL     1      10.099  14.650  18.586  0.00  0.00    +0.000 A 
ATOM      5  C   UNL     1       9.444  13.636  17.889  0.00  0.00    +0.000 A 
ATOM      6  C   UNL     1       9.346  12.351  18.446  0.00  0.00    +0.000 A 
ATOM      7  C   UNL     1       8.704  11.317  17.768  0.00  0.00    +0.000 A 
ATOM      8  N   UNL     1       8.605  10.083  18.315  0.00  0.00    +0.000 N 
ATOM      9  C   UNL     1       9.124   9.824  19.539  0.00  0.00    +0.000 A 
ATOM     10  C   UNL     1       9.785  10.810  20.250  0.00  0.00    +0.000 A 
ATOM     11  C   UNL     1       9.908  12.088  19.711  0.00  0.00    +0.000 A 
ATOM     12  C   UNL     1      10.577  13.113  20.391  0.00  0.00    +0.000 A 
ENDBRANCH   2   8
ENDBRANCH   1   2
BRANCH   1  13
ATOM     13  C   UNL     1       7.433   6.498  17.543  0.00  0.00    +0.000 C 
BRANCH  13  14
ATOM     14  C   UNL     1       6.246   6.909  16.668  0.00  0.00    +0.000 C 
BRANCH  14  15
ATOM     15  N   UNL     1       5.017   6.244  17.141  0.00  0.00    +0.000 N 
ATOM     16  C   UNL     1       3.985   6.988  17.599  0.00  0.00    +0.000 A 
ATOM     17  C   UNL     1       2.821   6.383  18.047  0.00  0.00    +0.000 A 
ATOM     18  C   UNL     1       2.710   4.992  18.019  0.00  0.00    +0.000 A 
ATOM     19  C   UNL     1       1.539   4.343  18.430  0.00  0.00    +0.000 A 
ATOM     20  C   UNL     1       1.447   2.952  18.380  0.00  0.00    +0.000 A 
ATOM     21  C   UNL     1       2.528   2.193  17.936  0.00  0.00    +0.000 A 
ATOM     22  C   UNL     1       3.704   2.824  17.533  0.00  0.00    +0.000 A 
ATOM     23  C   UNL     1       3.797   4.225  17.560  0.00  0.00    +0.000 A 
ATOM     24  C   UNL     1       4.945   4.890  17.135  0.00  0.00    +0.000 A 
ENDBRANCH  14  15
ENDBRANCH  13  14
ENDBRANCH   1  13
TORSDOF 5
ENDMDL
