MODEL 1
REMARK VINA RESULT:      -6.9      0.000      0.000
REMARK  Name = 
REMARK  5 active torsions:
REMARK  status: ('A' for Active; 'I' for Inactive)
REMARK    1  A    between atoms: C_2  and  C_3
REMARK    2  A    between atoms: C_3  and  C_20
REMARK    3  A    between atoms: C_4  and  C_5
REMARK    4  A    between atoms: C_8  and  N_9
REMARK    5  A    between atoms: C_15  and  N_16
REMARK                            x       y       z     vdW  Elec       q    Type
REMARK                         _______ _______ _______ _____ _____    ______ ____
ROOT
ATOM      1  C   UNL     1       2.752   6.689  19.420  0.00  0.00    +0.000 A 
ATOM      2  C   UNL     1       2.653   7.276  18.163  0.00  0.00    +0.000 A 
ATOM      3  C   UNL     1       1.932   8.472  17.984  0.00  0.00    +0.000 A 
ATOM      4  C   UNL     1       1.248   9.132  19.029  0.00  0.00    +0.000 A 
ATOM      5  C   UNL     1       1.381   8.496  20.283  0.00  0.00    +0.000 A 
ATOM      6  C   UNL     1       2.127   7.312  20.492  0.00  0.00    +0.000 A 
ENDROOT
BRANCH   4   7
ATOM      7  N   UNL     1       0.512  10.275  18.757  0.00  0.00    +0.000 N 
ATOM      8  C   UNL     1       1.021  11.661  18.860  0.00  0.00    +0.000 C 
ATOM      9  C   UNL     1      -0.008  12.528  19.610  0.00  0.00    +0.000 C 
ATOM     10  O   UNL     1      -1.286  12.505  18.947  0.00  0.00    +0.000 OA
ATOM     11  C   UNL     1      -1.781  11.159  18.873  0.00  0.00    +0.000 C 
ATOM     12  C   UNL     1      -0.815  10.243  18.101  0.00  0.00    +0.000 C 
ENDBRANCH   4   7
BRANCH   5  13
ATOM     13  N   UNL     1       0.642   8.934  21.449  0.00  0.00    +0.000 N 
ATOM     14  O   UNL     1       1.192   9.748  22.204  0.00  0.00    +0.000 OA
ATOM     15  O   UNL     1      -0.512   8.501  21.581  0.00  0.00    +0.000 OA
ENDBRANCH   5  13
BRANCH   1  17
ATOM     16  C   UNL     1       2.977   4.168  19.487  0.00  0.00    +0.000 C 
ATOM     17  C   UNL     1       3.467   5.420  19.607  0.00  0.00    +0.000 C 
BRANCH  16  18
ATOM     18  C   UNL     1       1.557   3.896  19.103  0.00  0.00    +0.000 C 
ATOM     19  N   UNL     1       0.659   3.701  20.116  0.00  0.00    +0.000 N 
ATOM     20  O   UNL     1       1.155   3.831  17.946  0.00  0.00    +0.000 OA
ATOM     21  H   UNL     1       0.870   3.712  21.105  0.00  0.00    +0.000 HD
ATOM     22  H   UNL     1      -0.293   3.495  19.840  0.00  0.00    +0.000 HD
ENDBRANCH  16  18
BRANCH  16  24
ATOM     23  N   UNL     1       4.576   2.187  19.938  0.00  0.00    +0.000 NA
ATOM     24  C   UNL     1       3.848   3.071  19.731  0.00  0.00    +0.000 C 
ENDBRANCH  16  24
ENDBRANCH   1  17
TORSDOF 5
ENDMDL
MODEL 2
REMARK VINA RESULT:      -6.7      0.585      1.179
REMARK  Name = 
REMARK  5 active torsions:
REMARK  status: ('A' for Active; 'I' for Inactive)
REMARK    1  A    between atoms: C_2  and  C_3
REMARK    2  A    between atoms: C_3  and  C_20
REMARK    3  A    between atoms: C_4  and  C_5
REMARK    4  A    between atoms: C_8  and  N_9
REMARK    5  A    between atoms: C_15  and  N_16
REMARK                            x       y       z     vdW  Elec       q    Type
REMARK                         _______ _______ _______ _____ _____    ______ ____
ROOT
ATOM      1  C   UNL     1       2.621   6.908  19.557  0.00  0.00    +0.000 A 
ATOM      2  C   UNL     1       2.491   7.624  18.371  0.00  0.00    +0.000 A 
ATOM      3  C   UNL     1       1.706   8.792  18.319  0.00  0.00    +0.000 A 
ATOM      4  C   UNL     1       0.985   9.295  19.425  0.00  0.00    +0.000 A 
ATOM      5  C   UNL     1       1.152   8.532  20.603  0.00  0.00    +0.000 A 
ATOM      6  C   UNL     1       1.961   7.375  20.686  0.00  0.00    +0.000 A 
ENDROOT
BRANCH   4   7
ATOM      7  N   UNL     1       0.188  10.418  19.275  0.00  0.00    +0.000 N 
ATOM      8  C   UNL     1      -1.250  10.404  18.923  0.00  0.00    +0.000 C 
ATOM      9  C   UNL     1      -1.515  11.442  17.816  0.00  0.00    +0.000 C 
ATOM     10  O   UNL     1      -1.109  12.759  18.233  0.00  0.00    +0.000 OA
ATOM     11  C   UNL     1       0.292  12.767  18.549  0.00  0.00    +0.000 C 
ATOM     12  C   UNL     1       0.623  11.775  19.679  0.00  0.00    +0.000 C 
ENDBRANCH   4   7
BRANCH   5  13
ATOM     13  N   UNL     1       0.388   8.799  21.804  0.00  0.00    +0.000 N 
ATOM     14  O   UNL     1       0.871   9.589  22.628  0.00  0.00    +0.000 OA
ATOM     15  O   UNL     1      -0.722   8.256  21.899  0.00  0.00    +0.000 OA
ENDBRANCH   5  13
BRANCH   1  17
ATOM     16  C   UNL     1       2.972   4.406  19.398  0.00  0.00    +0.000 C 
ATOM     17  C   UNL     1       3.403   5.668  19.608  0.00  0.00    +0.000 C 
BRANCH  16  18
ATOM     18  C   UNL     1       1.553   4.094  19.041  0.00  0.00    +0.000 C 
ATOM     19  N   UNL     1       0.682   3.866  20.070  0.00  0.00    +0.000 N 
ATOM     20  O   UNL     1       1.129   4.023  17.892  0.00  0.00    +0.000 OA
ATOM     21  H   UNL     1       0.913   3.878  21.056  0.00  0.00    +0.000 HD
ATOM     22  H   UNL     1      -0.269   3.633  19.813  0.00  0.00    +0.000 HD
ENDBRANCH  16  18
BRANCH  16  24
ATOM     23  N   UNL     1       4.667   2.469  19.634  0.00  0.00    +0.000 NA
ATOM     24  C   UNL     1       3.904   3.339  19.516  0.00  0.00    +0.000 C 
ENDBRANCH  16  24
ENDBRANCH   1  17
TORSDOF 5
ENDMDL
MODEL 3
REMARK VINA RESULT:      -6.1      0.863      1.086
REMARK  Name = 
REMARK  5 active torsions:
REMARK  status: ('A' for Active; 'I' for Inactive)
REMARK    1  A    between atoms: C_2  and  C_3
REMARK    2  A    between atoms: C_3  and  C_20
REMARK    3  A    between atoms: C_4  and  C_5
REMARK    4  A    between atoms: C_8  and  N_9
REMARK    5  A    between atoms: C_15  and  N_16
REMARK                            x       y       z     vdW  Elec       q    Type
REMARK                         _______ _______ _______ _____ _____    ______ ____
ROOT
ATOM      1  C   UNL     1       2.865   6.586  19.488  0.00  0.00    +0.000 A 
ATOM      2  C   UNL     1       2.830   7.131  18.209  0.00  0.00    +0.000 A 
ATOM      3  C   UNL     1       2.114   8.316  17.952  0.00  0.00    +0.000 A 
ATOM      4  C   UNL     1       1.369   9.004  18.935  0.00  0.00    +0.000 A 
ATOM      5  C   UNL     1       1.438   8.410  20.216  0.00  0.00    +0.000 A 
ATOM      6  C   UNL     1       2.178   7.240  20.503  0.00  0.00    +0.000 A 
ENDROOT
BRANCH   4   7
ATOM      7  N   UNL     1       0.643  10.131  18.586  0.00  0.00    +0.000 N 
ATOM      8  C   UNL     1       1.149  11.522  18.639  0.00  0.00    +0.000 C 
ATOM      9  C   UNL     1       0.097  12.423  19.314  0.00  0.00    +0.000 C 
ATOM     10  O   UNL     1      -1.159  12.367  18.613  0.00  0.00    +0.000 OA
ATOM     11  C   UNL     1      -1.652  11.018  18.587  0.00  0.00    +0.000 C 
ATOM     12  C   UNL     1      -0.663  10.067  17.891  0.00  0.00    +0.000 C 
ENDBRANCH   4   7
BRANCH   5  13
ATOM     13  N   UNL     1       0.634   8.880  21.324  0.00  0.00    +0.000 N 
ATOM     14  O   UNL     1      -0.432   8.290  21.550  0.00  0.00    +0.000 OA
ATOM     15  O   UNL     1       1.095   9.810  22.002  0.00  0.00    +0.000 OA
ENDBRANCH   5  13
BRANCH   1  17
ATOM     16  C   UNL     1       3.319   4.108  19.242  0.00  0.00    +0.000 C 
ATOM     17  C   UNL     1       3.575   5.330  19.755  0.00  0.00    +0.000 C 
BRANCH  16  18
ATOM     18  C   UNL     1       2.221   3.868  18.256  0.00  0.00    +0.000 C 
ATOM     19  N   UNL     1       2.583   3.519  16.984  0.00  0.00    +0.000 N 
ATOM     20  O   UNL     1       1.026   3.971  18.514  0.00  0.00    +0.000 OA
ATOM     21  H   UNL     1       3.531   3.420  16.645  0.00  0.00    +0.000 HD
ATOM     22  H   UNL     1       1.830   3.384  16.322  0.00  0.00    +0.000 HD
ENDBRANCH  16  18
BRANCH  16  24
ATOM     23  N   UNL     1       4.777   2.115  20.007  0.00  0.00    +0.000 NA
ATOM     24  C   UNL     1       4.129   3.014  19.654  0.00  0.00    +0.000 C 
ENDBRANCH  16  24
ENDBRANCH   1  17
TORSDOF 5
ENDMDL
MODEL 4
REMARK VINA RESULT:      -6.0      1.678      2.021
REMARK  Name = 
REMARK  5 active torsions:
REMARK  status: ('A' for Active; 'I' for Inactive)
REMARK    1  A    between atoms: C_2  and  C_3
REMARK    2  A    between atoms: C_3  and  C_20
REMARK    3  A    between atoms: C_4  and  C_5
REMARK    4  A    between atoms: C_8  and  N_9
REMARK    5  A    between atoms: C_15  and  N_16
REMARK                            x       y       z     vdW  Elec       q    Type
REMARK                         _______ _______ _______ _____ _____    ______ ____
ROOT
ATOM      1  C   UNL     1       2.494   6.170  19.434  0.00  0.00    +0.000 A 
ATOM      2  C   UNL     1       2.559   6.776  18.184  0.00  0.00    +0.000 A 
ATOM      3  C   UNL     1       2.122   8.103  18.006  0.00  0.00    +0.000 A 
ATOM      4  C   UNL     1       1.572   8.888  19.044  0.00  0.00    +0.000 A 
ATOM      5  C   UNL     1       1.530   8.225  20.292  0.00  0.00    +0.000 A 
ATOM      6  C   UNL     1       1.992   6.905  20.500  0.00  0.00    +0.000 A 
ENDROOT
BRANCH   4   7
ATOM      7  N   UNL     1       1.112  10.166  18.773  0.00  0.00    +0.000 N 
ATOM      8  C   UNL     1       1.968  11.328  18.443  0.00  0.00    +0.000 C 
ATOM      9  C   UNL     1       1.513  12.547  19.268  0.00  0.00    +0.000 C 
ATOM     10  O   UNL     1       0.128  12.852  19.021  0.00  0.00    +0.000 OA
ATOM     11  C   UNL     1      -0.695  11.727  19.366  0.00  0.00    +0.000 C 
ATOM     12  C   UNL     1      -0.318  10.478  18.548  0.00  0.00    +0.000 C 
ENDBRANCH   4   7
BRANCH   5  13
ATOM     13  N   UNL     1       0.874   8.803  21.446  0.00  0.00    +0.000 N 
ATOM     14  O   UNL     1       1.537   9.571  22.158  0.00  0.00    +0.000 OA
ATOM     15  O   UNL     1      -0.324   8.529  21.611  0.00  0.00    +0.000 OA
ENDBRANCH   5  13
BRANCH   1  17
ATOM     16  C   UNL     1       4.125   4.234  19.394  0.00  0.00    +0.000 C 
ATOM     17  C   UNL     1       2.908   4.774  19.618  0.00  0.00    +0.000 C 
BRANCH  16  18
ATOM     18  C   UNL     1       5.287   5.048  18.920  0.00  0.00    +0.000 C 
ATOM     19  N   UNL     1       5.488   5.129  17.570  0.00  0.00    +0.000 N 
ATOM     20  O   UNL     1       6.068   5.634  19.663  0.00  0.00    +0.000 OA
ATOM     21  H   UNL     1       4.927   4.677  16.860  0.00  0.00    +0.000 HD
ATOM     22  H   UNL     1       6.293   5.663  17.265  0.00  0.00    +0.000 HD
ENDBRANCH  16  18
BRANCH  16  24
ATOM     23  N   UNL     1       4.460   1.701  19.791  0.00  0.00    +0.000 NA
ATOM     24  C   UNL     1       4.305   2.842  19.624  0.00  0.00    +0.000 C 
ENDBRANCH  16  24
ENDBRANCH   1  17
TORSDOF 5
ENDMDL
MODEL 5
REMARK VINA RESULT:      -6.0      1.113      1.346
REMARK  Name = 
REMARK  5 active torsions:
REMARK  status: ('A' for Active; 'I' for Inactive)
REMARK    1  A    between atoms: C_2  and  C_3
REMARK    2  A    between atoms: C_3  and  C_20
REMARK    3  A    between atoms: C_4  and  C_5
REMARK    4  A    between atoms: C_8  and  N_9
REMARK    5  A    between atoms: C_15  and  N_16
REMARK                            x       y       z     vdW  Elec       q    Type
REMARK                         _______ _______ _______ _____ _____    ______ ____
ROOT
ATOM      1  C   UNL     1       2.683   7.294  18.646  0.00  0.00    +0.000 A 
ATOM      2  C   UNL     1       2.390   8.211  17.642  0.00  0.00    +0.000 A 
ATOM      3  C   UNL     1       1.571   9.325  17.904  0.00  0.00    +0.000 A 
ATOM      4  C   UNL     1       0.973   9.575  19.160  0.00  0.00    +0.000 A 
ATOM      5  C   UNL     1       1.303   8.615  20.144  0.00  0.00    +0.000 A 
ATOM      6  C   UNL     1       2.150   7.506  19.911  0.00  0.00    +0.000 A 
ENDROOT
BRANCH   4   7
ATOM      7  N   UNL     1       0.132  10.664  19.319  0.00  0.00    +0.000 N 
ATOM      8  C   UNL     1       0.271  11.704  20.364  0.00  0.00    +0.000 C 
ATOM      9  C   UNL     1      -1.102  11.966  21.010  0.00  0.00    +0.000 C 
ATOM     10  O   UNL     1      -2.071  12.365  20.023  0.00  0.00    +0.000 OA
ATOM     11  C   UNL     1      -2.216  11.340  19.028  0.00  0.00    +0.000 C 
ATOM     12  C   UNL     1      -0.883  11.053  18.314  0.00  0.00    +0.000 C 
ENDBRANCH   4   7
BRANCH   5  13
ATOM     13  N   UNL     1       0.682   8.612  21.451  0.00  0.00    +0.000 N 
ATOM     14  O   UNL     1      -0.484   8.199  21.532  0.00  0.00    +0.000 OA
ATOM     15  O   UNL     1       1.381   8.975  22.409  0.00  0.00    +0.000 OA
ENDBRANCH   5  13
BRANCH   1  17
ATOM     16  C   UNL     1       3.085   4.836  18.190  0.00  0.00    +0.000 C 
ATOM     17  C   UNL     1       3.502   6.108  18.370  0.00  0.00    +0.000 C 
BRANCH  16  18
ATOM     18  C   UNL     1       1.639   4.454  18.231  0.00  0.00    +0.000 C 
ATOM     19  N   UNL     1       1.122   4.083  19.441  0.00  0.00    +0.000 N 
ATOM     20  O   UNL     1       0.900   4.445  17.252  0.00  0.00    +0.000 OA
ATOM     21  H   UNL     1       1.632   4.032  20.313  0.00  0.00    +0.000 HD
ATOM     22  H   UNL     1       0.148   3.803  19.448  0.00  0.00    +0.000 HD
ENDBRANCH  16  18
BRANCH  16  24
ATOM     23  N   UNL     1       4.849   2.994  17.770  0.00  0.00    +0.000 NA
ATOM     24  C   UNL     1       4.059   3.829  17.949  0.00  0.00    +0.000 C 
ENDBRANCH  16  24
ENDBRANCH   1  17
TORSDOF 5
ENDMDL
MODEL 6
REMARK VINA RESULT:      -5.9      2.164      7.126
REMARK  Name = 
REMARK  5 active torsions:
REMARK  status: ('A' for Active; 'I' for Inactive)
REMARK    1  A    between atoms: C_2  and  C_3
REMARK    2  A    between atoms: C_3  and  C_20
REMARK    3  A    between atoms: C_4  and  C_5
REMARK    4  A    between atoms: C_8  and  N_9
REMARK    5  A    between atoms: C_15  and  N_16
REMARK                            x       y       z     vdW  Elec       q    Type
REMARK                         _______ _______ _______ _____ _____    ______ ____
ROOT
ATOM      1  C   UNL     1       1.701   7.701  20.307  0.00  0.00    +0.000 A 
ATOM      2  C   UNL     1       2.501   7.701  19.170  0.00  0.00    +0.000 A 
ATOM      3  C   UNL     1       2.957   6.492  18.612  0.00  0.00    +0.000 A 
ATOM      4  C   UNL     1       2.673   5.223  19.165  0.00  0.00    +0.000 A 
ATOM      5  C   UNL     1       1.857   5.279  20.318  0.00  0.00    +0.000 A 
ATOM      6  C   UNL     1       1.361   6.480  20.876  0.00  0.00    +0.000 A 
ENDROOT
BRANCH   4   7
ATOM      7  N   UNL     1       3.210   4.084  18.588  0.00  0.00    +0.000 N 
ATOM      8  C   UNL     1       2.755   3.476  17.317  0.00  0.00    +0.000 C 
ATOM      9  C   UNL     1       2.601   1.955  17.504  0.00  0.00    +0.000 C 
ATOM     10  O   UNL     1       3.838   1.359  17.936  0.00  0.00    +0.000 OA
ATOM     11  C   UNL     1       4.258   1.938  19.181  0.00  0.00    +0.000 C 
ATOM     12  C   UNL     1       4.468   3.458  19.056  0.00  0.00    +0.000 C 
ENDBRANCH   4   7
BRANCH   5  13
ATOM     13  N   UNL     1       1.570   4.104  21.113  0.00  0.00    +0.000 N 
ATOM     14  O   UNL     1       0.653   3.362  20.731  0.00  0.00    +0.000 OA
ATOM     15  O   UNL     1       2.300   3.893  22.093  0.00  0.00    +0.000 OA
ENDBRANCH   5  13
BRANCH   1  17
ATOM     16  C   UNL     1       0.829  10.078  20.294  0.00  0.00    +0.000 C 
ATOM     17  C   UNL     1       1.256   8.959  20.917  0.00  0.00    +0.000 C 
BRANCH  16  18
ATOM     18  C   UNL     1       0.728  10.175  18.804  0.00  0.00    +0.000 C 
ATOM     19  N   UNL     1       1.728  10.839  18.149  0.00  0.00    +0.000 N 
ATOM     20  O   UNL     1      -0.193   9.707  18.143  0.00  0.00    +0.000 OA
ATOM     21  H   UNL     1       2.528  11.282  18.582  0.00  0.00    +0.000 HD
ATOM     22  H   UNL     1       1.634  10.917  17.144  0.00  0.00    +0.000 HD
ENDBRANCH  16  18
BRANCH  16  24
ATOM     23  N   UNL     1       0.172  12.112  21.747  0.00  0.00    +0.000 NA
ATOM     24  C   UNL     1       0.459  11.199  21.085  0.00  0.00    +0.000 C 
ENDBRANCH  16  24
ENDBRANCH   1  17
TORSDOF 5
ENDMDL
MODEL 7
REMARK VINA RESULT:      -5.9      4.713      7.124
REMARK  Name = 
REMARK  5 active torsions:
REMARK  status: ('A' for Active; 'I' for Inactive)
REMARK    1  A    between atoms: C_2  and  C_3
REMARK    2  A    between atoms: C_3  and  C_20
REMARK    3  A    between atoms: C_4  and  C_5
REMARK    4  A    between atoms: C_8  and  N_9
REMARK    5  A    between atoms: C_15  and  N_16
REMARK                            x       y       z     vdW  Elec       q    Type
REMARK                         _______ _______ _______ _____ _____    ______ ____
ROOT
ATOM      1  C   UNL     1       5.616   4.739  16.249  0.00  0.00    +0.000 A 
ATOM      2  C   UNL     1       5.488   3.382  16.527  0.00  0.00    +0.000 A 
ATOM      3  C   UNL     1       4.513   2.923  17.433  0.00  0.00    +0.000 A 
ATOM      4  C   UNL     1       3.637   3.781  18.135  0.00  0.00    +0.000 A 
ATOM      5  C   UNL     1       3.808   5.147  17.816  0.00  0.00    +0.000 A 
ATOM      6  C   UNL     1       4.758   5.627  16.884  0.00  0.00    +0.000 A 
ENDROOT
BRANCH   4   7
ATOM      7  N   UNL     1       2.745   3.253  19.054  0.00  0.00    +0.000 N 
ATOM      8  C   UNL     1       1.274   3.219  18.893  0.00  0.00    +0.000 C 
ATOM      9  C   UNL     1       0.606   3.695  20.197  0.00  0.00    +0.000 C 
ATOM     10  O   UNL     1       1.012   2.881  21.313  0.00  0.00    +0.000 OA
ATOM     11  C   UNL     1       2.438   2.939  21.475  0.00  0.00    +0.000 C 
ATOM     12  C   UNL     1       3.171   2.441  20.217  0.00  0.00    +0.000 C 
ENDBRANCH   4   7
BRANCH   5  13
ATOM     13  N   UNL     1       3.107   6.194  18.528  0.00  0.00    +0.000 N 
ATOM     14  O   UNL     1       3.258   6.253  19.757  0.00  0.00    +0.000 OA
ATOM     15  O   UNL     1       2.444   6.993  17.850  0.00  0.00    +0.000 OA
ENDBRANCH   5  13
BRANCH   1  17
ATOM     16  C   UNL     1       6.852   4.890  14.045  0.00  0.00    +0.000 C 
ATOM     17  C   UNL     1       6.656   5.228  15.337  0.00  0.00    +0.000 C 
BRANCH  16  18
ATOM     18  C   UNL     1       5.962   3.925  13.326  0.00  0.00    +0.000 C 
ATOM     19  N   UNL     1       6.563   2.897  12.654  0.00  0.00    +0.000 N 
ATOM     20  O   UNL     1       4.738   4.006  13.296  0.00  0.00    +0.000 OA
ATOM     21  H   UNL     1       7.559   2.734  12.588  0.00  0.00    +0.000 HD
ATOM     22  H   UNL     1       5.949   2.267  12.152  0.00  0.00    +0.000 HD
ENDBRANCH  16  18
BRANCH  16  24
ATOM     23  N   UNL     1       8.835   5.972  12.788  0.00  0.00    +0.000 NA
ATOM     24  C   UNL     1       7.942   5.476  13.345  0.00  0.00    +0.000 C 
ENDBRANCH  16  24
ENDBRANCH   1  17
TORSDOF 5
ENDMDL
MODEL 8
REMARK VINA RESULT:      -5.9      1.077      1.636
REMARK  Name = 
REMARK  5 active torsions:
REMARK  status: ('A' for Active; 'I' for Inactive)
REMARK    1  A    between atoms: C_2  and  C_3
REMARK    2  A    between atoms: C_3  and  C_20
REMARK    3  A    between atoms: C_4  and  C_5
REMARK    4  A    between atoms: C_8  and  N_9
REMARK    5  A    between atoms: C_15  and  N_16
REMARK                            x       y       z     vdW  Elec       q    Type
REMARK                         _______ _______ _______ _____ _____    ______ ____
ROOT
ATOM      1  C   UNL     1       2.736   7.057  19.099  0.00  0.00    +0.000 A 
ATOM      2  C   UNL     1       2.467   7.798  17.953  0.00  0.00    +0.000 A 
ATOM      3  C   UNL     1       1.644   8.939  18.012  0.00  0.00    +0.000 A 
ATOM      4  C   UNL     1       1.020   9.388  19.197  0.00  0.00    +0.000 A 
ATOM      5  C   UNL     1       1.327   8.601  20.331  0.00  0.00    +0.000 A 
ATOM      6  C   UNL     1       2.177   7.471  20.300  0.00  0.00    +0.000 A 
ENDROOT
BRANCH   4   7
ATOM      7  N   UNL     1       0.178  10.487  19.159  0.00  0.00    +0.000 N 
ATOM      8  C   UNL     1      -1.278  10.438  18.894  0.00  0.00    +0.000 C 
ATOM      9  C   UNL     1      -1.647  11.522  17.865  0.00  0.00    +0.000 C 
ATOM     10  O   UNL     1      -1.261  12.830  18.329  0.00  0.00    +0.000 OA
ATOM     11  C   UNL     1       0.156  12.874  18.562  0.00  0.00    +0.000 C 
ATOM     12  C   UNL     1       0.590  11.836  19.611  0.00  0.00    +0.000 C 
ENDBRANCH   4   7
BRANCH   5  13
ATOM     13  N   UNL     1       0.678   8.810  21.608  0.00  0.00    +0.000 N 
ATOM     14  O   UNL     1      -0.460   8.342  21.757  0.00  0.00    +0.000 OA
ATOM     15  O   UNL     1       1.329   9.401  22.482  0.00  0.00    +0.000 OA
ENDBRANCH   5  13
BRANCH   1  17
ATOM     16  C   UNL     1       3.318   4.648  19.616  0.00  0.00    +0.000 C 
ATOM     17  C   UNL     1       3.559   5.843  19.037  0.00  0.00    +0.000 C 
BRANCH  16  18
ATOM     18  C   UNL     1       2.090   4.385  20.430  0.00  0.00    +0.000 C 
ATOM     19  N   UNL     1       0.932   4.121  19.752  0.00  0.00    +0.000 N 
ATOM     20  O   UNL     1       2.058   4.401  21.656  0.00  0.00    +0.000 OA
ATOM     21  H   UNL     1       0.827   4.098  18.746  0.00  0.00    +0.000 HD
ATOM     22  H   UNL     1       0.104   3.970  20.316  0.00  0.00    +0.000 HD
ENDBRANCH  16  18
BRANCH  16  24
ATOM     23  N   UNL     1       5.030   2.735  19.310  0.00  0.00    +0.000 NA
ATOM     24  C   UNL     1       4.266   3.602  19.440  0.00  0.00    +0.000 C 
ENDBRANCH  16  24
ENDBRANCH   1  17
TORSDOF 5
ENDMDL
MODEL 9
REMARK VINA RESULT:      -5.7      1.919      2.269
REMARK  Name = 
REMARK  5 active torsions:
REMARK  status: ('A' for Active; 'I' for Inactive)
REMARK    1  A    between atoms: C_2  and  C_3
REMARK    2  A    between atoms: C_3  and  C_20
REMARK    3  A    between atoms: C_4  and  C_5
REMARK    4  A    between atoms: C_8  and  N_9
REMARK    5  A    between atoms: C_15  and  N_16
REMARK                            x       y       z     vdW  Elec       q    Type
REMARK                         _______ _______ _______ _____ _____    ______ ____
ROOT
ATOM      1  C   UNL     1       2.109   6.926  18.740  0.00  0.00    +0.000 A 
ATOM      2  C   UNL     1       2.074   7.887  17.735  0.00  0.00    +0.000 A 
ATOM      3  C   UNL     1       1.720   9.219  18.026  0.00  0.00    +0.000 A 
ATOM      4  C   UNL     1       1.353   9.662  19.317  0.00  0.00    +0.000 A 
ATOM      5  C   UNL     1       1.407   8.648  20.299  0.00  0.00    +0.000 A 
ATOM      6  C   UNL     1       1.790   7.313  20.035  0.00  0.00    +0.000 A 
ENDROOT
BRANCH   4   7
ATOM      7  N   UNL     1       0.962  10.977  19.508  0.00  0.00    +0.000 N 
ATOM      8  C   UNL     1       1.806  12.166  19.246  0.00  0.00    +0.000 C 
ATOM      9  C   UNL     1       1.705  13.136  20.438  0.00  0.00    +0.000 C 
ATOM     10  O   UNL     1       0.340  13.527  20.675  0.00  0.00    +0.000 OA
ATOM     11  C   UNL     1      -0.465  12.370  20.950  0.00  0.00    +0.000 C 
ATOM     12  C   UNL     1      -0.440  11.371  19.779  0.00  0.00    +0.000 C 
ENDBRANCH   4   7
BRANCH   5  13
ATOM     13  N   UNL     1       0.934   8.864  21.651  0.00  0.00    +0.000 N 
ATOM     14  O   UNL     1       1.721   9.377  22.459  0.00  0.00    +0.000 OA
ATOM     15  O   UNL     1      -0.246   8.567  21.890  0.00  0.00    +0.000 OA
ENDBRANCH   5  13
BRANCH   1  17
ATOM     16  C   UNL     1       3.657   4.989  18.228  0.00  0.00    +0.000 C 
ATOM     17  C   UNL     1       2.437   5.528  18.437  0.00  0.00    +0.000 C 
BRANCH  16  18
ATOM     18  C   UNL     1       4.913   5.798  18.306  0.00  0.00    +0.000 C 
ATOM     19  N   UNL     1       5.746   5.563  19.365  0.00  0.00    +0.000 N 
ATOM     20  O   UNL     1       5.234   6.655  17.490  0.00  0.00    +0.000 OA
ATOM     21  H   UNL     1       5.583   4.898  20.111  0.00  0.00    +0.000 HD
ATOM     22  H   UNL     1       6.580   6.135  19.418  0.00  0.00    +0.000 HD
ENDBRANCH  16  18
BRANCH  16  24
ATOM     23  N   UNL     1       3.805   2.463  17.700  0.00  0.00    +0.000 NA
ATOM     24  C   UNL     1       3.745   3.602  17.928  0.00  0.00    +0.000 C 
ENDBRANCH  16  24
ENDBRANCH   1  17
TORSDOF 5
ENDMDL
