MODEL 1
REMARK VINA RESULT:      -9.3      0.000      0.000
REMARK  Name = 
REMARK  10 active torsions:
REMARK  status: ('A' for Active; 'I' for Inactive)
REMARK    1  A    between atoms: C_1  and  C_2
REMARK    2  A    between atoms: C_5  and  C_6
REMARK    3  A    between atoms: C_9  and  C_10
REMARK    4  A    between atoms: C_10  and  N_11
REMARK    5  A    between atoms: N_11  and  C_12
REMARK    6  A    between atoms: C_14  and  C_15
REMARK    7  A    between atoms: C_20  and  C_21
REMARK    8  A    between atoms: C_21  and  C_22
REMARK    9  A    between atoms: C_21  and  C_23
REMARK   10  A    between atoms: C_26  and  C_27
REMARK                            x       y       z     vdW  Elec       q    Type
REMARK                         _______ _______ _______ _____ _____    ______ ____
ROOT
ATOM      1  N   UNL     1       2.236   6.328  20.181  0.00  0.00    +0.000 N 
ATOM      2  H   UNL     1       1.272   6.029  20.266  0.00  0.00    +0.000 HD
ENDROOT
BRANCH   1   3
ATOM      3  C   UNL     1       3.021   5.259  19.720  0.00  0.00    +0.000 A 
ATOM      4  N   UNL     1       3.871   5.461  18.697  0.00  0.00    +0.000 NA
ATOM      5  C   UNL     1       4.610   4.418  18.281  0.00  0.00    +0.000 A 
ATOM      6  N   UNL     1       4.622   3.211  18.876  0.00  0.00    +0.000 NA
ATOM      7  C   UNL     1       3.783   3.051  19.911  0.00  0.00    +0.000 A 
ATOM      8  C   UNL     1       2.927   4.031  20.365  0.00  0.00    +0.000 A 
ATOM      9  C   UNL     1       1.984   3.761  21.493  0.00  0.00    +0.000 C 
BRANCH   5  10
ATOM     10  C   UNL     1       5.474   4.579  17.093  0.00  0.00    +0.000 A 
ATOM     11  C   UNL     1       5.152   3.821  15.942  0.00  0.00    +0.000 A 
ATOM     12  C   UNL     1       5.869   3.929  14.751  0.00  0.00    +0.000 A 
ATOM     13  C   UNL     1       6.940   4.804  14.674  0.00  0.00    +0.000 A 
ATOM     14  C   UNL     1       7.289   5.564  15.788  0.00  0.00    +0.000 A 
ATOM     15  C   UNL     1       6.576   5.475  17.007  0.00  0.00    +0.000 A 
BRANCH  15  16
ATOM     16  C   UNL     1       7.014   6.388  18.152  0.00  0.00    +0.000 C 
ATOM     17  C   UNL     1       7.931   5.648  19.134  0.00  0.00    +0.000 C 
ATOM     18  C   UNL     1       7.694   7.663  17.637  0.00  0.00    +0.000 C 
ENDBRANCH  15  16
ENDBRANCH   5  10
ENDBRANCH   1   3
BRANCH   1  19
ATOM     19  C   UNL     1       2.347   7.559  19.408  0.00  0.00    +0.000 C 
BRANCH  19  23
ATOM     20  C   UNL     1      -0.401  10.494  21.092  0.00  0.00    +0.000 A 
ATOM     21  C   UNL     1       0.139   9.458  21.874  0.00  0.00    +0.000 A 
ATOM     22  C   UNL     1       1.034   8.524  21.339  0.00  0.00    +0.000 A 
ATOM     23  C   UNL     1       1.411   8.592  19.995  0.00  0.00    +0.000 A 
ATOM     24  C   UNL     1       0.896   9.631  19.208  0.00  0.00    +0.000 A 
ATOM     25  C   UNL     1      -0.001  10.560  19.747  0.00  0.00    +0.000 A 
BRANCH  20  30
ATOM     26  C   UNL     1      -3.945  14.490  23.238  0.00  0.00    +0.000 C 
ATOM     27  C   UNL     1      -3.049  13.413  22.707  0.00  0.00    +0.000 A 
ATOM     28  C   UNL     1      -2.553  12.427  23.548  0.00  0.00    +0.000 A 
ATOM     29  C   UNL     1      -1.691  11.463  23.024  0.00  0.00    +0.000 A 
ATOM     30  C   UNL     1      -1.333  11.484  21.668  0.00  0.00    +0.000 A 
ATOM     31  C   UNL     1      -1.906  12.509  20.913  0.00  0.00    +0.000 A 
ATOM     32  N   UNL     1      -2.740  13.466  21.395  0.00  0.00    +0.000 NA
ENDBRANCH  20  30
ENDBRANCH  19  23
ENDBRANCH   1  19
TORSDOF 6
ENDMDL
MODEL 2
REMARK VINA RESULT:      -9.0      0.572      1.028
REMARK  Name = 
REMARK  10 active torsions:
REMARK  status: ('A' for Active; 'I' for Inactive)
REMARK    1  A    between atoms: C_1  and  C_2
REMARK    2  A    between atoms: C_5  and  C_6
REMARK    3  A    between atoms: C_9  and  C_10
REMARK    4  A    between atoms: C_10  and  N_11
REMARK    5  A    between atoms: N_11  and  C_12
REMARK    6  A    between atoms: C_14  and  C_15
REMARK    7  A    between atoms: C_20  and  C_21
REMARK    8  A    between atoms: C_21  and  C_22
REMARK    9  A    between atoms: C_21  and  C_23
REMARK   10  A    between atoms: C_26  and  C_27
REMARK                            x       y       z     vdW  Elec       q    Type
REMARK                         _______ _______ _______ _____ _____    ______ ____
ROOT
ATOM      1  N   UNL     1       2.444   6.951  19.918  0.00  0.00    +0.000 N 
ATOM      2  H   UNL     1       1.647   6.742  20.505  0.00  0.00    +0.000 HD
ENDROOT
BRANCH   1   3
ATOM      3  C   UNL     1       2.916   5.769  19.325  0.00  0.00    +0.000 A 
ATOM      4  N   UNL     1       3.896   5.840  18.406  0.00  0.00    +0.000 NA
ATOM      5  C   UNL     1       4.326   4.691  17.858  0.00  0.00    +0.000 A 
ATOM      6  N   UNL     1       3.906   3.468  18.233  0.00  0.00    +0.000 NA
ATOM      7  C   UNL     1       2.948   3.431  19.171  0.00  0.00    +0.000 A 
ATOM      8  C   UNL     1       2.383   4.553  19.738  0.00  0.00    +0.000 A 
ATOM      9  C   UNL     1       1.283   4.432  20.743  0.00  0.00    +0.000 C 
BRANCH   5  10
ATOM     10  C   UNL     1       5.325   4.744  16.771  0.00  0.00    +0.000 A 
ATOM     11  C   UNL     1       5.034   4.035  15.580  0.00  0.00    +0.000 A 
ATOM     12  C   UNL     1       5.882   4.054  14.473  0.00  0.00    +0.000 A 
ATOM     13  C   UNL     1       7.057   4.786  14.524  0.00  0.00    +0.000 A 
ATOM     14  C   UNL     1       7.379   5.492  15.680  0.00  0.00    +0.000 A 
ATOM     15  C   UNL     1       6.534   5.492  16.816  0.00  0.00    +0.000 A 
BRANCH  15  16
ATOM     16  C   UNL     1       6.960   6.339  18.015  0.00  0.00    +0.000 C 
ATOM     17  C   UNL     1       7.846   5.536  18.977  0.00  0.00    +0.000 C 
ATOM     18  C   UNL     1       7.668   7.628  17.580  0.00  0.00    +0.000 C 
ENDBRANCH  15  16
ENDBRANCH   5  10
ENDBRANCH   1   3
BRANCH   1  19
ATOM     19  C   UNL     1       2.155   8.039  18.991  0.00  0.00    +0.000 C 
BRANCH  19  23
ATOM     20  C   UNL     1      -0.604  10.840  20.873  0.00  0.00    +0.000 A 
ATOM     21  C   UNL     1      -0.428  10.805  19.478  0.00  0.00    +0.000 A 
ATOM     22  C   UNL     1       0.445   9.895  18.871  0.00  0.00    +0.000 A 
ATOM     23  C   UNL     1       1.181   8.994  19.645  0.00  0.00    +0.000 A 
ATOM     24  C   UNL     1       1.002   9.004  21.035  0.00  0.00    +0.000 A 
ATOM     25  C   UNL     1       0.130   9.917  21.637  0.00  0.00    +0.000 A 
BRANCH  20  30
ATOM     26  C   UNL     1      -4.165  14.698  23.234  0.00  0.00    +0.000 C 
ATOM     27  C   UNL     1      -3.263  13.656  22.647  0.00  0.00    +0.000 A 
ATOM     28  C   UNL     1      -2.715  12.662  23.446  0.00  0.00    +0.000 A 
ATOM     29  C   UNL     1      -1.850  11.732  22.870  0.00  0.00    +0.000 A 
ATOM     30  C   UNL     1      -1.539  11.793  21.505  0.00  0.00    +0.000 A 
ATOM     31  C   UNL     1      -2.161  12.822  20.794  0.00  0.00    +0.000 A 
ATOM     32  N   UNL     1      -3.000  13.747  21.327  0.00  0.00    +0.000 NA
ENDBRANCH  20  30
ENDBRANCH  19  23
ENDBRANCH   1  19
TORSDOF 6
ENDMDL
MODEL 3
REMARK VINA RESULT:      -8.9      2.753     10.351
REMARK  Name = 
REMARK  10 active torsions:
REMARK  status: ('A' for Active; 'I' for Inactive)
REMARK    1  A    between atoms: C_1  and  C_2
REMARK    2  A    between atoms: C_5  and  C_6
REMARK    3  A    between atoms: C_9  and  C_10
REMARK    4  A    between atoms: C_10  and  N_11
REMARK    5  A    between atoms: N_11  and  C_12
REMARK    6  A    between atoms: C_14  and  C_15
REMARK    7  A    between atoms: C_20  and  C_21
REMARK    8  A    between atoms: C_21  and  C_22
REMARK    9  A    between atoms: C_21  and  C_23
REMARK   10  A    between atoms: C_26  and  C_27
REMARK                            x       y       z     vdW  Elec       q    Type
REMARK                         _______ _______ _______ _____ _____    ______ ____
ROOT
ATOM      1  N   UNL     1       0.894  10.679  21.167  0.00  0.00    +0.000 N 
ATOM      2  H   UNL     1       1.861  10.721  20.869  0.00  0.00    +0.000 HD
ENDROOT
BRANCH   1   3
ATOM      3  C   UNL     1       0.153  11.667  20.499  0.00  0.00    +0.000 A 
ATOM      4  N   UNL     1      -1.126  11.415  20.164  0.00  0.00    +0.000 NA
ATOM      5  C   UNL     1      -1.809  12.381  19.527  0.00  0.00    +0.000 A 
ATOM      6  N   UNL     1      -1.329  13.615  19.282  0.00  0.00    +0.000 NA
ATOM      7  C   UNL     1      -0.060  13.842  19.654  0.00  0.00    +0.000 A 
ATOM      8  C   UNL     1       0.751  12.895  20.240  0.00  0.00    +0.000 A 
ATOM      9  C   UNL     1       2.173  13.209  20.581  0.00  0.00    +0.000 C 
BRANCH   5  10
ATOM     10  C   UNL     1      -3.179  12.098  19.052  0.00  0.00    +0.000 A 
ATOM     11  C   UNL     1      -4.255  12.493  19.884  0.00  0.00    +0.000 A 
ATOM     12  C   UNL     1      -5.588  12.319  19.516  0.00  0.00    +0.000 A 
ATOM     13  C   UNL     1      -5.890  11.737  18.295  0.00  0.00    +0.000 A 
ATOM     14  C   UNL     1      -4.858  11.332  17.452  0.00  0.00    +0.000 A 
ATOM     15  C   UNL     1      -3.497  11.501  17.801  0.00  0.00    +0.000 A 
BRANCH  15  16
ATOM     16  C   UNL     1      -2.445  11.064  16.782  0.00  0.00    +0.000 C 
ATOM     17  C   UNL     1      -1.751   9.767  17.220  0.00  0.00    +0.000 C 
ATOM     18  C   UNL     1      -3.042  10.907  15.378  0.00  0.00    +0.000 C 
ENDBRANCH  15  16
ENDBRANCH   5  10
ENDBRANCH   1   3
BRANCH   1  19
ATOM     19  C   UNL     1       0.362   9.326  21.063  0.00  0.00    +0.000 C 
BRANCH  19  23
ATOM     20  C   UNL     1       2.872   6.975  18.384  0.00  0.00    +0.000 A 
ATOM     21  C   UNL     1       2.350   8.223  17.999  0.00  0.00    +0.000 A 
ATOM     22  C   UNL     1       1.558   8.986  18.863  0.00  0.00    +0.000 A 
ATOM     23  C   UNL     1       1.252   8.519  20.144  0.00  0.00    +0.000 A 
ATOM     24  C   UNL     1       1.781   7.286  20.549  0.00  0.00    +0.000 A 
ATOM     25  C   UNL     1       2.571   6.526  19.680  0.00  0.00    +0.000 A 
BRANCH  20  30
ATOM     26  C   UNL     1       6.208   3.762  14.967  0.00  0.00    +0.000 C 
ATOM     27  C   UNL     1       5.332   4.631  15.815  0.00  0.00    +0.000 A 
ATOM     28  C   UNL     1       5.450   6.013  15.771  0.00  0.00    +0.000 A 
ATOM     29  C   UNL     1       4.642   6.787  16.604  0.00  0.00    +0.000 A 
ATOM     30  C   UNL     1       3.720   6.183  17.471  0.00  0.00    +0.000 A 
ATOM     31  C   UNL     1       3.674   4.789  17.418  0.00  0.00    +0.000 A 
ATOM     32  N   UNL     1       4.452   4.007  16.626  0.00  0.00    +0.000 NA
ENDBRANCH  20  30
ENDBRANCH  19  23
ENDBRANCH   1  19
TORSDOF 6
ENDMDL
MODEL 4
REMARK VINA RESULT:      -8.7      1.005      1.513
REMARK  Name = 
REMARK  10 active torsions:
REMARK  status: ('A' for Active; 'I' for Inactive)
REMARK    1  A    between atoms: C_1  and  C_2
REMARK    2  A    between atoms: C_5  and  C_6
REMARK    3  A    between atoms: C_9  and  C_10
REMARK    4  A    between atoms: C_10  and  N_11
REMARK    5  A    between atoms: N_11  and  C_12
REMARK    6  A    between atoms: C_14  and  C_15
REMARK    7  A    between atoms: C_20  and  C_21
REMARK    8  A    between atoms: C_21  and  C_22
REMARK    9  A    between atoms: C_21  and  C_23
REMARK   10  A    between atoms: C_26  and  C_27
REMARK                            x       y       z     vdW  Elec       q    Type
REMARK                         _______ _______ _______ _____ _____    ______ ____
ROOT
ATOM      1  N   UNL     1       2.028   5.782  19.408  0.00  0.00    +0.000 N 
ATOM      2  H   UNL     1       1.058   5.802  19.121  0.00  0.00    +0.000 HD
ENDROOT
BRANCH   1   3
ATOM      3  C   UNL     1       2.694   4.737  18.749  0.00  0.00    +0.000 A 
ATOM      4  N   UNL     1       3.681   5.029  17.883  0.00  0.00    +0.000 NA
ATOM      5  C   UNL     1       4.300   4.006  17.269  0.00  0.00    +0.000 A 
ATOM      6  N   UNL     1       4.060   2.707  17.530  0.00  0.00    +0.000 NA
ATOM      7  C   UNL     1       3.088   2.451  18.418  0.00  0.00    +0.000 A 
ATOM      8  C   UNL     1       2.340   3.425  19.043  0.00  0.00    +0.000 A 
ATOM      9  C   UNL     1       1.238   3.059  19.985  0.00  0.00    +0.000 C 
BRANCH   5  10
ATOM     10  C   UNL     1       5.315   4.297  16.236  0.00  0.00    +0.000 A 
ATOM     11  C   UNL     1       5.131   3.718  14.957  0.00  0.00    +0.000 A 
ATOM     12  C   UNL     1       6.000   3.963  13.893  0.00  0.00    +0.000 A 
ATOM     13  C   UNL     1       7.089   4.798  14.079  0.00  0.00    +0.000 A 
ATOM     14  C   UNL     1       7.305   5.381  15.325  0.00  0.00    +0.000 A 
ATOM     15  C   UNL     1       6.437   5.152  16.419  0.00  0.00    +0.000 A 
BRANCH  15  16
ATOM     16  C   UNL     1       6.741   5.879  17.728  0.00  0.00    +0.000 C 
ATOM     17  C   UNL     1       7.699   5.065  18.607  0.00  0.00    +0.000 C 
ATOM     18  C   UNL     1       7.299   7.287  17.483  0.00  0.00    +0.000 C 
ENDBRANCH  15  16
ENDBRANCH   5  10
ENDBRANCH   1   3
BRANCH   1  19
ATOM     19  C   UNL     1       2.649   7.095  19.278  0.00  0.00    +0.000 C 
BRANCH  19  23
ATOM     20  C   UNL     1      -0.009  10.145  20.901  0.00  0.00    +0.000 A 
ATOM     21  C   UNL     1       0.496  10.230  19.591  0.00  0.00    +0.000 A 
ATOM     22  C   UNL     1       1.337   9.243  19.063  0.00  0.00    +0.000 A 
ATOM     23  C   UNL     1       1.709   8.140  19.836  0.00  0.00    +0.000 A 
ATOM     24  C   UNL     1       1.197   8.032  21.136  0.00  0.00    +0.000 A 
ATOM     25  C   UNL     1       0.359   9.022  21.660  0.00  0.00    +0.000 A 
BRANCH  20  30
ATOM     26  C   UNL     1      -3.596  14.055  23.131  0.00  0.00    +0.000 C 
ATOM     27  C   UNL     1      -2.640  13.076  22.522  0.00  0.00    +0.000 A 
ATOM     28  C   UNL     1      -2.362  13.110  21.163  0.00  0.00    +0.000 A 
ATOM     29  C   UNL     1      -1.495  12.158  20.627  0.00  0.00    +0.000 A 
ATOM     30  C   UNL     1      -0.908  11.183  21.445  0.00  0.00    +0.000 A 
ATOM     31  C   UNL     1      -1.244  11.254  22.798  0.00  0.00    +0.000 A 
ATOM     32  N   UNL     1      -2.091  12.163  23.349  0.00  0.00    +0.000 NA
ENDBRANCH  20  30
ENDBRANCH  19  23
ENDBRANCH   1  19
TORSDOF 6
ENDMDL
MODEL 5
REMARK VINA RESULT:      -8.6      1.869      2.297
REMARK  Name = 
REMARK  10 active torsions:
REMARK  status: ('A' for Active; 'I' for Inactive)
REMARK    1  A    between atoms: C_1  and  C_2
REMARK    2  A    between atoms: C_5  and  C_6
REMARK    3  A    between atoms: C_9  and  C_10
REMARK    4  A    between atoms: C_10  and  N_11
REMARK    5  A    between atoms: N_11  and  C_12
REMARK    6  A    between atoms: C_14  and  C_15
REMARK    7  A    between atoms: C_20  and  C_21
REMARK    8  A    between atoms: C_21  and  C_22
REMARK    9  A    between atoms: C_21  and  C_23
REMARK   10  A    between atoms: C_26  and  C_27
REMARK                            x       y       z     vdW  Elec       q    Type
REMARK                         _______ _______ _______ _____ _____    ______ ____
ROOT
ATOM      1  N   UNL     1       1.758   5.416  19.692  0.00  0.00    +0.000 N 
ATOM      2  H   UNL     1       1.529   5.976  18.881  0.00  0.00    +0.000 HD
ENDROOT
BRANCH   1   3
ATOM      3  C   UNL     1       2.870   4.607  19.408  0.00  0.00    +0.000 A 
ATOM      4  N   UNL     1       3.683   4.941  18.390  0.00  0.00    +0.000 NA
ATOM      5  C   UNL     1       4.739   4.147  18.145  0.00  0.00    +0.000 A 
ATOM      6  N   UNL     1       5.088   3.091  18.904  0.00  0.00    +0.000 NA
ATOM      7  C   UNL     1       4.270   2.801  19.928  0.00  0.00    +0.000 A 
ATOM      8  C   UNL     1       3.120   3.503  20.216  0.00  0.00    +0.000 A 
ATOM      9  C   UNL     1       2.232   3.087  21.345  0.00  0.00    +0.000 C 
BRANCH   5  10
ATOM     10  C   UNL     1       5.591   4.427  16.971  0.00  0.00    +0.000 A 
ATOM     11  C   UNL     1       5.338   3.691  15.788  0.00  0.00    +0.000 A 
ATOM     12  C   UNL     1       6.048   3.906  14.607  0.00  0.00    +0.000 A 
ATOM     13  C   UNL     1       7.041   4.870  14.572  0.00  0.00    +0.000 A 
ATOM     14  C   UNL     1       7.321   5.612  15.718  0.00  0.00    +0.000 A 
ATOM     15  C   UNL     1       6.614   5.415  16.928  0.00  0.00    +0.000 A 
BRANCH  15  16
ATOM     16  C   UNL     1       6.970   6.315  18.111  0.00  0.00    +0.000 C 
ATOM     17  C   UNL     1       7.885   5.589  19.106  0.00  0.00    +0.000 C 
ATOM     18  C   UNL     1       7.609   7.632  17.653  0.00  0.00    +0.000 C 
ENDBRANCH  15  16
ENDBRANCH   5  10
ENDBRANCH   1   3
BRANCH   1  19
ATOM     19  C   UNL     1       1.877   6.237  20.891  0.00  0.00    +0.000 C 
BRANCH  19  23
ATOM     20  C   UNL     1       0.905  10.358  19.855  0.00  0.00    +0.000 A 
ATOM     21  C   UNL     1       0.689   9.854  21.150  0.00  0.00    +0.000 A 
ATOM     22  C   UNL     1       1.015   8.536  21.489  0.00  0.00    +0.000 A 
ATOM     23  C   UNL     1       1.562   7.673  20.535  0.00  0.00    +0.000 A 
ATOM     24  C   UNL     1       1.801   8.167  19.246  0.00  0.00    +0.000 A 
ATOM     25  C   UNL     1       1.471   9.485  18.912  0.00  0.00    +0.000 A 
BRANCH  20  30
ATOM     26  C   UNL     1      -0.220  15.855  18.571  0.00  0.00    +0.000 C 
ATOM     27  C   UNL     1       0.024  14.412  18.888  0.00  0.00    +0.000 A 
ATOM     28  C   UNL     1      -0.955  13.647  19.506  0.00  0.00    +0.000 A 
ATOM     29  C   UNL     1      -0.676  12.316  19.818  0.00  0.00    +0.000 A 
ATOM     30  C   UNL     1       0.571  11.755  19.511  0.00  0.00    +0.000 A 
ATOM     31  C   UNL     1       1.473  12.610  18.873  0.00  0.00    +0.000 A 
ATOM     32  N   UNL     1       1.235  13.911  18.564  0.00  0.00    +0.000 NA
ENDBRANCH  20  30
ENDBRANCH  19  23
ENDBRANCH   1  19
TORSDOF 6
ENDMDL
MODEL 6
REMARK VINA RESULT:      -8.5      2.033      2.420
REMARK  Name = 
REMARK  10 active torsions:
REMARK  status: ('A' for Active; 'I' for Inactive)
REMARK    1  A    between atoms: C_1  and  C_2
REMARK    2  A    between atoms: C_5  and  C_6
REMARK    3  A    between atoms: C_9  and  C_10
REMARK    4  A    between atoms: C_10  and  N_11
REMARK    5  A    between atoms: N_11  and  C_12
REMARK    6  A    between atoms: C_14  and  C_15
REMARK    7  A    between atoms: C_20  and  C_21
REMARK    8  A    between atoms: C_21  and  C_22
REMARK    9  A    between atoms: C_21  and  C_23
REMARK   10  A    between atoms: C_26  and  C_27
REMARK                            x       y       z     vdW  Elec       q    Type
REMARK                         _______ _______ _______ _____ _____    ______ ____
ROOT
ATOM      1  N   UNL     1       1.747   5.475  19.712  0.00  0.00    +0.000 N 
ATOM      2  H   UNL     1       1.534   6.044  18.902  0.00  0.00    +0.000 HD
ENDROOT
BRANCH   1   3
ATOM      3  C   UNL     1       2.849   4.651  19.433  0.00  0.00    +0.000 A 
ATOM      4  N   UNL     1       3.667   4.970  18.413  0.00  0.00    +0.000 NA
ATOM      5  C   UNL     1       4.713   4.161  18.172  0.00  0.00    +0.000 A 
ATOM      6  N   UNL     1       5.048   3.105  18.937  0.00  0.00    +0.000 NA
ATOM      7  C   UNL     1       4.226   2.831  19.962  0.00  0.00    +0.000 A 
ATOM      8  C   UNL     1       3.085   3.549  20.247  0.00  0.00    +0.000 A 
ATOM      9  C   UNL     1       2.192   3.151  21.378  0.00  0.00    +0.000 C 
BRANCH   5  10
ATOM     10  C   UNL     1       5.568   4.424  16.997  0.00  0.00    +0.000 A 
ATOM     11  C   UNL     1       5.306   3.684  15.818  0.00  0.00    +0.000 A 
ATOM     12  C   UNL     1       6.019   3.884  14.636  0.00  0.00    +0.000 A 
ATOM     13  C   UNL     1       7.024   4.836  14.596  0.00  0.00    +0.000 A 
ATOM     14  C   UNL     1       7.312   5.581  15.737  0.00  0.00    +0.000 A 
ATOM     15  C   UNL     1       6.603   5.400  16.948  0.00  0.00    +0.000 A 
BRANCH  15  16
ATOM     16  C   UNL     1       6.969   6.302  18.126  0.00  0.00    +0.000 C 
ATOM     17  C   UNL     1       7.889   5.577  19.116  0.00  0.00    +0.000 C 
ATOM     18  C   UNL     1       7.608   7.617  17.660  0.00  0.00    +0.000 C 
ENDBRANCH  15  16
ENDBRANCH   5  10
ENDBRANCH   1   3
BRANCH   1  19
ATOM     19  C   UNL     1       1.868   6.287  20.917  0.00  0.00    +0.000 C 
BRANCH  19  23
ATOM     20  C   UNL     1       0.978  10.442  19.947  0.00  0.00    +0.000 A 
ATOM     21  C   UNL     1       1.561   9.575  19.006  0.00  0.00    +0.000 A 
ATOM     22  C   UNL     1       1.833   8.237  19.310  0.00  0.00    +0.000 A 
ATOM     23  C   UNL     1       1.537   7.723  20.576  0.00  0.00    +0.000 A 
ATOM     24  C   UNL     1       0.938   8.570  21.518  0.00  0.00    +0.000 A 
ATOM     25  C   UNL     1       0.671   9.908  21.209  0.00  0.00    +0.000 A 
BRANCH  20  30
ATOM     26  C   UNL     1      -0.215  15.874  18.460  0.00  0.00    +0.000 C 
ATOM     27  C   UNL     1       0.104  14.477  18.896  0.00  0.00    +0.000 A 
ATOM     28  C   UNL     1       1.183  14.225  19.732  0.00  0.00    +0.000 A 
ATOM     29  C   UNL     1       1.470  12.907  20.086  0.00  0.00    +0.000 A 
ATOM     30  C   UNL     1       0.681  11.850  19.612  0.00  0.00    +0.000 A 
ATOM     31  C   UNL     1      -0.388  12.220  18.794  0.00  0.00    +0.000 A 
ATOM     32  N   UNL     1      -0.689  13.492  18.424  0.00  0.00    +0.000 NA
ENDBRANCH  20  30
ENDBRANCH  19  23
ENDBRANCH   1  19
TORSDOF 6
ENDMDL
MODEL 7
REMARK VINA RESULT:      -8.5      2.120      2.749
REMARK  Name = 
REMARK  10 active torsions:
REMARK  status: ('A' for Active; 'I' for Inactive)
REMARK    1  A    between atoms: C_1  and  C_2
REMARK    2  A    between atoms: C_5  and  C_6
REMARK    3  A    between atoms: C_9  and  C_10
REMARK    4  A    between atoms: C_10  and  N_11
REMARK    5  A    between atoms: N_11  and  C_12
REMARK    6  A    between atoms: C_14  and  C_15
REMARK    7  A    between atoms: C_20  and  C_21
REMARK    8  A    between atoms: C_21  and  C_22
REMARK    9  A    between atoms: C_21  and  C_23
REMARK   10  A    between atoms: C_26  and  C_27
REMARK                            x       y       z     vdW  Elec       q    Type
REMARK                         _______ _______ _______ _____ _____    ______ ____
ROOT
ATOM      1  N   UNL     1       1.702   5.383  18.859  0.00  0.00    +0.000 N 
ATOM      2  H   UNL     1       1.337   5.972  18.120  0.00  0.00    +0.000 HD
ENDROOT
BRANCH   1   3
ATOM      3  C   UNL     1       2.536   4.398  18.307  0.00  0.00    +0.000 A 
ATOM      4  N   UNL     1       3.531   4.767  17.480  0.00  0.00    +0.000 NA
ATOM      5  C   UNL     1       4.313   3.801  16.970  0.00  0.00    +0.000 A 
ATOM      6  N   UNL     1       4.224   2.499  17.300  0.00  0.00    +0.000 NA
ATOM      7  C   UNL     1       3.239   2.168  18.148  0.00  0.00    +0.000 A 
ATOM      8  C   UNL     1       2.334   3.070  18.665  0.00  0.00    +0.000 A 
ATOM      9  C   UNL     1       1.230   2.617  19.567  0.00  0.00    +0.000 C 
BRANCH   5  10
ATOM     10  C   UNL     1       5.347   4.163  15.978  0.00  0.00    +0.000 A 
ATOM     11  C   UNL     1       5.204   3.647  14.667  0.00  0.00    +0.000 A 
ATOM     12  C   UNL     1       6.093   3.961  13.639  0.00  0.00    +0.000 A 
ATOM     13  C   UNL     1       7.161   4.806  13.893  0.00  0.00    +0.000 A 
ATOM     14  C   UNL     1       7.336   5.330  15.172  0.00  0.00    +0.000 A 
ATOM     15  C   UNL     1       6.447   5.029  16.231  0.00  0.00    +0.000 A 
BRANCH  15  16
ATOM     16  C   UNL     1       6.704   5.694  17.583  0.00  0.00    +0.000 C 
ATOM     17  C   UNL     1       7.677   4.867  18.433  0.00  0.00    +0.000 C 
ATOM     18  C   UNL     1       7.217   7.131  17.422  0.00  0.00    +0.000 C 
ENDBRANCH  15  16
ENDBRANCH   5  10
ENDBRANCH   1   3
BRANCH   1  19
ATOM     19  C   UNL     1       2.297   6.176  19.927  0.00  0.00    +0.000 C 
BRANCH  19  23
ATOM     20  C   UNL     1       1.203  10.364  19.420  0.00  0.00    +0.000 A 
ATOM     21  C   UNL     1       1.782   9.623  18.375  0.00  0.00    +0.000 A 
ATOM     22  C   UNL     1       2.119   8.274  18.531  0.00  0.00    +0.000 A 
ATOM     23  C   UNL     1       1.896   7.622  19.747  0.00  0.00    +0.000 A 
ATOM     24  C   UNL     1       1.301   8.343  20.792  0.00  0.00    +0.000 A 
ATOM     25  C   UNL     1       0.968   9.692  20.631  0.00  0.00    +0.000 A 
BRANCH  20  30
ATOM     26  C   UNL     1      -0.402  15.841  18.668  0.00  0.00    +0.000 C 
ATOM     27  C   UNL     1       0.063  14.433  18.880  0.00  0.00    +0.000 A 
ATOM     28  C   UNL     1       1.331  14.037  18.477  0.00  0.00    +0.000 A 
ATOM     29  C   UNL     1       1.713  12.708  18.658  0.00  0.00    +0.000 A 
ATOM     30  C   UNL     1       0.836  11.784  19.242  0.00  0.00    +0.000 A 
ATOM     31  C   UNL     1      -0.405  12.295  19.626  0.00  0.00    +0.000 A 
ATOM     32  N   UNL     1      -0.810  13.581  19.456  0.00  0.00    +0.000 NA
ENDBRANCH  20  30
ENDBRANCH  19  23
ENDBRANCH   1  19
TORSDOF 6
ENDMDL
MODEL 8
REMARK VINA RESULT:      -8.4      1.874      2.555
REMARK  Name = 
REMARK  10 active torsions:
REMARK  status: ('A' for Active; 'I' for Inactive)
REMARK    1  A    between atoms: C_1  and  C_2
REMARK    2  A    between atoms: C_5  and  C_6
REMARK    3  A    between atoms: C_9  and  C_10
REMARK    4  A    between atoms: C_10  and  N_11
REMARK    5  A    between atoms: N_11  and  C_12
REMARK    6  A    between atoms: C_14  and  C_15
REMARK    7  A    between atoms: C_20  and  C_21
REMARK    8  A    between atoms: C_21  and  C_22
REMARK    9  A    between atoms: C_21  and  C_23
REMARK   10  A    between atoms: C_26  and  C_27
REMARK                            x       y       z     vdW  Elec       q    Type
REMARK                         _______ _______ _______ _____ _____    ______ ____
ROOT
ATOM      1  N   UNL     1       2.082   8.820  18.785  0.00  0.00    +0.000 N 
ATOM      2  H   UNL     1       1.636   9.060  19.662  0.00  0.00    +0.000 HD
ENDROOT
BRANCH   1   3
ATOM      3  C   UNL     1       2.616   7.524  18.868  0.00  0.00    +0.000 A 
ATOM      4  N   UNL     1       3.578   7.153  18.004  0.00  0.00    +0.000 NA
ATOM      5  C   UNL     1       4.070   5.907  18.111  0.00  0.00    +0.000 A 
ATOM      6  N   UNL     1       3.728   5.036  19.079  0.00  0.00    +0.000 NA
ATOM      7  C   UNL     1       2.785   5.447  19.941  0.00  0.00    +0.000 A 
ATOM      8  C   UNL     1       2.161   6.674  19.870  0.00  0.00    +0.000 A 
ATOM      9  C   UNL     1       1.082   7.041  20.838  0.00  0.00    +0.000 C 
BRANCH   5  10
ATOM     10  C   UNL     1       5.050   5.434  17.112  0.00  0.00    +0.000 A 
ATOM     11  C   UNL     1       4.565   4.649  16.039  0.00  0.00    +0.000 A 
ATOM     12  C   UNL     1       5.393   4.189  15.014  0.00  0.00    +0.000 A 
ATOM     13  C   UNL     1       6.741   4.502  15.033  0.00  0.00    +0.000 A 
ATOM     14  C   UNL     1       7.256   5.270  16.075  0.00  0.00    +0.000 A 
ATOM     15  C   UNL     1       6.438   5.750  17.125  0.00  0.00    +0.000 A 
BRANCH  15  16
ATOM     16  C   UNL     1       7.095   6.623  18.194  0.00  0.00    +0.000 C 
ATOM     17  C   UNL     1       8.045   5.801  19.075  0.00  0.00    +0.000 C 
ATOM     18  C   UNL     1       7.832   7.820  17.579  0.00  0.00    +0.000 C 
ENDBRANCH  15  16
ENDBRANCH   5  10
ENDBRANCH   1   3
BRANCH   1  19
ATOM     19  C   UNL     1       1.195   9.056  17.653  0.00  0.00    +0.000 C 
BRANCH  19  23
ATOM     20  C   UNL     1      -2.202  11.413  19.032  0.00  0.00    +0.000 A 
ATOM     21  C   UNL     1      -0.943  11.502  19.653  0.00  0.00    +0.000 A 
ATOM     22  C   UNL     1       0.152  10.758  19.201  0.00  0.00    +0.000 A 
ATOM     23  C   UNL     1       0.021   9.889  18.114  0.00  0.00    +0.000 A 
ATOM     24  C   UNL     1      -1.223   9.804  17.474  0.00  0.00    +0.000 A 
ATOM     25  C   UNL     1      -2.316  10.548  17.931  0.00  0.00    +0.000 A 
BRANCH  20  30
ATOM     26  C   UNL     1      -6.615  14.502  21.061  0.00  0.00    +0.000 C 
ATOM     27  C   UNL     1      -5.484  13.707  20.484  0.00  0.00    +0.000 A 
ATOM     28  C   UNL     1      -5.704  12.813  19.445  0.00  0.00    +0.000 A 
ATOM     29  C   UNL     1      -4.632  12.064  18.960  0.00  0.00    +0.000 A 
ATOM     30  C   UNL     1      -3.350  12.212  19.506  0.00  0.00    +0.000 A 
ATOM     31  C   UNL     1      -3.240  13.152  20.533  0.00  0.00    +0.000 A 
ATOM     32  N   UNL     1      -4.265  13.890  21.033  0.00  0.00    +0.000 NA
ENDBRANCH  20  30
ENDBRANCH  19  23
ENDBRANCH   1  19
TORSDOF 6
ENDMDL
MODEL 9
REMARK VINA RESULT:      -8.4      2.391     10.640
REMARK  Name = 
REMARK  10 active torsions:
REMARK  status: ('A' for Active; 'I' for Inactive)
REMARK    1  A    between atoms: C_1  and  C_2
REMARK    2  A    between atoms: C_5  and  C_6
REMARK    3  A    between atoms: C_9  and  C_10
REMARK    4  A    between atoms: C_10  and  N_11
REMARK    5  A    between atoms: N_11  and  C_12
REMARK    6  A    between atoms: C_14  and  C_15
REMARK    7  A    between atoms: C_20  and  C_21
REMARK    8  A    between atoms: C_21  and  C_22
REMARK    9  A    between atoms: C_21  and  C_23
REMARK   10  A    between atoms: C_26  and  C_27
REMARK                            x       y       z     vdW  Elec       q    Type
REMARK                         _______ _______ _______ _____ _____    ______ ____
ROOT
ATOM      1  N   UNL     1      -0.611  12.214  18.013  0.00  0.00    +0.000 N 
ATOM      2  H   UNL     1      -0.402  11.599  17.236  0.00  0.00    +0.000 HD
ENDROOT
BRANCH   1   3
ATOM      3  C   UNL     1      -1.948  12.044  18.403  0.00  0.00    +0.000 A 
ATOM      4  N   UNL     1      -2.337  12.463  19.620  0.00  0.00    +0.000 NA
ATOM      5  C   UNL     1      -3.624  12.287  19.963  0.00  0.00    +0.000 A 
ATOM      6  N   UNL     1      -4.570  11.801  19.137  0.00  0.00    +0.000 NA
ATOM      7  C   UNL     1      -4.154  11.417  17.920  0.00  0.00    +0.000 A 
ATOM      8  C   UNL     1      -2.843  11.481  17.500  0.00  0.00    +0.000 A 
ATOM      9  C   UNL     1      -2.449  10.986  16.145  0.00  0.00    +0.000 C 
BRANCH   5  10
ATOM     10  C   UNL     1      -4.058  12.640  21.330  0.00  0.00    +0.000 A 
ATOM     11  C   UNL     1      -5.440  12.866  21.540  0.00  0.00    +0.000 A 
ATOM     12  C   UNL     1      -5.967  13.159  22.798  0.00  0.00    +0.000 A 
ATOM     13  C   UNL     1      -5.122  13.238  23.892  0.00  0.00    +0.000 A 
ATOM     14  C   UNL     1      -3.756  13.026  23.723  0.00  0.00    +0.000 A 
ATOM     15  C   UNL     1      -3.196  12.725  22.459  0.00  0.00    +0.000 A 
BRANCH  15  16
ATOM     16  C   UNL     1      -1.691  12.464  22.393  0.00  0.00    +0.000 C 
ATOM     17  C   UNL     1      -0.902  13.594  23.067  0.00  0.00    +0.000 C 
ATOM     18  C   UNL     1      -1.320  11.108  23.007  0.00  0.00    +0.000 C 
ENDBRANCH  15  16
ENDBRANCH   5  10
ENDBRANCH   1   3
BRANCH   1  19
ATOM     19  C   UNL     1       0.371  12.075  19.081  0.00  0.00    +0.000 C 
BRANCH  19  23
ATOM     20  C   UNL     1       1.983   8.025  19.082  0.00  0.00    +0.000 A 
ATOM     21  C   UNL     1       1.341   8.563  20.212  0.00  0.00    +0.000 A 
ATOM     22  C   UNL     1       0.809   9.857  20.209  0.00  0.00    +0.000 A 
ATOM     23  C   UNL     1       0.911  10.663  19.071  0.00  0.00    +0.000 A 
ATOM     24  C   UNL     1       1.530  10.134  17.931  0.00  0.00    +0.000 A 
ATOM     25  C   UNL     1       2.063   8.840  17.941  0.00  0.00    +0.000 A 
BRANCH  20  30
ATOM     26  C   UNL     1       4.161   2.701  19.297  0.00  0.00    +0.000 C 
ATOM     27  C   UNL     1       3.580   4.078  19.191  0.00  0.00    +0.000 A 
ATOM     28  C   UNL     1       3.804   4.856  18.063  0.00  0.00    +0.000 A 
ATOM     29  C   UNL     1       3.277   6.147  18.018  0.00  0.00    +0.000 A 
ATOM     30  C   UNL     1       2.528   6.653  19.090  0.00  0.00    +0.000 A 
ATOM     31  C   UNL     1       2.351   5.777  20.163  0.00  0.00    +0.000 A 
ATOM     32  N   UNL     1       2.858   4.520  20.241  0.00  0.00    +0.000 NA
ENDBRANCH  20  30
ENDBRANCH  19  23
ENDBRANCH   1  19
TORSDOF 6
ENDMDL
