MODEL 1
REMARK VINA RESULT:      -7.6      0.000      0.000
REMARK  Name = 
REMARK  9 active torsions:
REMARK  status: ('A' for Active; 'I' for Inactive)
REMARK    1  A    between atoms: C_1  and  C_2
REMARK    2  A    between atoms: C_4  and  C_5
REMARK    3  A    between atoms: C_7  and  N_8
REMARK    4  A    between atoms: C_9  and  C_11
REMARK    5  A    between atoms: C_11  and  O_12
REMARK    6  A    between atoms: O_12  and  C_13
REMARK    7  A    between atoms: C_13  and  C_15
REMARK    8  A    between atoms: C_17  and  O_18
REMARK    9  A    between atoms: C_20  and  O_21
REMARK                            x       y       z     vdW  Elec       q    Type
REMARK                         _______ _______ _______ _____ _____    ______ ____
ROOT
ATOM      1  C   UNL     1       3.184   3.207  17.849  0.00  0.00    +0.000 C 
ENDROOT
BRANCH   1   3
ATOM      2  N   UNL     1       2.838   5.379  18.900  0.00  0.00    +0.000 N 
ATOM      3  C   UNL     1       2.303   4.446  18.020  0.00  0.00    +0.000 C 
ATOM      4  O   UNL     1       1.217   4.511  17.449  0.00  0.00    +0.000 OA
ATOM      5  H   UNL     1       3.724   5.132  19.327  0.00  0.00    +0.000 HD
BRANCH   2  12
ATOM      6  C   UNL     1       1.951  10.077  17.660  0.00  0.00    +0.000 C 
ATOM      7  C   UNL     1       1.838   8.949  18.645  0.00  0.00    +0.000 A 
ATOM      8  C   UNL     1       1.198   9.149  19.873  0.00  0.00    +0.000 A 
ATOM      9  C   UNL     1       1.094   8.105  20.795  0.00  0.00    +0.000 A 
ATOM     10  C   UNL     1       0.415   8.292  22.119  0.00  0.00    +0.000 C 
ATOM     11  C   UNL     1       1.634   6.852  20.476  0.00  0.00    +0.000 A 
ATOM     12  C   UNL     1       2.280   6.627  19.260  0.00  0.00    +0.000 A 
ATOM     13  C   UNL     1       2.378   7.685  18.347  0.00  0.00    +0.000 A 
ENDBRANCH   2  12
ENDBRANCH   1   3
BRANCH   1  14
ATOM     14  O   UNL     1       4.555   3.436  18.168  0.00  0.00    +0.000 OA
BRANCH  14  15
ATOM     15  C   UNL     1       5.256   4.065  17.191  0.00  0.00    +0.000 C 
ATOM     16  O   UNL     1       5.102   3.921  15.988  0.00  0.00    +0.000 OA
BRANCH  15  17
ATOM     17  C   UNL     1       6.243   5.014  17.773  0.00  0.00    +0.000 A 
ATOM     18  C   UNL     1       6.575   6.133  17.038  0.00  0.00    +0.000 A 
ATOM     19  C   UNL     1       7.480   6.967  17.639  0.00  0.00    +0.000 A 
ATOM     20  N   UNL     1       8.027   6.741  18.838  0.00  0.00    +0.000 NA
ATOM     21  C   UNL     1       7.623   5.628  19.442  0.00  0.00    +0.000 A 
ATOM     22  N   UNL     1       6.746   4.735  18.994  0.00  0.00    +0.000 NA
BRANCH  19  23
ATOM     23  O   UNL     1       7.890   8.117  17.034  0.00  0.00    +0.000 OA
ATOM     24  H   UNL     1       7.993   8.810  17.705  0.00  0.00    +0.000 HD
ENDBRANCH  19  23
BRANCH  21  25
ATOM     25  O   UNL     1       8.188   5.400  20.654  0.00  0.00    +0.000 OA
ATOM     26  H   UNL     1       8.570   6.281  20.811  0.00  0.00    +0.000 HD
ENDBRANCH  21  25
ENDBRANCH  15  17
ENDBRANCH  14  15
ENDBRANCH   1  14
TORSDOF 7
ENDMDL
MODEL 2
REMARK VINA RESULT:      -7.5      1.546      1.840
REMARK  Name = 
REMARK  9 active torsions:
REMARK  status: ('A' for Active; 'I' for Inactive)
REMARK    1  A    between atoms: C_1  and  C_2
REMARK    2  A    between atoms: C_4  and  C_5
REMARK    3  A    between atoms: C_7  and  N_8
REMARK    4  A    between atoms: C_9  and  C_11
REMARK    5  A    between atoms: C_11  and  O_12
REMARK    6  A    between atoms: O_12  and  C_13
REMARK    7  A    between atoms: C_13  and  C_15
REMARK    8  A    between atoms: C_17  and  O_18
REMARK    9  A    between atoms: C_20  and  O_21
REMARK                            x       y       z     vdW  Elec       q    Type
REMARK                         _______ _______ _______ _____ _____    ______ ____
ROOT
ATOM      1  C   UNL     1       2.852   3.042  20.577  0.00  0.00    +0.000 C 
ENDROOT
BRANCH   1   3
ATOM      2  N   UNL     1       2.560   5.462  20.562  0.00  0.00    +0.000 N 
ATOM      3  C   UNL     1       1.947   4.243  20.295  0.00  0.00    +0.000 C 
ATOM      4  O   UNL     1       0.788   4.066  19.930  0.00  0.00    +0.000 OA
ATOM      5  H   UNL     1       3.510   5.416  20.914  0.00  0.00    +0.000 HD
BRANCH   2  12
ATOM      6  C   UNL     1       2.059   9.463  17.710  0.00  0.00    +0.000 C 
ATOM      7  C   UNL     1       1.751   8.727  18.981  0.00  0.00    +0.000 A 
ATOM      8  C   UNL     1       0.935   9.314  19.955  0.00  0.00    +0.000 A 
ATOM      9  C   UNL     1       0.648   8.635  21.141  0.00  0.00    +0.000 A 
ATOM     10  C   UNL     1      -0.222   9.241  22.201  0.00  0.00    +0.000 C 
ATOM     11  C   UNL     1       1.183   7.356  21.346  0.00  0.00    +0.000 A 
ATOM     12  C   UNL     1       2.001   6.749  20.393  0.00  0.00    +0.000 A 
ATOM     13  C   UNL     1       2.281   7.444  19.210  0.00  0.00    +0.000 A 
ENDBRANCH   2  12
ENDBRANCH   1   3
BRANCH   1  14
ATOM     14  O   UNL     1       4.148   3.157  19.992  0.00  0.00    +0.000 OA
BRANCH  14  15
ATOM     15  C   UNL     1       4.144   3.228  18.637  0.00  0.00    +0.000 C 
ATOM     16  O   UNL     1       3.500   2.517  17.881  0.00  0.00    +0.000 OA
BRANCH  15  17
ATOM     17  C   UNL     1       5.012   4.339  18.161  0.00  0.00    +0.000 A 
ATOM     18  C   UNL     1       4.644   4.999  17.007  0.00  0.00    +0.000 A 
ATOM     19  C   UNL     1       5.483   6.015  16.635  0.00  0.00    +0.000 A 
ATOM     20  N   UNL     1       6.586   6.361  17.306  0.00  0.00    +0.000 NA
ATOM     21  C   UNL     1       6.828   5.646  18.401  0.00  0.00    +0.000 A 
ATOM     22  N   UNL     1       6.103   4.648  18.893  0.00  0.00    +0.000 NA
BRANCH  19  23
ATOM     23  O   UNL     1       5.236   6.762  15.523  0.00  0.00    +0.000 OA
ATOM     24  H   UNL     1       6.077   7.080  15.160  0.00  0.00    +0.000 HD
ENDBRANCH  19  23
BRANCH  21  25
ATOM     25  O   UNL     1       7.953   5.998  19.073  0.00  0.00    +0.000 OA
ATOM     26  H   UNL     1       7.588   6.717  19.616  0.00  0.00    +0.000 HD
ENDBRANCH  21  25
ENDBRANCH  15  17
ENDBRANCH  14  15
ENDBRANCH   1  14
TORSDOF 7
ENDMDL
MODEL 3
REMARK VINA RESULT:      -7.4      1.848      2.535
REMARK  Name = 
REMARK  9 active torsions:
REMARK  status: ('A' for Active; 'I' for Inactive)
REMARK    1  A    between atoms: C_1  and  C_2
REMARK    2  A    between atoms: C_4  and  C_5
REMARK    3  A    between atoms: C_7  and  N_8
REMARK    4  A    between atoms: C_9  and  C_11
REMARK    5  A    between atoms: C_11  and  O_12
REMARK    6  A    between atoms: O_12  and  C_13
REMARK    7  A    between atoms: C_13  and  C_15
REMARK    8  A    between atoms: C_17  and  O_18
REMARK    9  A    between atoms: C_20  and  O_21
REMARK                            x       y       z     vdW  Elec       q    Type
REMARK                         _______ _______ _______ _____ _____    ______ ____
ROOT
ATOM      1  C   UNL     1       3.293   4.094  19.973  0.00  0.00    +0.000 C 
ENDROOT
BRANCH   1   3
ATOM      2  N   UNL     1       2.625   6.434  20.120  0.00  0.00    +0.000 N 
ATOM      3  C   UNL     1       2.188   5.119  20.237  0.00  0.00    +0.000 C 
ATOM      4  O   UNL     1       1.068   4.742  20.572  0.00  0.00    +0.000 OA
ATOM      5  H   UNL     1       3.604   6.559  19.890  0.00  0.00    +0.000 HD
BRANCH   2  12
ATOM      6  C   UNL     1       0.815  10.571  18.120  0.00  0.00    +0.000 C 
ATOM      7  C   UNL     1       0.953   9.649  19.297  0.00  0.00    +0.000 A 
ATOM      8  C   UNL     1       0.328   9.958  20.510  0.00  0.00    +0.000 A 
ATOM      9  C   UNL     1       0.457   9.106  21.609  0.00  0.00    +0.000 A 
ATOM     10  C   UNL     1      -0.201   9.413  22.921  0.00  0.00    +0.000 C 
ATOM     11  C   UNL     1       1.215   7.934  21.484  0.00  0.00    +0.000 A 
ATOM     12  C   UNL     1       1.850   7.604  20.287  0.00  0.00    +0.000 A 
ATOM     13  C   UNL     1       1.714   8.471  19.195  0.00  0.00    +0.000 A 
ENDBRANCH   2  12
ENDBRANCH   1   3
BRANCH   1  14
ATOM     14  O   UNL     1       4.286   4.552  19.057  0.00  0.00    +0.000 OA
BRANCH  14  15
ATOM     15  C   UNL     1       4.423   3.778  17.951  0.00  0.00    +0.000 C 
ATOM     16  O   UNL     1       3.811   2.748  17.713  0.00  0.00    +0.000 OA
BRANCH  15  17
ATOM     17  C   UNL     1       5.408   4.371  17.007  0.00  0.00    +0.000 A 
ATOM     18  C   UNL     1       5.533   3.798  15.758  0.00  0.00    +0.000 A 
ATOM     19  C   UNL     1       6.450   4.402  14.940  0.00  0.00    +0.000 A 
ATOM     20  N   UNL     1       7.190   5.457  15.292  0.00  0.00    +0.000 NA
ATOM     21  C   UNL     1       6.974   5.913  16.522  0.00  0.00    +0.000 A 
ATOM     22  N   UNL     1       6.113   5.445  17.419  0.00  0.00    +0.000 NA
BRANCH  19  23
ATOM     23  O   UNL     1       6.669   3.951  13.672  0.00  0.00    +0.000 OA
ATOM     24  H   UNL     1       6.297   4.585  13.040  0.00  0.00    +0.000 HD
ENDBRANCH  19  23
BRANCH  21  25
ATOM     25  O   UNL     1       7.734   6.980  16.876  0.00  0.00    +0.000 OA
ATOM     26  H   UNL     1       7.554   7.555  16.113  0.00  0.00    +0.000 HD
ENDBRANCH  21  25
ENDBRANCH  15  17
ENDBRANCH  14  15
ENDBRANCH   1  14
TORSDOF 7
ENDMDL
MODEL 4
REMARK VINA RESULT:      -7.4      1.901      3.341
REMARK  Name = 
REMARK  9 active torsions:
REMARK  status: ('A' for Active; 'I' for Inactive)
REMARK    1  A    between atoms: C_1  and  C_2
REMARK    2  A    between atoms: C_4  and  C_5
REMARK    3  A    between atoms: C_7  and  N_8
REMARK    4  A    between atoms: C_9  and  C_11
REMARK    5  A    between atoms: C_11  and  O_12
REMARK    6  A    between atoms: O_12  and  C_13
REMARK    7  A    between atoms: C_13  and  C_15
REMARK    8  A    between atoms: C_17  and  O_18
REMARK    9  A    between atoms: C_20  and  O_21
REMARK                            x       y       z     vdW  Elec       q    Type
REMARK                         _______ _______ _______ _____ _____    ______ ____
ROOT
ATOM      1  C   UNL     1       5.040   4.106  15.540  0.00  0.00    +0.000 C 
ENDROOT
BRANCH   1   3
ATOM      2  N   UNL     1       3.763   3.890  17.605  0.00  0.00    +0.000 N 
ATOM      3  C   UNL     1       4.302   4.790  16.693  0.00  0.00    +0.000 C 
ATOM      4  O   UNL     1       4.188   6.012  16.710  0.00  0.00    +0.000 OA
ATOM      5  H   UNL     1       3.908   2.907  17.401  0.00  0.00    +0.000 HD
BRANCH   2  12
ATOM      6  C   UNL     1       1.745   7.364  20.477  0.00  0.00    +0.000 C 
ATOM      7  C   UNL     1       2.040   5.919  20.198  0.00  0.00    +0.000 A 
ATOM      8  C   UNL     1       1.604   4.928  21.085  0.00  0.00    +0.000 A 
ATOM      9  C   UNL     1       1.879   3.582  20.832  0.00  0.00    +0.000 A 
ATOM     10  C   UNL     1       1.426   2.500  21.766  0.00  0.00    +0.000 C 
ATOM     11  C   UNL     1       2.593   3.232  19.678  0.00  0.00    +0.000 A 
ATOM     12  C   UNL     1       3.040   4.200  18.779  0.00  0.00    +0.000 A 
ATOM     13  C   UNL     1       2.759   5.546  19.049  0.00  0.00    +0.000 A 
ENDBRANCH   2  12
ENDBRANCH   1   3
BRANCH   1  14
ATOM     14  O   UNL     1       6.416   3.853  15.816  0.00  0.00    +0.000 OA
BRANCH  14  15
ATOM     15  C   UNL     1       7.240   4.895  15.542  0.00  0.00    +0.000 C 
ATOM     16  O   UNL     1       7.687   5.190  14.445  0.00  0.00    +0.000 OA
BRANCH  15  17
ATOM     17  C   UNL     1       7.515   5.691  16.769  0.00  0.00    +0.000 A 
ATOM     18  C   UNL     1       7.650   5.013  17.963  0.00  0.00    +0.000 A 
ATOM     19  C   UNL     1       7.912   5.808  19.047  0.00  0.00    +0.000 A 
ATOM     20  N   UNL     1       8.024   7.139  18.992  0.00  0.00    +0.000 NA
ATOM     21  C   UNL     1       7.871   7.668  17.783  0.00  0.00    +0.000 A 
ATOM     22  N   UNL     1       7.631   7.030  16.643  0.00  0.00    +0.000 NA
BRANCH  19  23
ATOM     23  O   UNL     1       8.083   5.273  20.289  0.00  0.00    +0.000 OA
ATOM     24  H   UNL     1       7.705   5.874  20.949  0.00  0.00    +0.000 HD
ENDBRANCH  19  23
BRANCH  21  25
ATOM     25  O   UNL     1       7.978   9.020  17.735  0.00  0.00    +0.000 OA
ATOM     26  H   UNL     1       8.249   9.119  16.806  0.00  0.00    +0.000 HD
ENDBRANCH  21  25
ENDBRANCH  15  17
ENDBRANCH  14  15
ENDBRANCH   1  14
TORSDOF 7
ENDMDL
MODEL 5
REMARK VINA RESULT:      -7.4      1.620      2.212
REMARK  Name = 
REMARK  9 active torsions:
REMARK  status: ('A' for Active; 'I' for Inactive)
REMARK    1  A    between atoms: C_1  and  C_2
REMARK    2  A    between atoms: C_4  and  C_5
REMARK    3  A    between atoms: C_7  and  N_8
REMARK    4  A    between atoms: C_9  and  C_11
REMARK    5  A    between atoms: C_11  and  O_12
REMARK    6  A    between atoms: O_12  and  C_13
REMARK    7  A    between atoms: C_13  and  C_15
REMARK    8  A    between atoms: C_17  and  O_18
REMARK    9  A    between atoms: C_20  and  O_21
REMARK                            x       y       z     vdW  Elec       q    Type
REMARK                         _______ _______ _______ _____ _____    ______ ____
ROOT
ATOM      1  C   UNL     1       3.077   3.367  20.223  0.00  0.00    +0.000 C 
ENDROOT
BRANCH   1   3
ATOM      2  N   UNL     1       2.671   5.771  20.209  0.00  0.00    +0.000 N 
ATOM      3  C   UNL     1       2.068   4.518  20.219  0.00  0.00    +0.000 C 
ATOM      4  O   UNL     1       0.865   4.281  20.278  0.00  0.00    +0.000 OA
ATOM      5  H   UNL     1       3.685   5.778  20.218  0.00  0.00    +0.000 HD
BRANCH   2  12
ATOM      6  C   UNL     1       1.734   9.956  17.759  0.00  0.00    +0.000 C 
ATOM      7  C   UNL     1       1.556   9.095  18.976  0.00  0.00    +0.000 A 
ATOM      8  C   UNL     1       0.770   9.540  20.044  0.00  0.00    +0.000 A 
ATOM      9  C   UNL     1       0.604   8.745  21.180  0.00  0.00    +0.000 A 
ATOM     10  C   UNL     1      -0.232   9.198  22.340  0.00  0.00    +0.000 C 
ATOM     11  C   UNL     1       1.230   7.493  21.239  0.00  0.00    +0.000 A 
ATOM     12  C   UNL     1       2.022   7.026  20.189  0.00  0.00    +0.000 A 
ATOM     13  C   UNL     1       2.180   7.837  19.058  0.00  0.00    +0.000 A 
ENDBRANCH   2  12
ENDBRANCH   1   3
BRANCH   1  14
ATOM     14  O   UNL     1       4.337   3.714  19.653  0.00  0.00    +0.000 OA
BRANCH  14  15
ATOM     15  C   UNL     1       4.425   3.491  18.318  0.00  0.00    +0.000 C 
ATOM     16  O   UNL     1       3.702   2.757  17.662  0.00  0.00    +0.000 OA
BRANCH  15  17
ATOM     17  C   UNL     1       5.517   4.302  17.715  0.00  0.00    +0.000 A 
ATOM     18  C   UNL     1       6.199   5.178  18.534  0.00  0.00    +0.000 A 
ATOM     19  C   UNL     1       7.196   5.883  17.914  0.00  0.00    +0.000 A 
ATOM     20  N   UNL     1       7.504   5.767  16.618  0.00  0.00    +0.000 NA
ATOM     21  C   UNL     1       6.770   4.890  15.940  0.00  0.00    +0.000 A 
ATOM     22  N   UNL     1       5.787   4.126  16.404  0.00  0.00    +0.000 NA
BRANCH  19  23
ATOM     23  O   UNL     1       7.963   6.775  18.603  0.00  0.00    +0.000 OA
ATOM     24  H   UNL     1       8.011   6.501  19.532  0.00  0.00    +0.000 HD
ENDBRANCH  19  23
BRANCH  21  25
ATOM     25  O   UNL     1       7.083   4.783  14.624  0.00  0.00    +0.000 OA
ATOM     26  H   UNL     1       6.336   4.229  14.336  0.00  0.00    +0.000 HD
ENDBRANCH  21  25
ENDBRANCH  15  17
ENDBRANCH  14  15
ENDBRANCH   1  14
TORSDOF 7
ENDMDL
MODEL 6
REMARK VINA RESULT:      -7.4      3.442      7.452
REMARK  Name = 
REMARK  9 active torsions:
REMARK  status: ('A' for Active; 'I' for Inactive)
REMARK    1  A    between atoms: C_1  and  C_2
REMARK    2  A    between atoms: C_4  and  C_5
REMARK    3  A    between atoms: C_7  and  N_8
REMARK    4  A    between atoms: C_9  and  C_11
REMARK    5  A    between atoms: C_11  and  O_12
REMARK    6  A    between atoms: O_12  and  C_13
REMARK    7  A    between atoms: C_13  and  C_15
REMARK    8  A    between atoms: C_17  and  O_18
REMARK    9  A    between atoms: C_20  and  O_21
REMARK                            x       y       z     vdW  Elec       q    Type
REMARK                         _______ _______ _______ _____ _____    ______ ____
ROOT
ATOM      1  C   UNL     1       6.398   4.928  18.478  0.00  0.00    +0.000 C 
ENDROOT
BRANCH   1   3
ATOM      2  N   UNL     1       6.229   4.882  16.046  0.00  0.00    +0.000 N 
ATOM      3  C   UNL     1       7.063   4.636  17.131  0.00  0.00    +0.000 C 
ATOM      4  O   UNL     1       8.201   4.175  17.095  0.00  0.00    +0.000 OA
ATOM      5  H   UNL     1       5.295   5.209  16.268  0.00  0.00    +0.000 HD
BRANCH   2  12
ATOM      6  C   UNL     1       5.477   2.413  11.835  0.00  0.00    +0.000 C 
ATOM      7  C   UNL     1       6.172   3.506  12.595  0.00  0.00    +0.000 A 
ATOM      8  C   UNL     1       7.100   4.332  11.949  0.00  0.00    +0.000 A 
ATOM      9  C   UNL     1       7.752   5.348  12.652  0.00  0.00    +0.000 A 
ATOM     10  C   UNL     1       8.751   6.246  11.985  0.00  0.00    +0.000 C 
ATOM     11  C   UNL     1       7.464   5.536  14.010  0.00  0.00    +0.000 A 
ATOM     12  C   UNL     1       6.546   4.726  14.678  0.00  0.00    +0.000 A 
ATOM     13  C   UNL     1       5.903   3.710  13.960  0.00  0.00    +0.000 A 
ENDBRANCH   2  12
ENDBRANCH   1   3
BRANCH   1  14
ATOM     14  O   UNL     1       5.296   4.070  18.766  0.00  0.00    +0.000 OA
BRANCH  14  15
ATOM     15  C   UNL     1       4.081   4.619  18.513  0.00  0.00    +0.000 C 
ATOM     16  O   UNL     1       3.867   5.608  17.829  0.00  0.00    +0.000 OA
BRANCH  15  17
ATOM     17  C   UNL     1       2.997   3.825  19.151  0.00  0.00    +0.000 A 
ATOM     18  C   UNL     1       2.079   3.206  18.329  0.00  0.00    +0.000 A 
ATOM     19  C   UNL     1       1.117   2.485  18.985  0.00  0.00    +0.000 A 
ATOM     20  N   UNL     1       1.036   2.376  20.314  0.00  0.00    +0.000 NA
ATOM     21  C   UNL     1       1.981   3.021  20.992  0.00  0.00    +0.000 A 
ATOM     22  N   UNL     1       2.981   3.743  20.498  0.00  0.00    +0.000 NA
BRANCH  19  23
ATOM     23  O   UNL     1       0.151   1.809  18.299  0.00  0.00    +0.000 OA
ATOM     24  H   UNL     1       0.272   1.959  17.349  0.00  0.00    +0.000 HD
ENDBRANCH  19  23
BRANCH  21  25
ATOM     25  O   UNL     1       1.889   2.914  22.341  0.00  0.00    +0.000 OA
ATOM     26  H   UNL     1       1.420   2.063  22.394  0.00  0.00    +0.000 HD
ENDBRANCH  21  25
ENDBRANCH  15  17
ENDBRANCH  14  15
ENDBRANCH   1  14
TORSDOF 7
ENDMDL
MODEL 7
REMARK VINA RESULT:      -7.3      2.766      4.634
REMARK  Name = 
REMARK  9 active torsions:
REMARK  status: ('A' for Active; 'I' for Inactive)
REMARK    1  A    between atoms: C_1  and  C_2
REMARK    2  A    between atoms: C_4  and  C_5
REMARK    3  A    between atoms: C_7  and  N_8
REMARK    4  A    between atoms: C_9  and  C_11
REMARK    5  A    between atoms: C_11  and  O_12
REMARK    6  A    between atoms: O_12  and  C_13
REMARK    7  A    between atoms: C_13  and  C_15
REMARK    8  A    between atoms: C_17  and  O_18
REMARK    9  A    between atoms: C_20  and  O_21
REMARK                            x       y       z     vdW  Elec       q    Type
REMARK                         _______ _______ _______ _____ _____    ______ ____
ROOT
ATOM      1  C   UNL     1       3.838   6.078  18.289  0.00  0.00    +0.000 C 
ENDROOT
BRANCH   1   3
ATOM      2  N   UNL     1       2.291   7.406  19.626  0.00  0.00    +0.000 N 
ATOM      3  C   UNL     1       2.965   7.329  18.413  0.00  0.00    +0.000 C 
ATOM      4  O   UNL     1       2.874   8.110  17.469  0.00  0.00    +0.000 OA
ATOM      5  H   UNL     1       2.443   6.637  20.270  0.00  0.00    +0.000 HD
BRANCH   2  12
ATOM      6  C   UNL     1      -0.145   9.547  23.351  0.00  0.00    +0.000 C 
ATOM      7  C   UNL     1       0.220   9.496  21.896  0.00  0.00    +0.000 A 
ATOM      8  C   UNL     1      -0.294  10.448  21.008  0.00  0.00    +0.000 A 
ATOM      9  C   UNL     1       0.040  10.404  19.652  0.00  0.00    +0.000 A 
ATOM     10  C   UNL     1      -0.498  11.410  18.679  0.00  0.00    +0.000 C 
ATOM     11  C   UNL     1       0.899   9.398  19.189  0.00  0.00    +0.000 A 
ATOM     12  C   UNL     1       1.423   8.436  20.052  0.00  0.00    +0.000 A 
ATOM     13  C   UNL     1       1.077   8.493  21.409  0.00  0.00    +0.000 A 
ENDBRANCH   2  12
ENDBRANCH   1   3
BRANCH   1  14
ATOM     14  O   UNL     1       3.319   5.111  17.378  0.00  0.00    +0.000 OA
BRANCH  14  15
ATOM     15  C   UNL     1       2.284   4.383  17.868  0.00  0.00    +0.000 C 
ATOM     16  O   UNL     1       1.165   4.309  17.385  0.00  0.00    +0.000 OA
BRANCH  15  17
ATOM     17  C   UNL     1       2.694   3.627  19.082  0.00  0.00    +0.000 A 
ATOM     18  C   UNL     1       1.854   3.652  20.175  0.00  0.00    +0.000 A 
ATOM     19  C   UNL     1       2.290   2.926  21.251  0.00  0.00    +0.000 A 
ATOM     20  N   UNL     1       3.439   2.243  21.279  0.00  0.00    +0.000 NA
ATOM     21  C   UNL     1       4.157   2.300  20.162  0.00  0.00    +0.000 A 
ATOM     22  N   UNL     1       3.859   2.946  19.039  0.00  0.00    +0.000 NA
BRANCH  19  23
ATOM     23  O   UNL     1       1.555   2.850  22.396  0.00  0.00    +0.000 OA
ATOM     24  H   UNL     1       1.066   2.012  22.405  0.00  0.00    +0.000 HD
ENDBRANCH  19  23
BRANCH  21  25
ATOM     25  O   UNL     1       5.326   1.612  20.200  0.00  0.00    +0.000 OA
ATOM     26  H   UNL     1       5.705   1.910  19.356  0.00  0.00    +0.000 HD
ENDBRANCH  21  25
ENDBRANCH  15  17
ENDBRANCH  14  15
ENDBRANCH   1  14
TORSDOF 7
ENDMDL
MODEL 8
REMARK VINA RESULT:      -7.3      3.200      4.774
REMARK  Name = 
REMARK  9 active torsions:
REMARK  status: ('A' for Active; 'I' for Inactive)
REMARK    1  A    between atoms: C_1  and  C_2
REMARK    2  A    between atoms: C_4  and  C_5
REMARK    3  A    between atoms: C_7  and  N_8
REMARK    4  A    between atoms: C_9  and  C_11
REMARK    5  A    between atoms: C_11  and  O_12
REMARK    6  A    between atoms: O_12  and  C_13
REMARK    7  A    between atoms: C_13  and  C_15
REMARK    8  A    between atoms: C_17  and  O_18
REMARK    9  A    between atoms: C_20  and  O_21
REMARK                            x       y       z     vdW  Elec       q    Type
REMARK                         _______ _______ _______ _____ _____    ______ ____
ROOT
ATOM      1  C   UNL     1       7.103   5.820  17.507  0.00  0.00    +0.000 C 
ENDROOT
BRANCH   1   3
ATOM      2  N   UNL     1       4.816   5.740  18.347  0.00  0.00    +0.000 N 
ATOM      3  C   UNL     1       6.153   5.553  18.677  0.00  0.00    +0.000 C 
ATOM      4  O   UNL     1       6.605   5.263  19.781  0.00  0.00    +0.000 OA
ATOM      5  H   UNL     1       4.629   6.037  17.395  0.00  0.00    +0.000 HD
BRANCH   2  12
ATOM      6  C   UNL     1       1.152   7.816  20.929  0.00  0.00    +0.000 C 
ATOM      7  C   UNL     1       1.885   6.589  20.469  0.00  0.00    +0.000 A 
ATOM      8  C   UNL     1       1.458   5.320  20.877  0.00  0.00    +0.000 A 
ATOM      9  C   UNL     1       2.138   4.175  20.454  0.00  0.00    +0.000 A 
ATOM     10  C   UNL     1       1.704   2.804  20.878  0.00  0.00    +0.000 C 
ATOM     11  C   UNL     1       3.251   4.310  19.613  0.00  0.00    +0.000 A 
ATOM     12  C   UNL     1       3.698   5.562  19.194  0.00  0.00    +0.000 A 
ATOM     13  C   UNL     1       3.007   6.701  19.628  0.00  0.00    +0.000 A 
ENDBRANCH   2  12
ENDBRANCH   1   3
BRANCH   1  14
ATOM     14  O   UNL     1       7.433   4.649  16.764  0.00  0.00    +0.000 OA
BRANCH  14  15
ATOM     15  C   UNL     1       6.412   4.155  16.020  0.00  0.00    +0.000 C 
ATOM     16  O   UNL     1       5.365   3.695  16.450  0.00  0.00    +0.000 OA
BRANCH  15  17
ATOM     17  C   UNL     1       6.705   4.278  14.567  0.00  0.00    +0.000 A 
ATOM     18  C   UNL     1       6.072   3.409  13.703  0.00  0.00    +0.000 A 
ATOM     19  C   UNL     1       6.382   3.588  12.381  0.00  0.00    +0.000 A 
ATOM     20  N   UNL     1       7.232   4.514  11.928  0.00  0.00    +0.000 NA
ATOM     21  C   UNL     1       7.775   5.287  12.863  0.00  0.00    +0.000 A 
ATOM     22  N   UNL     1       7.562   5.244  14.174  0.00  0.00    +0.000 NA
BRANCH  19  23
ATOM     23  O   UNL     1       5.820   2.809  11.413  0.00  0.00    +0.000 OA
ATOM     24  H   UNL     1       5.733   1.902  11.746  0.00  0.00    +0.000 HD
ENDBRANCH  19  23
BRANCH  21  25
ATOM     25  O   UNL     1       8.644   6.220  12.397  0.00  0.00    +0.000 OA
ATOM     26  H   UNL     1       9.462   5.879  12.798  0.00  0.00    +0.000 HD
ENDBRANCH  21  25
ENDBRANCH  15  17
ENDBRANCH  14  15
ENDBRANCH   1  14
TORSDOF 7
ENDMDL
MODEL 9
REMARK VINA RESULT:      -7.3      1.293      2.111
REMARK  Name = 
REMARK  9 active torsions:
REMARK  status: ('A' for Active; 'I' for Inactive)
REMARK    1  A    between atoms: C_1  and  C_2
REMARK    2  A    between atoms: C_4  and  C_5
REMARK    3  A    between atoms: C_7  and  N_8
REMARK    4  A    between atoms: C_9  and  C_11
REMARK    5  A    between atoms: C_11  and  O_12
REMARK    6  A    between atoms: O_12  and  C_13
REMARK    7  A    between atoms: C_13  and  C_15
REMARK    8  A    between atoms: C_17  and  O_18
REMARK    9  A    between atoms: C_20  and  O_21
REMARK                            x       y       z     vdW  Elec       q    Type
REMARK                         _______ _______ _______ _____ _____    ______ ____
ROOT
ATOM      1  C   UNL     1       2.900   3.086  18.651  0.00  0.00    +0.000 C 
ENDROOT
BRANCH   1   3
ATOM      2  N   UNL     1       2.523   5.314  19.565  0.00  0.00    +0.000 N 
ATOM      3  C   UNL     1       2.181   4.433  18.546  0.00  0.00    +0.000 C 
ATOM      4  O   UNL     1       1.355   4.620  17.657  0.00  0.00    +0.000 OA
ATOM      5  H   UNL     1       3.185   4.968  20.251  0.00  0.00    +0.000 HD
BRANCH   2  12
ATOM      6  C   UNL     1       2.044   9.872  17.722  0.00  0.00    +0.000 C 
ATOM      7  C   UNL     1       1.808   8.886  18.831  0.00  0.00    +0.000 A 
ATOM      8  C   UNL     1       1.138   9.282  19.993  0.00  0.00    +0.000 A 
ATOM      9  C   UNL     1       0.919   8.371  21.029  0.00  0.00    +0.000 A 
ATOM     10  C   UNL     1       0.205   8.768  22.286  0.00  0.00    +0.000 C 
ATOM     11  C   UNL     1       1.374   7.053  20.890  0.00  0.00    +0.000 A 
ATOM     12  C   UNL     1       2.047   6.633  19.743  0.00  0.00    +0.000 A 
ATOM     13  C   UNL     1       2.261   7.560  18.715  0.00  0.00    +0.000 A 
ENDBRANCH   2  12
ENDBRANCH   1   3
BRANCH   1  14
ATOM     14  O   UNL     1       4.126   3.038  17.924  0.00  0.00    +0.000 OA
BRANCH  14  15
ATOM     15  C   UNL     1       5.127   3.773  18.471  0.00  0.00    +0.000 C 
ATOM     16  O   UNL     1       5.421   3.819  19.655  0.00  0.00    +0.000 OA
BRANCH  15  17
ATOM     17  C   UNL     1       5.880   4.509  17.420  0.00  0.00    +0.000 A 
ATOM     18  C   UNL     1       5.929   3.961  16.155  0.00  0.00    +0.000 A 
ATOM     19  C   UNL     1       6.630   4.698  15.238  0.00  0.00    +0.000 A 
ATOM     20  N   UNL     1       7.239   5.855  15.512  0.00  0.00    +0.000 NA
ATOM     21  C   UNL     1       7.116   6.274  16.768  0.00  0.00    +0.000 A 
ATOM     22  N   UNL     1       6.460   5.680  17.759  0.00  0.00    +0.000 NA
BRANCH  19  23
ATOM     23  O   UNL     1       6.750   4.284  13.945  0.00  0.00    +0.000 OA
ATOM     24  H   UNL     1       5.900   4.399  13.494  0.00  0.00    +0.000 HD
ENDBRANCH  19  23
BRANCH  21  25
ATOM     25  O   UNL     1       7.744   7.445  17.042  0.00  0.00    +0.000 OA
ATOM     26  H   UNL     1       8.661   7.169  16.872  0.00  0.00    +0.000 HD
ENDBRANCH  21  25
ENDBRANCH  15  17
ENDBRANCH  14  15
ENDBRANCH   1  14
TORSDOF 7
ENDMDL
