MODEL 1
REMARK VINA RESULT:      -8.7      0.000      0.000
REMARK  Name = 
REMARK  9 active torsions:
REMARK  status: ('A' for Active; 'I' for Inactive)
REMARK    1  A    between atoms: O_1  and  C_2
REMARK    2  A    between atoms: C_11  and  C_12
REMARK    3  A    between atoms: C_12  and  N_13
REMARK    4  A    between atoms: N_16  and  C_17
REMARK    5  A    between atoms: C_17  and  C_18
REMARK    6  A    between atoms: C_18  and  O_19
REMARK    7  A    between atoms: O_19  and  C_20
REMARK    8  A    between atoms: C_20  and  C_21
REMARK    9  A    between atoms: C_20  and  C_27
REMARK                            x       y       z     vdW  Elec       q    Type
REMARK                         _______ _______ _______ _____ _____    ______ ____
ROOT
ATOM      1  N   UNL     1      -0.638  11.496  20.718  0.00  0.00    +0.000 NA
ATOM      2  C   UNL     1      -1.272  10.618  19.713  0.00  0.00    +0.000 C 
ATOM      3  C   UNL     1      -0.608  10.426  18.321  0.00  0.00    +0.000 C 
ATOM      4  N   UNL     1       0.860  10.388  18.274  0.00  0.00    +0.000 NA
ATOM      5  C   UNL     1       1.349  11.497  19.120  0.00  0.00    +0.000 C 
ATOM      6  C   UNL     1       0.834  11.442  20.578  0.00  0.00    +0.000 C 
ENDROOT
BRANCH   1   7
ATOM      7  C   UNL     1      -1.133  12.887  20.819  0.00  0.00    +0.000 C 
BRANCH   7  17
ATOM      8  C   UNL     1      -3.705  12.951  21.043  0.00  0.00    +0.000 C 
ATOM      9  C   UNL     1      -4.929  12.886  21.956  0.00  0.00    +0.000 A 
ATOM     10  C   UNL     1      -6.238  12.905  21.439  0.00  0.00    +0.000 A 
ATOM     11  C   UNL     1      -7.355  12.824  22.280  0.00  0.00    +0.000 A 
ATOM     12  C   UNL     1      -7.188  12.719  23.655  0.00  0.00    +0.000 A 
ATOM     13  C   UNL     1      -5.908  12.681  24.188  0.00  0.00    +0.000 A 
ATOM     14  C   UNL     1      -4.780  12.733  23.352  0.00  0.00    +0.000 A 
ATOM     15  C   UNL     1      -3.427  12.658  23.989  0.00  0.00    +0.000 C 
ATOM     16  C   UNL     1      -2.355  12.208  23.010  0.00  0.00    +0.000 C 
ATOM     17  C   UNL     1      -2.339  13.125  21.786  0.00  0.00    +0.000 C 
BRANCH   8  18
ATOM     18  O   UNL     1      -3.824  14.005  20.086  0.00  0.00    +0.000 OA
ATOM     19  H   UNL     1      -4.282  13.664  19.307  0.00  0.00    +0.000 HD
ENDBRANCH   8  18
ENDBRANCH   7  17
ENDBRANCH   1   7
BRANCH   4  20
ATOM     20  C   UNL     1       1.448   9.102  18.699  0.00  0.00    +0.000 C 
BRANCH  20  21
ATOM     21  C   UNL     1       2.695   8.640  17.926  0.00  0.00    +0.000 C 
BRANCH  21  22
ATOM     22  O   UNL     1       2.545   7.240  17.637  0.00  0.00    +0.000 OA
BRANCH  22  23
ATOM     23  C   UNL     1       3.230   6.380  18.567  0.00  0.00    +0.000 C 
BRANCH  23  24
ATOM     24  C   UNL     1       2.320   5.243  19.005  0.00  0.00    +0.000 A 
ATOM     25  C   UNL     1       1.977   5.064  20.354  0.00  0.00    +0.000 A 
ATOM     26  C   UNL     1       1.255   3.941  20.761  0.00  0.00    +0.000 A 
ATOM     27  C   UNL     1       0.861   2.986  19.825  0.00  0.00    +0.000 A 
ATOM     28  C   UNL     1       1.169   3.163  18.478  0.00  0.00    +0.000 A 
ATOM     29  C   UNL     1       1.891   4.287  18.069  0.00  0.00    +0.000 A 
ENDBRANCH  23  24
BRANCH  23  30
ATOM     30  C   UNL     1       4.553   5.921  17.957  0.00  0.00    +0.000 A 
ATOM     31  C   UNL     1       5.540   5.336  18.771  0.00  0.00    +0.000 A 
ATOM     32  C   UNL     1       6.781   4.971  18.243  0.00  0.00    +0.000 A 
ATOM     33  C   UNL     1       7.053   5.172  16.890  0.00  0.00    +0.000 A 
ATOM     34  C   UNL     1       6.077   5.722  16.063  0.00  0.00    +0.000 A 
ATOM     35  C   UNL     1       4.837   6.090  16.591  0.00  0.00    +0.000 A 
ENDBRANCH  23  30
ENDBRANCH  22  23
ENDBRANCH  21  22
ENDBRANCH  20  21
ENDBRANCH   4  20
TORSDOF 9
ENDMDL
MODEL 2
REMARK VINA RESULT:      -8.7      0.555      3.292
REMARK  Name = 
REMARK  9 active torsions:
REMARK  status: ('A' for Active; 'I' for Inactive)
REMARK    1  A    between atoms: O_1  and  C_2
REMARK    2  A    between atoms: C_11  and  C_12
REMARK    3  A    between atoms: C_12  and  N_13
REMARK    4  A    between atoms: N_16  and  C_17
REMARK    5  A    between atoms: C_17  and  C_18
REMARK    6  A    between atoms: C_18  and  O_19
REMARK    7  A    between atoms: O_19  and  C_20
REMARK    8  A    between atoms: C_20  and  C_21
REMARK    9  A    between atoms: C_20  and  C_27
REMARK                            x       y       z     vdW  Elec       q    Type
REMARK                         _______ _______ _______ _____ _____    ______ ____
ROOT
ATOM      1  N   UNL     1      -0.155  11.731  20.828  0.00  0.00    +0.000 NA
ATOM      2  C   UNL     1      -0.860  10.582  20.224  0.00  0.00    +0.000 C 
ATOM      3  C   UNL     1      -0.478  10.099  18.798  0.00  0.00    +0.000 C 
ATOM      4  N   UNL     1       0.941  10.167  18.421  0.00  0.00    +0.000 NA
ATOM      5  C   UNL     1       1.442  11.488  18.856  0.00  0.00    +0.000 C 
ATOM      6  C   UNL     1       1.251  11.760  20.367  0.00  0.00    +0.000 C 
ENDROOT
BRANCH   1   7
ATOM      7  C   UNL     1      -0.799  13.059  20.723  0.00  0.00    +0.000 C 
BRANCH   7  17
ATOM      8  C   UNL     1      -3.363  12.862  20.950  0.00  0.00    +0.000 C 
ATOM      9  C   UNL     1      -4.583  12.800  21.870  0.00  0.00    +0.000 A 
ATOM     10  C   UNL     1      -5.880  12.588  21.364  0.00  0.00    +0.000 A 
ATOM     11  C   UNL     1      -6.989  12.512  22.213  0.00  0.00    +0.000 A 
ATOM     12  C   UNL     1      -6.828  12.642  23.587  0.00  0.00    +0.000 A 
ATOM     13  C   UNL     1      -5.558  12.835  24.112  0.00  0.00    +0.000 A 
ATOM     14  C   UNL     1      -4.434  12.885  23.271  0.00  0.00    +0.000 A 
ATOM     15  C   UNL     1      -3.089  13.066  23.904  0.00  0.00    +0.000 C 
ATOM     16  C   UNL     1      -1.961  12.595  23.000  0.00  0.00    +0.000 C 
ATOM     17  C   UNL     1      -2.036  13.305  21.649  0.00  0.00    +0.000 C 
BRANCH   8  18
ATOM     18  O   UNL     1      -3.591  13.733  19.840  0.00  0.00    +0.000 OA
ATOM     19  H   UNL     1      -2.916  13.562  19.171  0.00  0.00    +0.000 HD
ENDBRANCH   8  18
ENDBRANCH   7  17
ENDBRANCH   1   7
BRANCH   4  20
ATOM     20  C   UNL     1       1.770   9.079  18.978  0.00  0.00    +0.000 C 
BRANCH  20  21
ATOM     21  C   UNL     1       2.613   8.284  17.966  0.00  0.00    +0.000 C 
BRANCH  21  22
ATOM     22  O   UNL     1       3.158   7.141  18.643  0.00  0.00    +0.000 OA
BRANCH  22  23
ATOM     23  C   UNL     1       3.165   5.942  17.844  0.00  0.00    +0.000 C 
BRANCH  23  24
ATOM     24  C   UNL     1       4.592   5.555  17.486  0.00  0.00    +0.000 A 
ATOM     25  C   UNL     1       4.932   5.160  16.183  0.00  0.00    +0.000 A 
ATOM     26  C   UNL     1       6.210   4.676  15.898  0.00  0.00    +0.000 A 
ATOM     27  C   UNL     1       7.166   4.588  16.909  0.00  0.00    +0.000 A 
ATOM     28  C   UNL     1       6.852   5.003  18.201  0.00  0.00    +0.000 A 
ATOM     29  C   UNL     1       5.574   5.487  18.488  0.00  0.00    +0.000 A 
ENDBRANCH  23  24
BRANCH  23  30
ATOM     30  C   UNL     1       2.382   4.845  18.563  0.00  0.00    +0.000 A 
ATOM     31  C   UNL     1       1.967   3.699  17.861  0.00  0.00    +0.000 A 
ATOM     32  C   UNL     1       1.193   2.718  18.485  0.00  0.00    +0.000 A 
ATOM     33  C   UNL     1       0.833   2.857  19.825  0.00  0.00    +0.000 A 
ATOM     34  C   UNL     1       1.261   3.970  20.544  0.00  0.00    +0.000 A 
ATOM     35  C   UNL     1       2.032   4.954  19.920  0.00  0.00    +0.000 A 
ENDBRANCH  23  30
ENDBRANCH  22  23
ENDBRANCH  21  22
ENDBRANCH  20  21
ENDBRANCH   4  20
TORSDOF 9
ENDMDL
MODEL 3
REMARK VINA RESULT:      -8.5      1.044      1.798
REMARK  Name = 
REMARK  9 active torsions:
REMARK  status: ('A' for Active; 'I' for Inactive)
REMARK    1  A    between atoms: O_1  and  C_2
REMARK    2  A    between atoms: C_11  and  C_12
REMARK    3  A    between atoms: C_12  and  N_13
REMARK    4  A    between atoms: N_16  and  C_17
REMARK    5  A    between atoms: C_17  and  C_18
REMARK    6  A    between atoms: C_18  and  O_19
REMARK    7  A    between atoms: O_19  and  C_20
REMARK    8  A    between atoms: C_20  and  C_21
REMARK    9  A    between atoms: C_20  and  C_27
REMARK                            x       y       z     vdW  Elec       q    Type
REMARK                         _______ _______ _______ _____ _____    ______ ____
ROOT
ATOM      1  N   UNL     1       0.190  11.566  21.618  0.00  0.00    +0.000 NA
ATOM      2  C   UNL     1      -0.414  10.222  21.512  0.00  0.00    +0.000 C 
ATOM      3  C   UNL     1      -0.615   9.570  20.116  0.00  0.00    +0.000 C 
ATOM      4  N   UNL     1       0.417   9.818  19.101  0.00  0.00    +0.000 NA
ATOM      5  C   UNL     1       0.728  11.263  19.144  0.00  0.00    +0.000 C 
ATOM      6  C   UNL     1       1.182  11.760  20.538  0.00  0.00    +0.000 C 
ENDROOT
BRANCH   1   7
ATOM      7  C   UNL     1      -0.729  12.720  21.739  0.00  0.00    +0.000 C 
BRANCH   7  17
ATOM      8  C   UNL     1      -3.106  12.811  22.743  0.00  0.00    +0.000 C 
ATOM      9  C   UNL     1      -4.616  12.825  22.503  0.00  0.00    +0.000 A 
ATOM     10  C   UNL     1      -5.531  12.980  23.562  0.00  0.00    +0.000 A 
ATOM     11  C   UNL     1      -6.911  13.014  23.332  0.00  0.00    +0.000 A 
ATOM     12  C   UNL     1      -7.407  12.897  22.040  0.00  0.00    +0.000 A 
ATOM     13  C   UNL     1      -6.525  12.760  20.978  0.00  0.00    +0.000 A 
ATOM     14  C   UNL     1      -5.138  12.754  21.194  0.00  0.00    +0.000 A 
ATOM     15  C   UNL     1      -4.240  12.632  20.001  0.00  0.00    +0.000 C 
ATOM     16  C   UNL     1      -2.837  13.146  20.282  0.00  0.00    +0.000 C 
ATOM     17  C   UNL     1      -2.246  12.427  21.494  0.00  0.00    +0.000 C 
BRANCH   8  18
ATOM     18  O   UNL     1      -2.756  11.925  23.809  0.00  0.00    +0.000 OA
ATOM     19  H   UNL     1      -3.564  11.667  24.272  0.00  0.00    +0.000 HD
ENDBRANCH   8  18
ENDBRANCH   7  17
ENDBRANCH   1   7
BRANCH   4  20
ATOM     20  C   UNL     1       1.642   9.010  19.269  0.00  0.00    +0.000 C 
BRANCH  20  21
ATOM     21  C   UNL     1       2.452   8.737  17.991  0.00  0.00    +0.000 C 
BRANCH  21  22
ATOM     22  O   UNL     1       2.354   7.335  17.694  0.00  0.00    +0.000 OA
BRANCH  22  23
ATOM     23  C   UNL     1       3.076   6.495  18.615  0.00  0.00    +0.000 C 
BRANCH  23  24
ATOM     24  C   UNL     1       2.220   5.308  19.031  0.00  0.00    +0.000 A 
ATOM     25  C   UNL     1       1.917   5.069  20.380  0.00  0.00    +0.000 A 
ATOM     26  C   UNL     1       1.248   3.905  20.763  0.00  0.00    +0.000 A 
ATOM     27  C   UNL     1       0.868   2.970  19.801  0.00  0.00    +0.000 A 
ATOM     28  C   UNL     1       1.137   3.206  18.456  0.00  0.00    +0.000 A 
ATOM     29  C   UNL     1       1.806   4.371  18.071  0.00  0.00    +0.000 A 
ENDBRANCH  23  24
BRANCH  23  30
ATOM     30  C   UNL     1       4.423   6.109  18.005  0.00  0.00    +0.000 A 
ATOM     31  C   UNL     1       4.656   6.300  16.631  0.00  0.00    +0.000 A 
ATOM     32  C   UNL     1       5.856   5.892  16.044  0.00  0.00    +0.000 A 
ATOM     33  C   UNL     1       6.849   5.299  16.822  0.00  0.00    +0.000 A 
ATOM     34  C   UNL     1       6.649   5.129  18.189  0.00  0.00    +0.000 A 
ATOM     35  C   UNL     1       5.448   5.534  18.776  0.00  0.00    +0.000 A 
ENDBRANCH  23  30
ENDBRANCH  22  23
ENDBRANCH  21  22
ENDBRANCH  20  21
ENDBRANCH   4  20
TORSDOF 9
ENDMDL
MODEL 4
REMARK VINA RESULT:      -8.5      1.437      2.236
REMARK  Name = 
REMARK  9 active torsions:
REMARK  status: ('A' for Active; 'I' for Inactive)
REMARK    1  A    between atoms: O_1  and  C_2
REMARK    2  A    between atoms: C_11  and  C_12
REMARK    3  A    between atoms: C_12  and  N_13
REMARK    4  A    between atoms: N_16  and  C_17
REMARK    5  A    between atoms: C_17  and  C_18
REMARK    6  A    between atoms: C_18  and  O_19
REMARK    7  A    between atoms: O_19  and  C_20
REMARK    8  A    between atoms: C_20  and  C_21
REMARK    9  A    between atoms: C_20  and  C_27
REMARK                            x       y       z     vdW  Elec       q    Type
REMARK                         _______ _______ _______ _____ _____    ______ ____
ROOT
ATOM      1  N   UNL     1       1.221  12.053  20.856  0.00  0.00    +0.000 NA
ATOM      2  C   UNL     1       0.916  10.652  21.211  0.00  0.00    +0.000 C 
ATOM      3  C   UNL     1       0.086   9.768  20.240  0.00  0.00    +0.000 C 
ATOM      4  N   UNL     1       0.301   9.964  18.800  0.00  0.00    +0.000 NA
ATOM      5  C   UNL     1       0.315  11.422  18.558  0.00  0.00    +0.000 C 
ATOM      6  C   UNL     1       1.376  12.181  19.391  0.00  0.00    +0.000 C 
ENDROOT
BRANCH   1   7
ATOM      7  C   UNL     1       0.340  13.105  21.412  0.00  0.00    +0.000 C 
BRANCH   7  17
ATOM      8  C   UNL     1      -1.729  12.761  22.918  0.00  0.00    +0.000 C 
ATOM      9  C   UNL     1      -3.253  12.731  23.042  0.00  0.00    +0.000 A 
ATOM     10  C   UNL     1      -3.890  12.539  24.283  0.00  0.00    +0.000 A 
ATOM     11  C   UNL     1      -5.285  12.534  24.392  0.00  0.00    +0.000 A 
ATOM     12  C   UNL     1      -6.075  12.723  23.265  0.00  0.00    +0.000 A 
ATOM     13  C   UNL     1      -5.471  12.931  22.034  0.00  0.00    +0.000 A 
ATOM     14  C   UNL     1      -4.072  12.967  21.917  0.00  0.00    +0.000 A 
ATOM     15  C   UNL     1      -3.484  13.225  20.563  0.00  0.00    +0.000 C 
ATOM     16  C   UNL     1      -2.059  13.746  20.646  0.00  0.00    +0.000 C 
ATOM     17  C   UNL     1      -1.190  12.779  21.450  0.00  0.00    +0.000 C 
BRANCH   8  18
ATOM     18  O   UNL     1      -1.129  11.656  23.596  0.00  0.00    +0.000 OA
ATOM     19  H   UNL     1      -1.225  11.789  24.548  0.00  0.00    +0.000 HD
ENDBRANCH   8  18
ENDBRANCH   7  17
ENDBRANCH   1   7
BRANCH   4  20
ATOM     20  C   UNL     1       1.529   9.330  18.277  0.00  0.00    +0.000 C 
BRANCH  20  21
ATOM     21  C   UNL     1       2.063   8.129  19.075  0.00  0.00    +0.000 C 
BRANCH  21  22
ATOM     22  O   UNL     1       2.274   7.045  18.157  0.00  0.00    +0.000 OA
BRANCH  22  23
ATOM     23  C   UNL     1       3.237   6.076  18.615  0.00  0.00    +0.000 C 
BRANCH  23  24
ATOM     24  C   UNL     1       2.532   4.909  19.289  0.00  0.00    +0.000 A 
ATOM     25  C   UNL     1       1.485   4.226  18.652  0.00  0.00    +0.000 A 
ATOM     26  C   UNL     1       0.756   3.249  19.332  0.00  0.00    +0.000 A 
ATOM     27  C   UNL     1       1.069   2.937  20.654  0.00  0.00    +0.000 A 
ATOM     28  C   UNL     1       2.124   3.586  21.291  0.00  0.00    +0.000 A 
ATOM     29  C   UNL     1       2.855   4.563  20.612  0.00  0.00    +0.000 A 
ENDBRANCH  23  24
BRANCH  23  30
ATOM     30  C   UNL     1       4.144   5.671  17.455  0.00  0.00    +0.000 A 
ATOM     31  C   UNL     1       4.628   6.646  16.564  0.00  0.00    +0.000 A 
ATOM     32  C   UNL     1       5.404   6.286  15.459  0.00  0.00    +0.000 A 
ATOM     33  C   UNL     1       5.721   4.947  15.233  0.00  0.00    +0.000 A 
ATOM     34  C   UNL     1       5.277   3.972  16.122  0.00  0.00    +0.000 A 
ATOM     35  C   UNL     1       4.499   4.330  17.224  0.00  0.00    +0.000 A 
ENDBRANCH  23  30
ENDBRANCH  22  23
ENDBRANCH  21  22
ENDBRANCH  20  21
ENDBRANCH   4  20
TORSDOF 9
ENDMDL
MODEL 5
REMARK VINA RESULT:      -8.5      0.693      3.154
REMARK  Name = 
REMARK  9 active torsions:
REMARK  status: ('A' for Active; 'I' for Inactive)
REMARK    1  A    between atoms: O_1  and  C_2
REMARK    2  A    between atoms: C_11  and  C_12
REMARK    3  A    between atoms: C_12  and  N_13
REMARK    4  A    between atoms: N_16  and  C_17
REMARK    5  A    between atoms: C_17  and  C_18
REMARK    6  A    between atoms: C_18  and  O_19
REMARK    7  A    between atoms: O_19  and  C_20
REMARK    8  A    between atoms: C_20  and  C_21
REMARK    9  A    between atoms: C_20  and  C_27
REMARK                            x       y       z     vdW  Elec       q    Type
REMARK                         _______ _______ _______ _____ _____    ______ ____
ROOT
ATOM      1  N   UNL     1       0.004  11.681  20.895  0.00  0.00    +0.000 NA
ATOM      2  C   UNL     1      -0.805  10.566  20.362  0.00  0.00    +0.000 C 
ATOM      3  C   UNL     1      -0.581  10.072  18.906  0.00  0.00    +0.000 C 
ATOM      4  N   UNL     1       0.796  10.079  18.396  0.00  0.00    +0.000 NA
ATOM      5  C   UNL     1       1.394  11.376  18.780  0.00  0.00    +0.000 C 
ATOM      6  C   UNL     1       1.359  11.650  20.303  0.00  0.00    +0.000 C 
ENDROOT
BRANCH   1   7
ATOM      7  C   UNL     1      -0.588  13.037  20.851  0.00  0.00    +0.000 C 
BRANCH   7  17
ATOM      8  C   UNL     1      -3.162  12.951  21.043  0.00  0.00    +0.000 C 
ATOM      9  C   UNL     1      -4.394  12.892  21.947  0.00  0.00    +0.000 A 
ATOM     10  C   UNL     1      -5.693  12.775  21.418  0.00  0.00    +0.000 A 
ATOM     11  C   UNL     1      -6.815  12.700  22.252  0.00  0.00    +0.000 A 
ATOM     12  C   UNL     1      -6.663  12.737  23.632  0.00  0.00    +0.000 A 
ATOM     13  C   UNL     1      -5.392  12.835  24.178  0.00  0.00    +0.000 A 
ATOM     14  C   UNL     1      -4.257  12.882  23.352  0.00  0.00    +0.000 A 
ATOM     15  C   UNL     1      -2.912  12.958  24.006  0.00  0.00    +0.000 C 
ATOM     16  C   UNL     1      -1.797  12.489  23.085  0.00  0.00    +0.000 C 
ATOM     17  C   UNL     1      -1.823  13.284  21.780  0.00  0.00    +0.000 C 
BRANCH   8  18
ATOM     18  O   UNL     1      -3.334  13.899  19.988  0.00  0.00    +0.000 OA
ATOM     19  H   UNL     1      -2.467  14.108  19.617  0.00  0.00    +0.000 HD
ENDBRANCH   8  18
ENDBRANCH   7  17
ENDBRANCH   1   7
BRANCH   4  20
ATOM     20  C   UNL     1       1.626   8.954  18.873  0.00  0.00    +0.000 C 
BRANCH  20  21
ATOM     21  C   UNL     1       2.549   8.304  17.828  0.00  0.00    +0.000 C 
BRANCH  21  22
ATOM     22  O   UNL     1       3.285   7.255  18.477  0.00  0.00    +0.000 OA
BRANCH  22  23
ATOM     23  C   UNL     1       3.223   5.991  17.789  0.00  0.00    +0.000 C 
BRANCH  23  24
ATOM     24  C   UNL     1       4.625   5.483  17.490  0.00  0.00    +0.000 A 
ATOM     25  C   UNL     1       5.745   6.009  18.151  0.00  0.00    +0.000 A 
ATOM     26  C   UNL     1       7.036   5.634  17.773  0.00  0.00    +0.000 A 
ATOM     27  C   UNL     1       7.222   4.723  16.734  0.00  0.00    +0.000 A 
ATOM     28  C   UNL     1       6.120   4.170  16.087  0.00  0.00    +0.000 A 
ATOM     29  C   UNL     1       4.828   4.544  16.465  0.00  0.00    +0.000 A 
ENDBRANCH  23  24
BRANCH  23  30
ATOM     30  C   UNL     1       2.363   5.016  18.590  0.00  0.00    +0.000 A 
ATOM     31  C   UNL     1       2.321   5.101  19.994  0.00  0.00    +0.000 A 
ATOM     32  C   UNL     1       1.593   4.176  20.746  0.00  0.00    +0.000 A 
ATOM     33  C   UNL     1       0.884   3.158  20.110  0.00  0.00    +0.000 A 
ATOM     34  C   UNL     1       0.889   3.077  18.719  0.00  0.00    +0.000 A 
ATOM     35  C   UNL     1       1.619   3.999  17.966  0.00  0.00    +0.000 A 
ENDBRANCH  23  30
ENDBRANCH  22  23
ENDBRANCH  21  22
ENDBRANCH  20  21
ENDBRANCH   4  20
TORSDOF 9
ENDMDL
MODEL 6
REMARK VINA RESULT:      -8.4      2.727      5.734
REMARK  Name = 
REMARK  9 active torsions:
REMARK  status: ('A' for Active; 'I' for Inactive)
REMARK    1  A    between atoms: O_1  and  C_2
REMARK    2  A    between atoms: C_11  and  C_12
REMARK    3  A    between atoms: C_12  and  N_13
REMARK    4  A    between atoms: N_16  and  C_17
REMARK    5  A    between atoms: C_17  and  C_18
REMARK    6  A    between atoms: C_18  and  O_19
REMARK    7  A    between atoms: O_19  and  C_20
REMARK    8  A    between atoms: C_20  and  C_21
REMARK    9  A    between atoms: C_20  and  C_27
REMARK                            x       y       z     vdW  Elec       q    Type
REMARK                         _______ _______ _______ _____ _____    ______ ____
ROOT
ATOM      1  N   UNL     1       1.515   6.811  19.691  0.00  0.00    +0.000 NA
ATOM      2  C   UNL     1       2.534   6.955  18.632  0.00  0.00    +0.000 C 
ATOM      3  C   UNL     1       3.853   6.136  18.708  0.00  0.00    +0.000 C 
ATOM      4  N   UNL     1       3.769   4.772  19.244  0.00  0.00    +0.000 NA
ATOM      5  C   UNL     1       2.930   4.835  20.460  0.00  0.00    +0.000 C 
ATOM      6  C   UNL     1       1.522   5.428  20.214  0.00  0.00    +0.000 C 
ENDROOT
BRANCH   1   7
ATOM      7  C   UNL     1       1.515   7.814  20.780  0.00  0.00    +0.000 C 
BRANCH   7  17
ATOM      8  C   UNL     1      -0.018   9.446  22.067  0.00  0.00    +0.000 C 
ATOM      9  C   UNL     1      -0.821  10.747  22.063  0.00  0.00    +0.000 A 
ATOM     10  C   UNL     1      -1.473  11.216  23.219  0.00  0.00    +0.000 A 
ATOM     11  C   UNL     1      -2.189  12.418  23.214  0.00  0.00    +0.000 A 
ATOM     12  C   UNL     1      -2.267  13.180  22.055  0.00  0.00    +0.000 A 
ATOM     13  C   UNL     1      -1.619  12.748  20.908  0.00  0.00    +0.000 A 
ATOM     14  C   UNL     1      -0.874  11.558  20.909  0.00  0.00    +0.000 A 
ATOM     15  C   UNL     1      -0.175  11.163  19.644  0.00  0.00    +0.000 C 
ATOM     16  C   UNL     1       0.971  10.197  19.899  0.00  0.00    +0.000 C 
ATOM     17  C   UNL     1       0.468   8.970  20.658  0.00  0.00    +0.000 C 
BRANCH   8  18
ATOM     18  O   UNL     1      -0.757   8.378  22.663  0.00  0.00    +0.000 OA
ATOM     19  H   UNL     1      -1.021   8.646  23.553  0.00  0.00    +0.000 HD
ENDBRANCH   8  18
ENDBRANCH   7  17
ENDBRANCH   1   7
BRANCH   4  20
ATOM     20  C   UNL     1       3.241   3.775  18.291  0.00  0.00    +0.000 C 
BRANCH  20  21
ATOM     21  C   UNL     1       4.269   3.135  17.342  0.00  0.00    +0.000 C 
BRANCH  21  22
ATOM     22  O   UNL     1       4.705   4.142  16.416  0.00  0.00    +0.000 OA
BRANCH  22  23
ATOM     23  C   UNL     1       6.119   4.103  16.139  0.00  0.00    +0.000 C 
BRANCH  23  24
ATOM     24  C   UNL     1       6.368   4.224  14.644  0.00  0.00    +0.000 A 
ATOM     25  C   UNL     1       5.607   3.494  13.719  0.00  0.00    +0.000 A 
ATOM     26  C   UNL     1       5.933   3.507  12.362  0.00  0.00    +0.000 A 
ATOM     27  C   UNL     1       7.020   4.254  11.912  0.00  0.00    +0.000 A 
ATOM     28  C   UNL     1       7.769   5.006  12.814  0.00  0.00    +0.000 A 
ATOM     29  C   UNL     1       7.444   4.995  14.172  0.00  0.00    +0.000 A 
ENDBRANCH  23  24
BRANCH  23  30
ATOM     30  C   UNL     1       6.831   5.162  16.979  0.00  0.00    +0.000 A 
ATOM     31  C   UNL     1       7.510   4.792  18.154  0.00  0.00    +0.000 A 
ATOM     32  C   UNL     1       8.111   5.755  18.968  0.00  0.00    +0.000 A 
ATOM     33  C   UNL     1       8.054   7.103  18.617  0.00  0.00    +0.000 A 
ATOM     34  C   UNL     1       7.413   7.485  17.441  0.00  0.00    +0.000 A 
ATOM     35  C   UNL     1       6.810   6.523  16.628  0.00  0.00    +0.000 A 
ENDBRANCH  23  30
ENDBRANCH  22  23
ENDBRANCH  21  22
ENDBRANCH  20  21
ENDBRANCH   4  20
TORSDOF 9
ENDMDL
MODEL 7
REMARK VINA RESULT:      -8.3      1.228      3.639
REMARK  Name = 
REMARK  9 active torsions:
REMARK  status: ('A' for Active; 'I' for Inactive)
REMARK    1  A    between atoms: O_1  and  C_2
REMARK    2  A    between atoms: C_11  and  C_12
REMARK    3  A    between atoms: C_12  and  N_13
REMARK    4  A    between atoms: N_16  and  C_17
REMARK    5  A    between atoms: C_17  and  C_18
REMARK    6  A    between atoms: C_18  and  O_19
REMARK    7  A    between atoms: O_19  and  C_20
REMARK    8  A    between atoms: C_20  and  C_21
REMARK    9  A    between atoms: C_20  and  C_27
REMARK                            x       y       z     vdW  Elec       q    Type
REMARK                         _______ _______ _______ _____ _____    ______ ____
ROOT
ATOM      1  N   UNL     1       0.720  11.476  21.164  0.00  0.00    +0.000 NA
ATOM      2  C   UNL     1       0.095  10.198  20.766  0.00  0.00    +0.000 C 
ATOM      3  C   UNL     1      -0.194   9.909  19.267  0.00  0.00    +0.000 C 
ATOM      4  N   UNL     1       0.781  10.403  18.285  0.00  0.00    +0.000 NA
ATOM      5  C   UNL     1       1.111  11.794  18.665  0.00  0.00    +0.000 C 
ATOM      6  C   UNL     1       1.650  11.934  20.108  0.00  0.00    +0.000 C 
ENDROOT
BRANCH   1   7
ATOM      7  C   UNL     1      -0.177  12.562  21.619  0.00  0.00    +0.000 C 
BRANCH   7  17
ATOM      8  C   UNL     1      -2.527  12.647  22.686  0.00  0.00    +0.000 C 
ATOM      9  C   UNL     1      -4.040  12.730  22.485  0.00  0.00    +0.000 A 
ATOM     10  C   UNL     1      -4.926  12.827  23.575  0.00  0.00    +0.000 A 
ATOM     11  C   UNL     1      -6.309  12.924  23.383  0.00  0.00    +0.000 A 
ATOM     12  C   UNL     1      -6.837  12.928  22.098  0.00  0.00    +0.000 A 
ATOM     13  C   UNL     1      -5.984  12.850  21.007  0.00  0.00    +0.000 A 
ATOM     14  C   UNL     1      -4.593  12.781  21.187  0.00  0.00    +0.000 A 
ATOM     15  C   UNL     1      -3.726  12.728  19.967  0.00  0.00    +0.000 C 
ATOM     16  C   UNL     1      -2.301  13.172  20.254  0.00  0.00    +0.000 C 
ATOM     17  C   UNL     1      -1.708  12.339  21.389  0.00  0.00    +0.000 C 
BRANCH   8  18
ATOM     18  O   UNL     1      -2.184  11.667  23.668  0.00  0.00    +0.000 OA
ATOM     19  H   UNL     1      -2.989  11.402  24.132  0.00  0.00    +0.000 HD
ENDBRANCH   8  18
ENDBRANCH   7  17
ENDBRANCH   1   7
BRANCH   4  20
ATOM     20  C   UNL     1       2.004   9.582  18.176  0.00  0.00    +0.000 C 
BRANCH  20  21
ATOM     21  C   UNL     1       1.792   8.061  18.090  0.00  0.00    +0.000 C 
BRANCH  21  22
ATOM     22  O   UNL     1       3.075   7.427  18.215  0.00  0.00    +0.000 OA
BRANCH  22  23
ATOM     23  C   UNL     1       3.110   6.082  17.700  0.00  0.00    +0.000 C 
BRANCH  23  24
ATOM     24  C   UNL     1       4.526   5.710  17.289  0.00  0.00    +0.000 A 
ATOM     25  C   UNL     1       4.779   4.587  16.487  0.00  0.00    +0.000 A 
ATOM     26  C   UNL     1       6.088   4.176  16.230  0.00  0.00    +0.000 A 
ATOM     27  C   UNL     1       7.161   4.887  16.765  0.00  0.00    +0.000 A 
ATOM     28  C   UNL     1       6.927   6.021  17.539  0.00  0.00    +0.000 A 
ATOM     29  C   UNL     1       5.618   6.433  17.797  0.00  0.00    +0.000 A 
ENDBRANCH  23  24
BRANCH  23  30
ATOM     30  C   UNL     1       2.485   5.130  18.719  0.00  0.00    +0.000 A 
ATOM     31  C   UNL     1       1.559   4.158  18.300  0.00  0.00    +0.000 A 
ATOM     32  C   UNL     1       0.928   3.323  19.226  0.00  0.00    +0.000 A 
ATOM     33  C   UNL     1       1.221   3.437  20.585  0.00  0.00    +0.000 A 
ATOM     34  C   UNL     1       2.158   4.373  21.014  0.00  0.00    +0.000 A 
ATOM     35  C   UNL     1       2.787   5.210  20.089  0.00  0.00    +0.000 A 
ENDBRANCH  23  30
ENDBRANCH  22  23
ENDBRANCH  21  22
ENDBRANCH  20  21
ENDBRANCH   4  20
TORSDOF 9
ENDMDL
MODEL 8
REMARK VINA RESULT:      -8.2      1.228      3.559
REMARK  Name = 
REMARK  9 active torsions:
REMARK  status: ('A' for Active; 'I' for Inactive)
REMARK    1  A    between atoms: O_1  and  C_2
REMARK    2  A    between atoms: C_11  and  C_12
REMARK    3  A    between atoms: C_12  and  N_13
REMARK    4  A    between atoms: N_16  and  C_17
REMARK    5  A    between atoms: C_17  and  C_18
REMARK    6  A    between atoms: C_18  and  O_19
REMARK    7  A    between atoms: O_19  and  C_20
REMARK    8  A    between atoms: C_20  and  C_21
REMARK    9  A    between atoms: C_20  and  C_27
REMARK                            x       y       z     vdW  Elec       q    Type
REMARK                         _______ _______ _______ _____ _____    ______ ____
ROOT
ATOM      1  N   UNL     1      -1.056  12.203  19.252  0.00  0.00    +0.000 NA
ATOM      2  C   UNL     1       0.237  12.485  18.596  0.00  0.00    +0.000 C 
ATOM      3  C   UNL     1       1.510  11.703  19.022  0.00  0.00    +0.000 C 
ATOM      4  N   UNL     1       1.343  10.288  19.380  0.00  0.00    +0.000 NA
ATOM      5  C   UNL     1       0.158  10.200  20.260  0.00  0.00    +0.000 C 
ATOM      6  C   UNL     1      -1.132  10.774  19.625  0.00  0.00    +0.000 C 
ENDROOT
BRANCH   1   7
ATOM      7  C   UNL     1      -1.464  13.088  20.366  0.00  0.00    +0.000 C 
BRANCH   7  17
ATOM      8  C   UNL     1      -3.262  13.930  22.018  0.00  0.00    +0.000 C 
ATOM      9  C   UNL     1      -4.728  13.927  22.452  0.00  0.00    +0.000 A 
ATOM     10  C   UNL     1      -5.187  14.734  23.510  0.00  0.00    +0.000 A 
ATOM     11  C   UNL     1      -6.535  14.743  23.888  0.00  0.00    +0.000 A 
ATOM     12  C   UNL     1      -7.454  13.947  23.215  0.00  0.00    +0.000 A 
ATOM     13  C   UNL     1      -7.029  13.155  22.159  0.00  0.00    +0.000 A 
ATOM     14  C   UNL     1      -5.685  13.160  21.752  0.00  0.00    +0.000 A 
ATOM     15  C   UNL     1      -5.298  12.305  20.585  0.00  0.00    +0.000 C 
ATOM     16  C   UNL     1      -4.007  12.771  19.933  0.00  0.00    +0.000 C 
ATOM     17  C   UNL     1      -2.885  12.832  20.970  0.00  0.00    +0.000 C 
BRANCH   8  18
ATOM     18  O   UNL     1      -2.387  13.791  23.139  0.00  0.00    +0.000 OA
ATOM     19  H   UNL     1      -2.898  13.923  23.947  0.00  0.00    +0.000 HD
ENDBRANCH   8  18
ENDBRANCH   7  17
ENDBRANCH   1   7
BRANCH   4  20
ATOM     20  C   UNL     1       1.209   9.380  18.222  0.00  0.00    +0.000 C 
BRANCH  20  21
ATOM     21  C   UNL     1       2.479   8.616  17.811  0.00  0.00    +0.000 C 
BRANCH  21  22
ATOM     22  O   UNL     1       2.621   7.487  18.687  0.00  0.00    +0.000 OA
BRANCH  22  23
ATOM     23  C   UNL     1       2.977   6.267  18.009  0.00  0.00    +0.000 C 
BRANCH  23  24
ATOM     24  C   UNL     1       4.488   6.092  17.994  0.00  0.00    +0.000 A 
ATOM     25  C   UNL     1       5.161   5.495  19.071  0.00  0.00    +0.000 A 
ATOM     26  C   UNL     1       6.556   5.463  19.108  0.00  0.00    +0.000 A 
ATOM     27  C   UNL     1       7.296   6.021  18.067  0.00  0.00    +0.000 A 
ATOM     28  C   UNL     1       6.642   6.593  16.977  0.00  0.00    +0.000 A 
ATOM     29  C   UNL     1       5.246   6.625  16.938  0.00  0.00    +0.000 A 
ENDBRANCH  23  24
BRANCH  23  30
ATOM     30  C   UNL     1       2.220   5.097  18.633  0.00  0.00    +0.000 A 
ATOM     31  C   UNL     1       1.780   5.172  19.967  0.00  0.00    +0.000 A 
ATOM     32  C   UNL     1       1.144   4.086  20.574  0.00  0.00    +0.000 A 
ATOM     33  C   UNL     1       0.925   2.912  19.855  0.00  0.00    +0.000 A 
ATOM     34  C   UNL     1       1.326   2.830  18.524  0.00  0.00    +0.000 A 
ATOM     35  C   UNL     1       1.964   3.914  17.917  0.00  0.00    +0.000 A 
ENDBRANCH  23  30
ENDBRANCH  22  23
ENDBRANCH  21  22
ENDBRANCH  20  21
ENDBRANCH   4  20
TORSDOF 9
ENDMDL
MODEL 9
REMARK VINA RESULT:      -8.1      1.681      3.834
REMARK  Name = 
REMARK  9 active torsions:
REMARK  status: ('A' for Active; 'I' for Inactive)
REMARK    1  A    between atoms: O_1  and  C_2
REMARK    2  A    between atoms: C_11  and  C_12
REMARK    3  A    between atoms: C_12  and  N_13
REMARK    4  A    between atoms: N_16  and  C_17
REMARK    5  A    between atoms: C_17  and  C_18
REMARK    6  A    between atoms: C_18  and  O_19
REMARK    7  A    between atoms: O_19  and  C_20
REMARK    8  A    between atoms: C_20  and  C_21
REMARK    9  A    between atoms: C_20  and  C_27
REMARK                            x       y       z     vdW  Elec       q    Type
REMARK                         _______ _______ _______ _____ _____    ______ ____
ROOT
ATOM      1  N   UNL     1      -0.715  12.301  19.767  0.00  0.00    +0.000 NA
ATOM      2  C   UNL     1       0.447  11.908  20.590  0.00  0.00    +0.000 C 
ATOM      3  C   UNL     1       0.876  10.417  20.666  0.00  0.00    +0.000 C 
ATOM      4  N   UNL     1       0.739   9.613  19.444  0.00  0.00    +0.000 NA
ATOM      5  C   UNL     1      -0.592   9.916  18.873  0.00  0.00    +0.000 C 
ATOM      6  C   UNL     1      -0.816  11.419  18.583  0.00  0.00    +0.000 C 
ENDROOT
BRANCH   1   7
ATOM      7  C   UNL     1      -2.017  12.455  20.454  0.00  0.00    +0.000 C 
BRANCH   7  17
ATOM      8  C   UNL     1      -3.513  14.231  21.584  0.00  0.00    +0.000 C 
ATOM      9  C   UNL     1      -3.773  15.128  22.795  0.00  0.00    +0.000 A 
ATOM     10  C   UNL     1      -4.928  15.927  22.888  0.00  0.00    +0.000 A 
ATOM     11  C   UNL     1      -5.170  16.730  24.009  0.00  0.00    +0.000 A 
ATOM     12  C   UNL     1      -4.265  16.749  25.063  0.00  0.00    +0.000 A 
ATOM     13  C   UNL     1      -3.127  15.958  25.002  0.00  0.00    +0.000 A 
ATOM     14  C   UNL     1      -2.889  15.127  23.895  0.00  0.00    +0.000 A 
ATOM     15  C   UNL     1      -1.656  14.276  23.906  0.00  0.00    +0.000 C 
ATOM     16  C   UNL     1      -1.769  13.090  22.961  0.00  0.00    +0.000 C 
ATOM     17  C   UNL     1      -2.095  13.571  21.548  0.00  0.00    +0.000 C 
BRANCH   8  18
ATOM     18  O   UNL     1      -3.701  14.943  20.359  0.00  0.00    +0.000 OA
ATOM     19  H   UNL     1      -3.803  14.302  19.643  0.00  0.00    +0.000 HD
ENDBRANCH   8  18
ENDBRANCH   7  17
ENDBRANCH   1   7
BRANCH   4  20
ATOM     20  C   UNL     1       1.804   9.837  18.446  0.00  0.00    +0.000 C 
BRANCH  20  21
ATOM     21  C   UNL     1       2.272   8.597  17.666  0.00  0.00    +0.000 C 
BRANCH  21  22
ATOM     22  O   UNL     1       2.537   7.551  18.613  0.00  0.00    +0.000 OA
BRANCH  22  23
ATOM     23  C   UNL     1       2.969   6.316  18.009  0.00  0.00    +0.000 C 
BRANCH  23  24
ATOM     24  C   UNL     1       4.484   6.201  18.065  0.00  0.00    +0.000 A 
ATOM     25  C   UNL     1       5.286   6.639  17.000  0.00  0.00    +0.000 A 
ATOM     26  C   UNL     1       6.662   6.404  17.003  0.00  0.00    +0.000 A 
ATOM     27  C   UNL     1       7.255   5.736  18.074  0.00  0.00    +0.000 A 
ATOM     28  C   UNL     1       6.476   5.320  19.151  0.00  0.00    +0.000 A 
ATOM     29  C   UNL     1       5.099   5.554  19.150  0.00  0.00    +0.000 A 
ENDBRANCH  23  24
BRANCH  23  30
ATOM     30  C   UNL     1       2.230   5.146  18.656  0.00  0.00    +0.000 A 
ATOM     31  C   UNL     1       1.906   4.008  17.895  0.00  0.00    +0.000 A 
ATOM     32  C   UNL     1       1.172   2.958  18.452  0.00  0.00    +0.000 A 
ATOM     33  C   UNL     1       0.761   3.021  19.783  0.00  0.00    +0.000 A 
ATOM     34  C   UNL     1       1.098   4.126  20.560  0.00  0.00    +0.000 A 
ATOM     35  C   UNL     1       1.829   5.177  20.003  0.00  0.00    +0.000 A 
ENDBRANCH  23  30
ENDBRANCH  22  23
ENDBRANCH  21  22
ENDBRANCH  20  21
ENDBRANCH   4  20
TORSDOF 9
ENDMDL
