MODEL 1
REMARK VINA RESULT:      -7.0      0.000      0.000
REMARK  Name = 
REMARK  8 active torsions:
REMARK  status: ('A' for Active; 'I' for Inactive)
REMARK    1  A    between atoms: C_2  and  C_12
REMARK    2  A    between atoms: N_3  and  C_4
REMARK    3  A    between atoms: C_12  and  N_13
REMARK    4  A    between atoms: C_12  and  C_18
REMARK    5  A    between atoms: N_13  and  C_14
REMARK    6  A    between atoms: C_14  and  C_15
REMARK    7  A    between atoms: C_15  and  C_16
REMARK    8  A    between atoms: C_16  and  O_17
REMARK                            x       y       z     vdW  Elec       q    Type
REMARK                         _______ _______ _______ _____ _____    ______ ____
ROOT
ATOM      1  C   UNL     1       3.958   4.860  19.405  0.00  0.00    +0.000 C 
ENDROOT
BRANCH   1   2
ATOM      2  C   UNL     1       5.180   5.521  18.779  0.00  0.00    +0.000 A 
ATOM      3  C   UNL     1       5.051   6.283  17.606  0.00  0.00    +0.000 A 
ATOM      4  C   UNL     1       6.175   6.847  16.996  0.00  0.00    +0.000 A 
ATOM      5  C   UNL     1       7.439   6.665  17.552  0.00  0.00    +0.000 A 
ATOM      6  C   UNL     1       7.579   5.947  18.736  0.00  0.00    +0.000 A 
ATOM      7  C   UNL     1       6.456   5.390  19.352  0.00  0.00    +0.000 A 
ENDBRANCH   1   2
BRANCH   1   9
ATOM      8  O   UNL     1       1.762   5.576  18.573  0.00  0.00    +0.000 OA
ATOM      9  C   UNL     1       2.710   5.802  19.329  0.00  0.00    +0.000 C 
ATOM     10  N   UNL     1       2.778   6.875  20.215  0.00  0.00    +0.000 N 
ATOM     11  H   UNL     1       3.604   6.936  20.799  0.00  0.00    +0.000 HD
BRANCH  10  12
ATOM     12  C   UNL     1       1.820   7.902  20.386  0.00  0.00    +0.000 A 
ATOM     13  C   UNL     1       1.181   8.183  21.596  0.00  0.00    +0.000 A 
ATOM     14  C   UNL     1       0.229   9.204  21.673  0.00  0.00    +0.000 A 
ATOM     15 CL   UNL     1      -0.556   9.529  23.171  0.00  0.00    +0.000 Cl
ATOM     16  C   UNL     1      -0.097   9.960  20.553  0.00  0.00    +0.000 A 
ATOM     17  C   UNL     1       0.542   9.689  19.350  0.00  0.00    +0.000 A 
ATOM     18 CL   UNL     1       0.154  10.617  17.952  0.00  0.00    +0.000 Cl
ATOM     19  C   UNL     1       1.494   8.670  19.260  0.00  0.00    +0.000 A 
ENDBRANCH  10  12
ENDBRANCH   1   9
BRANCH   1  20
ATOM     20  N   UNL     1       3.685   3.561  18.754  0.00  0.00    +0.000 NA
ATOM     21  H   UNL     1       4.481   3.320  18.165  0.00  0.00    +0.000 HD
BRANCH  20  22
ATOM     22  C   UNL     1       3.418   2.490  19.712  0.00  0.00    +0.000 C 
BRANCH  22  23
ATOM     23  C   UNL     1       1.915   2.303  19.910  0.00  0.00    +0.000 C 
BRANCH  23  24
ATOM     24  C   UNL     1       1.414   2.871  21.231  0.00  0.00    +0.000 C 
BRANCH  24  25
ATOM     25  O   UNL     1       2.488   2.899  22.166  0.00  0.00    +0.000 OA
ATOM     26  H   UNL     1       2.794   1.983  22.275  0.00  0.00    +0.000 HD
ENDBRANCH  24  25
ENDBRANCH  23  24
ENDBRANCH  22  23
ENDBRANCH  20  22
ENDBRANCH   1  20
TORSDOF 8
ENDMDL
MODEL 2
REMARK VINA RESULT:      -7.0      0.683      1.231
REMARK  Name = 
REMARK  8 active torsions:
REMARK  status: ('A' for Active; 'I' for Inactive)
REMARK    1  A    between atoms: C_2  and  C_12
REMARK    2  A    between atoms: N_3  and  C_4
REMARK    3  A    between atoms: C_12  and  N_13
REMARK    4  A    between atoms: C_12  and  C_18
REMARK    5  A    between atoms: N_13  and  C_14
REMARK    6  A    between atoms: C_14  and  C_15
REMARK    7  A    between atoms: C_15  and  C_16
REMARK    8  A    between atoms: C_16  and  O_17
REMARK                            x       y       z     vdW  Elec       q    Type
REMARK                         _______ _______ _______ _____ _____    ______ ____
ROOT
ATOM      1  C   UNL     1       3.780   4.881  19.556  0.00  0.00    +0.000 C 
ENDROOT
BRANCH   1   2
ATOM      2  C   UNL     1       4.947   5.481  18.783  0.00  0.00    +0.000 A 
ATOM      3  C   UNL     1       6.257   5.368  19.277  0.00  0.00    +0.000 A 
ATOM      4  C   UNL     1       7.327   5.962  18.601  0.00  0.00    +0.000 A 
ATOM      5  C   UNL     1       7.104   6.668  17.421  0.00  0.00    +0.000 A 
ATOM      6  C   UNL     1       5.817   6.756  16.898  0.00  0.00    +0.000 A 
ATOM      7  C   UNL     1       4.749   6.155  17.566  0.00  0.00    +0.000 A 
ENDBRANCH   1   2
BRANCH   1   9
ATOM      8  O   UNL     1       1.521   5.553  18.867  0.00  0.00    +0.000 OA
ATOM      9  C   UNL     1       2.534   5.828  19.514  0.00  0.00    +0.000 C 
ATOM     10  N   UNL     1       2.686   6.969  20.300  0.00  0.00    +0.000 N 
ATOM     11  H   UNL     1       3.561   7.067  20.802  0.00  0.00    +0.000 HD
BRANCH  10  12
ATOM     12  C   UNL     1       1.753   8.018  20.471  0.00  0.00    +0.000 A 
ATOM     13  C   UNL     1       1.147   8.336  21.689  0.00  0.00    +0.000 A 
ATOM     14  C   UNL     1       0.216   9.377  21.766  0.00  0.00    +0.000 A 
ATOM     15 CL   UNL     1      -0.527   9.748  23.274  0.00  0.00    +0.000 Cl
ATOM     16  C   UNL     1      -0.120  10.116  20.638  0.00  0.00    +0.000 A 
ATOM     17  C   UNL     1       0.486   9.808  19.427  0.00  0.00    +0.000 A 
ATOM     18 CL   UNL     1       0.084  10.715  18.020  0.00  0.00    +0.000 Cl
ATOM     19  C   UNL     1       1.416   8.769  19.337  0.00  0.00    +0.000 A 
ENDBRANCH  10  12
ENDBRANCH   1   9
BRANCH   1  20
ATOM     20  N   UNL     1       3.446   3.540  19.028  0.00  0.00    +0.000 NA
ATOM     21  H   UNL     1       4.106   3.311  18.286  0.00  0.00    +0.000 HD
BRANCH  20  22
ATOM     22  C   UNL     1       3.458   2.504  20.058  0.00  0.00    +0.000 C 
BRANCH  22  23
ATOM     23  C   UNL     1       2.810   3.011  21.344  0.00  0.00    +0.000 C 
BRANCH  23  24
ATOM     24  C   UNL     1       1.348   2.604  21.474  0.00  0.00    +0.000 C 
BRANCH  24  25
ATOM     25  O   UNL     1       0.618   3.124  20.366  0.00  0.00    +0.000 OA
ATOM     26  H   UNL     1       1.227   3.690  19.864  0.00  0.00    +0.000 HD
ENDBRANCH  24  25
ENDBRANCH  23  24
ENDBRANCH  22  23
ENDBRANCH  20  22
ENDBRANCH   1  20
TORSDOF 8
ENDMDL
MODEL 3
REMARK VINA RESULT:      -7.0      3.798      5.448
REMARK  Name = 
REMARK  8 active torsions:
REMARK  status: ('A' for Active; 'I' for Inactive)
REMARK    1  A    between atoms: C_2  and  C_12
REMARK    2  A    between atoms: N_3  and  C_4
REMARK    3  A    between atoms: C_12  and  N_13
REMARK    4  A    between atoms: C_12  and  C_18
REMARK    5  A    between atoms: N_13  and  C_14
REMARK    6  A    between atoms: C_14  and  C_15
REMARK    7  A    between atoms: C_15  and  C_16
REMARK    8  A    between atoms: C_16  and  O_17
REMARK                            x       y       z     vdW  Elec       q    Type
REMARK                         _______ _______ _______ _____ _____    ______ ____
ROOT
ATOM      1  C   UNL     1       6.045   5.889  15.748  0.00  0.00    +0.000 C 
ENDROOT
BRANCH   1   2
ATOM      2  C   UNL     1       6.199   5.066  14.476  0.00  0.00    +0.000 A 
ATOM      3  C   UNL     1       5.171   4.206  14.058  0.00  0.00    +0.000 A 
ATOM      4  C   UNL     1       5.327   3.408  12.922  0.00  0.00    +0.000 A 
ATOM      5  C   UNL     1       6.507   3.464  12.184  0.00  0.00    +0.000 A 
ATOM      6  C   UNL     1       7.520   4.339  12.561  0.00  0.00    +0.000 A 
ATOM      7  C   UNL     1       7.363   5.144  13.691  0.00  0.00    +0.000 A 
ENDBRANCH   1   2
BRANCH   1   9
ATOM      8  O   UNL     1       5.404   4.004  17.184  0.00  0.00    +0.000 OA
ATOM      9  C   UNL     1       5.148   5.144  16.793  0.00  0.00    +0.000 C 
ATOM     10  N   UNL     1       4.076   5.914  17.242  0.00  0.00    +0.000 N 
ATOM     11  H   UNL     1       3.988   6.847  16.857  0.00  0.00    +0.000 HD
BRANCH  10  12
ATOM     12  C   UNL     1       3.084   5.532  18.175  0.00  0.00    +0.000 A 
ATOM     13  C   UNL     1       2.639   6.344  19.222  0.00  0.00    +0.000 A 
ATOM     14  C   UNL     1       1.668   5.880  20.114  0.00  0.00    +0.000 A 
ATOM     15 CL   UNL     1       1.140   6.892  21.403  0.00  0.00    +0.000 Cl
ATOM     16  C   UNL     1       1.125   4.608  19.977  0.00  0.00    +0.000 A 
ATOM     17  C   UNL     1       1.559   3.801  18.934  0.00  0.00    +0.000 A 
ATOM     18 CL   UNL     1       0.894   2.223  18.745  0.00  0.00    +0.000 Cl
ATOM     19  C   UNL     1       2.530   4.253  18.036  0.00  0.00    +0.000 A 
ENDBRANCH  10  12
ENDBRANCH   1   9
BRANCH   1  20
ATOM     20  N   UNL     1       7.372   6.209  16.320  0.00  0.00    +0.000 NA
ATOM     21  H   UNL     1       8.005   6.443  15.556  0.00  0.00    +0.000 HD
BRANCH  20  22
ATOM     22  C   UNL     1       7.324   7.297  17.294  0.00  0.00    +0.000 C 
BRANCH  22  23
ATOM     23  C   UNL     1       8.167   6.961  18.522  0.00  0.00    +0.000 C 
BRANCH  23  24
ATOM     24  C   UNL     1       7.657   5.740  19.277  0.00  0.00    +0.000 C 
BRANCH  24  25
ATOM     25  O   UNL     1       8.008   4.563  18.556  0.00  0.00    +0.000 OA
ATOM     26  H   UNL     1       8.052   4.808  17.617  0.00  0.00    +0.000 HD
ENDBRANCH  24  25
ENDBRANCH  23  24
ENDBRANCH  22  23
ENDBRANCH  20  22
ENDBRANCH   1  20
TORSDOF 8
ENDMDL
MODEL 4
REMARK VINA RESULT:      -7.0      0.860      2.058
REMARK  Name = 
REMARK  8 active torsions:
REMARK  status: ('A' for Active; 'I' for Inactive)
REMARK    1  A    between atoms: C_2  and  C_12
REMARK    2  A    between atoms: N_3  and  C_4
REMARK    3  A    between atoms: C_12  and  N_13
REMARK    4  A    between atoms: C_12  and  C_18
REMARK    5  A    between atoms: N_13  and  C_14
REMARK    6  A    between atoms: C_14  and  C_15
REMARK    7  A    between atoms: C_15  and  C_16
REMARK    8  A    between atoms: C_16  and  O_17
REMARK                            x       y       z     vdW  Elec       q    Type
REMARK                         _______ _______ _______ _____ _____    ______ ____
ROOT
ATOM      1  C   UNL     1       3.756   5.056  19.182  0.00  0.00    +0.000 C 
ENDROOT
BRANCH   1   2
ATOM      2  C   UNL     1       5.074   5.618  18.664  0.00  0.00    +0.000 A 
ATOM      3  C   UNL     1       5.097   6.437  17.524  0.00  0.00    +0.000 A 
ATOM      4  C   UNL     1       6.307   6.912  17.012  0.00  0.00    +0.000 A 
ATOM      5  C   UNL     1       7.508   6.583  17.636  0.00  0.00    +0.000 A 
ATOM      6  C   UNL     1       7.500   5.805  18.789  0.00  0.00    +0.000 A 
ATOM      7  C   UNL     1       6.292   5.337  19.308  0.00  0.00    +0.000 A 
ENDBRANCH   1   2
BRANCH   1   9
ATOM      8  O   UNL     1       1.790   6.093  18.141  0.00  0.00    +0.000 OA
ATOM      9  C   UNL     1       2.609   6.114  19.062  0.00  0.00    +0.000 C 
ATOM     10  N   UNL     1       2.601   7.035  20.108  0.00  0.00    +0.000 N 
ATOM     11  H   UNL     1       3.318   6.930  20.817  0.00  0.00    +0.000 HD
BRANCH  10  12
ATOM     12  C   UNL     1       1.704   8.114  20.288  0.00  0.00    +0.000 A 
ATOM     13  C   UNL     1       1.332   9.000  19.274  0.00  0.00    +0.000 A 
ATOM     14  C   UNL     1       0.454  10.055  19.543  0.00  0.00    +0.000 A 
ATOM     15 CL   UNL     1       0.014  11.142  18.282  0.00  0.00    +0.000 Cl
ATOM     16  C   UNL     1      -0.067  10.240  20.818  0.00  0.00    +0.000 A 
ATOM     17  C   UNL     1       0.295   9.356  21.826  0.00  0.00    +0.000 A 
ATOM     18 CL   UNL     1      -0.343   9.567  23.412  0.00  0.00    +0.000 Cl
ATOM     19  C   UNL     1       1.173   8.300  21.571  0.00  0.00    +0.000 A 
ENDBRANCH  10  12
ENDBRANCH   1   9
BRANCH   1  20
ATOM     20  N   UNL     1       3.408   3.811  18.462  0.00  0.00    +0.000 NA
ATOM     21  H   UNL     1       4.052   3.699  17.679  0.00  0.00    +0.000 HD
BRANCH  20  22
ATOM     22  C   UNL     1       3.440   2.629  19.321  0.00  0.00    +0.000 C 
BRANCH  22  23
ATOM     23  C   UNL     1       2.137   1.842  19.207  0.00  0.00    +0.000 C 
BRANCH  23  24
ATOM     24  C   UNL     1       0.930   2.727  18.922  0.00  0.00    +0.000 C 
BRANCH  24  25
ATOM     25  O   UNL     1       0.557   3.408  20.117  0.00  0.00    +0.000 OA
ATOM     26  H   UNL     1       1.220   3.184  20.791  0.00  0.00    +0.000 HD
ENDBRANCH  24  25
ENDBRANCH  23  24
ENDBRANCH  22  23
ENDBRANCH  20  22
ENDBRANCH   1  20
TORSDOF 8
ENDMDL
MODEL 5
REMARK VINA RESULT:      -6.9      4.816      7.791
REMARK  Name = 
REMARK  8 active torsions:
REMARK  status: ('A' for Active; 'I' for Inactive)
REMARK    1  A    between atoms: C_2  and  C_12
REMARK    2  A    between atoms: N_3  and  C_4
REMARK    3  A    between atoms: C_12  and  N_13
REMARK    4  A    between atoms: C_12  and  C_18
REMARK    5  A    between atoms: N_13  and  C_14
REMARK    6  A    between atoms: C_14  and  C_15
REMARK    7  A    between atoms: C_15  and  C_16
REMARK    8  A    between atoms: C_16  and  O_17
REMARK                            x       y       z     vdW  Elec       q    Type
REMARK                         _______ _______ _______ _____ _____    ______ ____
ROOT
ATOM      1  C   UNL     1       4.798   3.509  18.561  0.00  0.00    +0.000 C 
ENDROOT
BRANCH   1   2
ATOM      2  C   UNL     1       3.392   3.585  19.141  0.00  0.00    +0.000 A 
ATOM      3  C   UNL     1       2.408   2.668  18.739  0.00  0.00    +0.000 A 
ATOM      4  C   UNL     1       1.101   2.765  19.226  0.00  0.00    +0.000 A 
ATOM      5  C   UNL     1       0.763   3.772  20.126  0.00  0.00    +0.000 A 
ATOM      6  C   UNL     1       1.736   4.665  20.566  0.00  0.00    +0.000 A 
ATOM      7  C   UNL     1       3.043   4.564  20.087  0.00  0.00    +0.000 A 
ENDBRANCH   1   2
BRANCH   1   9
ATOM      8  O   UNL     1       3.996   4.876  16.687  0.00  0.00    +0.000 OA
ATOM      9  C   UNL     1       4.833   4.072  17.100  0.00  0.00    +0.000 C 
ATOM     10  N   UNL     1       5.912   3.597  16.356  0.00  0.00    +0.000 N 
ATOM     11  H   UNL     1       6.543   2.955  16.821  0.00  0.00    +0.000 HD
BRANCH  10  12
ATOM     12  C   UNL     1       6.222   3.907  15.011  0.00  0.00    +0.000 A 
ATOM     13  C   UNL     1       7.301   4.705  14.621  0.00  0.00    +0.000 A 
ATOM     14  C   UNL     1       7.525   4.980  13.268  0.00  0.00    +0.000 A 
ATOM     15 CL   UNL     1       8.855   5.972  12.807  0.00  0.00    +0.000 Cl
ATOM     16  C   UNL     1       6.684   4.465  12.288  0.00  0.00    +0.000 A 
ATOM     17  C   UNL     1       5.615   3.666  12.673  0.00  0.00    +0.000 A 
ATOM     18 CL   UNL     1       4.565   3.017  11.473  0.00  0.00    +0.000 Cl
ATOM     19  C   UNL     1       5.381   3.386  14.021  0.00  0.00    +0.000 A 
ENDBRANCH  10  12
ENDBRANCH   1   9
BRANCH   1  20
ATOM     20  N   UNL     1       5.754   4.228  19.431  0.00  0.00    +0.000 NA
ATOM     21  H   UNL     1       6.645   3.734  19.412  0.00  0.00    +0.000 HD
BRANCH  20  22
ATOM     22  C   UNL     1       5.939   5.625  19.040  0.00  0.00    +0.000 C 
BRANCH  22  23
ATOM     23  C   UNL     1       7.422   5.948  18.872  0.00  0.00    +0.000 C 
BRANCH  23  24
ATOM     24  C   UNL     1       7.710   6.795  17.639  0.00  0.00    +0.000 C 
BRANCH  24  25
ATOM     25  O   UNL     1       6.480   7.263  17.095  0.00  0.00    +0.000 OA
ATOM     26  H   UNL     1       6.680   8.073  16.596  0.00  0.00    +0.000 HD
ENDBRANCH  24  25
ENDBRANCH  23  24
ENDBRANCH  22  23
ENDBRANCH  20  22
ENDBRANCH   1  20
TORSDOF 8
ENDMDL
MODEL 6
REMARK VINA RESULT:      -6.9      1.233      1.272
REMARK  Name = 
REMARK  8 active torsions:
REMARK  status: ('A' for Active; 'I' for Inactive)
REMARK    1  A    between atoms: C_2  and  C_12
REMARK    2  A    between atoms: N_3  and  C_4
REMARK    3  A    between atoms: C_12  and  N_13
REMARK    4  A    between atoms: C_12  and  C_18
REMARK    5  A    between atoms: N_13  and  C_14
REMARK    6  A    between atoms: C_14  and  C_15
REMARK    7  A    between atoms: C_15  and  C_16
REMARK    8  A    between atoms: C_16  and  O_17
REMARK                            x       y       z     vdW  Elec       q    Type
REMARK                         _______ _______ _______ _____ _____    ______ ____
ROOT
ATOM      1  C   UNL     1       3.978   4.944  18.817  0.00  0.00    +0.000 C 
ENDROOT
BRANCH   1   2
ATOM      2  C   UNL     1       5.300   5.643  18.526  0.00  0.00    +0.000 A 
ATOM      3  C   UNL     1       5.396   6.570  17.476  0.00  0.00    +0.000 A 
ATOM      4  C   UNL     1       6.618   7.175  17.169  0.00  0.00    +0.000 A 
ATOM      5  C   UNL     1       7.757   6.867  17.911  0.00  0.00    +0.000 A 
ATOM      6  C   UNL     1       7.670   5.980  18.979  0.00  0.00    +0.000 A 
ATOM      7  C   UNL     1       6.448   5.382  19.293  0.00  0.00    +0.000 A 
ENDBRANCH   1   2
BRANCH   1   9
ATOM      8  O   UNL     1       1.923   5.970  17.951  0.00  0.00    +0.000 OA
ATOM      9  C   UNL     1       2.792   5.967  18.824  0.00  0.00    +0.000 C 
ATOM     10  N   UNL     1       2.816   6.824  19.923  0.00  0.00    +0.000 N 
ATOM     11  H   UNL     1       3.575   6.703  20.583  0.00  0.00    +0.000 HD
BRANCH  10  12
ATOM     12  C   UNL     1       1.897   7.858  20.217  0.00  0.00    +0.000 A 
ATOM     13  C   UNL     1       1.330   8.066  21.477  0.00  0.00    +0.000 A 
ATOM     14  C   UNL     1       0.411   9.101  21.678  0.00  0.00    +0.000 A 
ATOM     15 CL   UNL     1      -0.284   9.336  23.235  0.00  0.00    +0.000 Cl
ATOM     16  C   UNL     1       0.047   9.943  20.633  0.00  0.00    +0.000 A 
ATOM     17  C   UNL     1       0.614   9.743  19.381  0.00  0.00    +0.000 A 
ATOM     18 CL   UNL     1       0.178  10.778  18.075  0.00  0.00    +0.000 Cl
ATOM     19  C   UNL     1       1.532   8.712  19.168  0.00  0.00    +0.000 A 
ENDBRANCH  10  12
ENDBRANCH   1   9
BRANCH   1  20
ATOM     20  N   UNL     1       3.740   3.862  17.836  0.00  0.00    +0.000 NA
ATOM     21  H   UNL     1       4.423   3.951  17.084  0.00  0.00    +0.000 HD
BRANCH  20  22
ATOM     22  C   UNL     1       3.809   2.529  18.431  0.00  0.00    +0.000 C 
BRANCH  22  23
ATOM     23  C   UNL     1       2.553   1.725  18.104  0.00  0.00    +0.000 C 
BRANCH  23  24
ATOM     24  C   UNL     1       1.294   2.306  18.735  0.00  0.00    +0.000 C 
BRANCH  24  25
ATOM     25  O   UNL     1       0.786   3.341  17.900  0.00  0.00    +0.000 OA
ATOM     26  H   UNL     1       0.541   4.081  18.480  0.00  0.00    +0.000 HD
ENDBRANCH  24  25
ENDBRANCH  23  24
ENDBRANCH  22  23
ENDBRANCH  20  22
ENDBRANCH   1  20
TORSDOF 8
ENDMDL
MODEL 7
REMARK VINA RESULT:      -6.9      1.034      2.287
REMARK  Name = 
REMARK  8 active torsions:
REMARK  status: ('A' for Active; 'I' for Inactive)
REMARK    1  A    between atoms: C_2  and  C_12
REMARK    2  A    between atoms: N_3  and  C_4
REMARK    3  A    between atoms: C_12  and  N_13
REMARK    4  A    between atoms: C_12  and  C_18
REMARK    5  A    between atoms: N_13  and  C_14
REMARK    6  A    between atoms: C_14  and  C_15
REMARK    7  A    between atoms: C_15  and  C_16
REMARK    8  A    between atoms: C_16  and  O_17
REMARK                            x       y       z     vdW  Elec       q    Type
REMARK                         _______ _______ _______ _____ _____    ______ ____
ROOT
ATOM      1  C   UNL     1       3.434   4.761  19.085  0.00  0.00    +0.000 C 
ENDROOT
BRANCH   1   2
ATOM      2  C   UNL     1       4.832   4.781  18.482  0.00  0.00    +0.000 A 
ATOM      3  C   UNL     1       5.907   5.330  19.201  0.00  0.00    +0.000 A 
ATOM      4  C   UNL     1       7.182   5.401  18.632  0.00  0.00    +0.000 A 
ATOM      5  C   UNL     1       7.402   4.920  17.344  0.00  0.00    +0.000 A 
ATOM      6  C   UNL     1       6.357   4.337  16.633  0.00  0.00    +0.000 A 
ATOM      7  C   UNL     1       5.084   4.257  17.203  0.00  0.00    +0.000 A 
ENDBRANCH   1   2
BRANCH   1   9
ATOM      8  O   UNL     1       2.558   6.681  17.832  0.00  0.00    +0.000 OA
ATOM      9  C   UNL     1       2.736   6.154  18.932  0.00  0.00    +0.000 C 
ATOM     10  N   UNL     1       2.319   6.695  20.147  0.00  0.00    +0.000 N 
ATOM     11  H   UNL     1       2.507   6.150  20.980  0.00  0.00    +0.000 HD
BRANCH  10  12
ATOM     12  C   UNL     1       1.668   7.934  20.350  0.00  0.00    +0.000 A 
ATOM     13  C   UNL     1       1.580   8.940  19.384  0.00  0.00    +0.000 A 
ATOM     14  C   UNL     1       0.935  10.146  19.675  0.00  0.00    +0.000 A 
ATOM     15 CL   UNL     1       0.845  11.377  18.475  0.00  0.00    +0.000 Cl
ATOM     16  C   UNL     1       0.367  10.366  20.924  0.00  0.00    +0.000 A 
ATOM     17  C   UNL     1       0.445   9.365  21.884  0.00  0.00    +0.000 A 
ATOM     18 CL   UNL     1      -0.256   9.619  23.436  0.00  0.00    +0.000 Cl
ATOM     19  C   UNL     1       1.089   8.157  21.606  0.00  0.00    +0.000 A 
ENDBRANCH  10  12
ENDBRANCH   1   9
BRANCH   1  20
ATOM     20  N   UNL     1       2.622   3.689  18.468  0.00  0.00    +0.000 NA
ATOM     21  H   UNL     1       3.105   3.356  17.635  0.00  0.00    +0.000 HD
BRANCH  20  22
ATOM     22  C   UNL     1       2.358   2.578  19.381  0.00  0.00    +0.000 C 
BRANCH  22  23
ATOM     23  C   UNL     1       1.149   2.880  20.264  0.00  0.00    +0.000 C 
BRANCH  23  24
ATOM     24  C   UNL     1       1.488   2.900  21.749  0.00  0.00    +0.000 C 
BRANCH  24  25
ATOM     25  O   UNL     1       2.837   2.476  21.928  0.00  0.00    +0.000 OA
ATOM     26  H   UNL     1       3.244   3.085  22.566  0.00  0.00    +0.000 HD
ENDBRANCH  24  25
ENDBRANCH  23  24
ENDBRANCH  22  23
ENDBRANCH  20  22
ENDBRANCH   1  20
TORSDOF 8
ENDMDL
MODEL 8
REMARK VINA RESULT:      -6.8      1.874      4.496
REMARK  Name = 
REMARK  8 active torsions:
REMARK  status: ('A' for Active; 'I' for Inactive)
REMARK    1  A    between atoms: C_2  and  C_12
REMARK    2  A    between atoms: N_3  and  C_4
REMARK    3  A    between atoms: C_12  and  N_13
REMARK    4  A    between atoms: C_12  and  C_18
REMARK    5  A    between atoms: N_13  and  C_14
REMARK    6  A    between atoms: C_14  and  C_15
REMARK    7  A    between atoms: C_15  and  C_16
REMARK    8  A    between atoms: C_16  and  O_17
REMARK                            x       y       z     vdW  Elec       q    Type
REMARK                         _______ _______ _______ _____ _____    ______ ____
ROOT
ATOM      1  C   UNL     1       3.592   6.153  17.769  0.00  0.00    +0.000 C 
ENDROOT
BRANCH   1   2
ATOM      2  C   UNL     1       2.906   4.966  18.433  0.00  0.00    +0.000 A 
ATOM      3  C   UNL     1       3.391   4.455  19.647  0.00  0.00    +0.000 A 
ATOM      4  C   UNL     1       2.799   3.333  20.235  0.00  0.00    +0.000 A 
ATOM      5  C   UNL     1       1.713   2.713  19.622  0.00  0.00    +0.000 A 
ATOM      6  C   UNL     1       1.195   3.231  18.439  0.00  0.00    +0.000 A 
ATOM      7  C   UNL     1       1.779   4.357  17.855  0.00  0.00    +0.000 A 
ENDBRANCH   1   2
BRANCH   1   9
ATOM      8  O   UNL     1       2.689   8.359  17.183  0.00  0.00    +0.000 OA
ATOM      9  C   UNL     1       2.805   7.479  18.038  0.00  0.00    +0.000 C 
ATOM     10  N   UNL     1       2.236   7.530  19.310  0.00  0.00    +0.000 N 
ATOM     11  H   UNL     1       2.388   6.729  19.912  0.00  0.00    +0.000 HD
BRANCH  10  12
ATOM     12  C   UNL     1       1.473   8.586  19.861  0.00  0.00    +0.000 A 
ATOM     13  C   UNL     1       1.014   9.684  19.130  0.00  0.00    +0.000 A 
ATOM     14  C   UNL     1       0.282  10.697  19.758  0.00  0.00    +0.000 A 
ATOM     15 CL   UNL     1      -0.268  12.047  18.842  0.00  0.00    +0.000 Cl
ATOM     16  C   UNL     1      -0.004  10.630  21.117  0.00  0.00    +0.000 A 
ATOM     17  C   UNL     1       0.445   9.536  21.845  0.00  0.00    +0.000 A 
ATOM     18 CL   UNL     1       0.096   9.434  23.528  0.00  0.00    +0.000 Cl
ATOM     19  C   UNL     1       1.178   8.519  21.228  0.00  0.00    +0.000 A 
ENDBRANCH  10  12
ENDBRANCH   1   9
BRANCH   1  20
ATOM     20  N   UNL     1       4.993   6.263  18.232  0.00  0.00    +0.000 NA
ATOM     21  H   UNL     1       5.323   5.334  18.488  0.00  0.00    +0.000 HD
BRANCH  20  22
ATOM     22  C   UNL     1       5.877   6.860  17.232  0.00  0.00    +0.000 C 
BRANCH  22  23
ATOM     23  C   UNL     1       7.337   6.529  17.534  0.00  0.00    +0.000 C 
BRANCH  23  24
ATOM     24  C   UNL     1       7.499   5.569  18.706  0.00  0.00    +0.000 C 
BRANCH  24  25
ATOM     25  O   UNL     1       7.248   4.240  18.261  0.00  0.00    +0.000 OA
ATOM     26  H   UNL     1       6.333   4.217  17.933  0.00  0.00    +0.000 HD
ENDBRANCH  24  25
ENDBRANCH  23  24
ENDBRANCH  22  23
ENDBRANCH  20  22
ENDBRANCH   1  20
TORSDOF 8
ENDMDL
MODEL 9
REMARK VINA RESULT:      -6.8      1.250      1.658
REMARK  Name = 
REMARK  8 active torsions:
REMARK  status: ('A' for Active; 'I' for Inactive)
REMARK    1  A    between atoms: C_2  and  C_12
REMARK    2  A    between atoms: N_3  and  C_4
REMARK    3  A    between atoms: C_12  and  N_13
REMARK    4  A    between atoms: C_12  and  C_18
REMARK    5  A    between atoms: N_13  and  C_14
REMARK    6  A    between atoms: C_14  and  C_15
REMARK    7  A    between atoms: C_15  and  C_16
REMARK    8  A    between atoms: C_16  and  O_17
REMARK                            x       y       z     vdW  Elec       q    Type
REMARK                         _______ _______ _______ _____ _____    ______ ____
ROOT
ATOM      1  C   UNL     1       3.432   4.940  18.804  0.00  0.00    +0.000 C 
ENDROOT
BRANCH   1   2
ATOM      2  C   UNL     1       4.799   5.528  18.474  0.00  0.00    +0.000 A 
ATOM      3  C   UNL     1       5.916   5.214  19.266  0.00  0.00    +0.000 A 
ATOM      4  C   UNL     1       7.161   5.792  19.002  0.00  0.00    +0.000 A 
ATOM      5  C   UNL     1       7.309   6.682  17.941  0.00  0.00    +0.000 A 
ATOM      6  C   UNL     1       6.221   6.972  17.122  0.00  0.00    +0.000 A 
ATOM      7  C   UNL     1       4.979   6.390  17.379  0.00  0.00    +0.000 A 
ENDBRANCH   1   2
BRANCH   1   9
ATOM      8  O   UNL     1       2.274   5.524  20.888  0.00  0.00    +0.000 OA
ATOM      9  C   UNL     1       2.634   5.883  19.766  0.00  0.00    +0.000 C 
ATOM     10  N   UNL     1       2.417   7.152  19.233  0.00  0.00    +0.000 N 
ATOM     11  H   UNL     1       2.784   7.329  18.305  0.00  0.00    +0.000 HD
BRANCH  10  12
ATOM     12  C   UNL     1       1.728   8.227  19.842  0.00  0.00    +0.000 A 
ATOM     13  C   UNL     1       1.357   8.256  21.189  0.00  0.00    +0.000 A 
ATOM     14  C   UNL     1       0.657   9.350  21.708  0.00  0.00    +0.000 A 
ATOM     15 CL   UNL     1       0.201   9.363  23.368  0.00  0.00    +0.000 Cl
ATOM     16  C   UNL     1       0.321  10.428  20.898  0.00  0.00    +0.000 A 
ATOM     17  C   UNL     1       0.694  10.406  19.560  0.00  0.00    +0.000 A 
ATOM     18 CL   UNL     1       0.289  11.735  18.542  0.00  0.00    +0.000 Cl
ATOM     19  C   UNL     1       1.392   9.318  19.030  0.00  0.00    +0.000 A 
ENDBRANCH  10  12
ENDBRANCH   1   9
BRANCH   1  20
ATOM     20  N   UNL     1       2.671   4.678  17.564  0.00  0.00    +0.000 NA
ATOM     21  H   UNL     1       3.291   4.228  16.892  0.00  0.00    +0.000 HD
BRANCH  20  22
ATOM     22  C   UNL     1       1.482   3.858  17.788  0.00  0.00    +0.000 C 
BRANCH  22  23
ATOM     23  C   UNL     1       1.870   2.474  18.304  0.00  0.00    +0.000 C 
BRANCH  23  24
ATOM     24  C   UNL     1       1.265   2.156  19.666  0.00  0.00    +0.000 C 
BRANCH  24  25
ATOM     25  O   UNL     1       0.451   3.248  20.083  0.00  0.00    +0.000 OA
ATOM     26  H   UNL     1       0.526   3.306  21.050  0.00  0.00    +0.000 HD
ENDBRANCH  24  25
ENDBRANCH  23  24
ENDBRANCH  22  23
ENDBRANCH  20  22
ENDBRANCH   1  20
TORSDOF 8
ENDMDL
