MODEL 1
REMARK VINA RESULT:      -6.8      0.000      0.000
REMARK  Name = 
REMARK  4 active torsions:
REMARK  status: ('A' for Active; 'I' for Inactive)
REMARK    1  A    between atoms: C_1  and  O_2
REMARK    2  A    between atoms: O_2  and  C_3
REMARK    3  A    between atoms: C_14  and  C_15
REMARK    4  A    between atoms: C_22  and  C_23
REMARK                            x       y       z     vdW  Elec       q    Type
REMARK                         _______ _______ _______ _____ _____    ______ ____
ROOT
ATOM      1  C   UNL     1       3.610   6.920  17.860  0.00  0.00    +0.000 A 
ATOM      2  N   UNL     1       2.814   7.936  18.240  0.00  0.00    +0.000 NA
ATOM      3  C   UNL     1       2.087   7.777  19.346  0.00  0.00    +0.000 A 
ATOM      4  N   UNL     1       1.313   8.836  19.718  0.00  0.00    +0.000 N 
ATOM      5  C   UNL     1       0.783   9.008  21.049  0.00  0.00    +0.000 C 
ATOM      6  C   UNL     1      -0.163  10.187  20.857  0.00  0.00    +0.000 C 
ATOM      7  C   UNL     1      -0.610  10.922  22.093  0.00  0.00    +0.000 C 
ATOM      8  S   UNL     1      -0.922  12.663  21.733  0.00  0.00    +0.000 S 
ATOM      9  C   UNL     1      -1.401  12.533  20.051  0.00  0.00    +0.000 C 
ATOM     10  N   UNL     1      -2.280  13.519  19.722  0.00  0.00    +0.000 N 
ATOM     11  N   UNL     1      -0.955  11.700  19.172  0.00  0.00    +0.000 NA
ATOM     12  C   UNL     1       0.276  10.979  19.615  0.00  0.00    +0.000 C 
ATOM     13  C   UNL     1       0.763   9.779  18.739  0.00  0.00    +0.000 C 
ATOM     14  N   UNL     1       2.094   6.652  20.079  0.00  0.00    +0.000 NA
ATOM     15  C   UNL     1       2.847   5.612  19.629  0.00  0.00    +0.000 A 
ATOM     16  C   UNL     1       2.774   4.314  20.377  0.00  0.00    +0.000 C 
ATOM     17  C   UNL     1       3.639   5.711  18.506  0.00  0.00    +0.000 A 
ATOM     18  F   UNL     1       4.388   4.684  18.079  0.00  0.00    +0.000 F 
ATOM     19  H   UNL     1      -2.230  14.285  20.394  0.00  0.00    +0.000 HD
ATOM     20  H   UNL     1      -2.114  13.849  18.780  0.00  0.00    +0.000 HD
ENDROOT
BRANCH  12  21
ATOM     21  C   UNL     1       1.356  12.031  19.408  0.00  0.00    +0.000 A 
ATOM     22  C   UNL     1       1.933  12.303  18.170  0.00  0.00    +0.000 A 
ATOM     23  C   UNL     1       2.966  13.264  18.260  0.00  0.00    +0.000 A 
ATOM     24  N   UNL     1       3.170  13.755  19.471  0.00  0.00    +0.000 NA
ATOM     25  S   UNL     1       2.136  13.015  20.550  0.00  0.00    +0.000 S 
ENDBRANCH  12  21
BRANCH   1  27
ATOM     26  C   UNL     1       5.813   7.125  17.124  0.00  0.00    +0.000 C 
ATOM     27  O   UNL     1       4.430   7.101  16.765  0.00  0.00    +0.000 OA
ENDBRANCH   1  27
TORSDOF 2
ENDMDL
MODEL 2
REMARK VINA RESULT:      -6.4      6.682     10.354
REMARK  Name = 
REMARK  4 active torsions:
REMARK  status: ('A' for Active; 'I' for Inactive)
REMARK    1  A    between atoms: C_1  and  O_2
REMARK    2  A    between atoms: O_2  and  C_3
REMARK    3  A    between atoms: C_14  and  C_15
REMARK    4  A    between atoms: C_22  and  C_23
REMARK                            x       y       z     vdW  Elec       q    Type
REMARK                         _______ _______ _______ _____ _____    ______ ____
ROOT
ATOM      1  C   UNL     1       4.159  14.842  19.782  0.00  0.00    +0.000 A 
ATOM      2  N   UNL     1       5.419  14.569  19.397  0.00  0.00    +0.000 NA
ATOM      3  C   UNL     1       6.337  15.525  19.545  0.00  0.00    +0.000 A 
ATOM      4  N   UNL     1       7.608  15.205  19.171  0.00  0.00    +0.000 N 
ATOM      5  C   UNL     1       8.775  15.932  19.610  0.00  0.00    +0.000 C 
ATOM      6  C   UNL     1       9.867  15.319  18.743  0.00  0.00    +0.000 C 
ATOM      7  C   UNL     1      11.294  15.531  19.177  0.00  0.00    +0.000 C 
ATOM      8  S   UNL     1      12.333  14.141  18.683  0.00  0.00    +0.000 S 
ATOM      9  C   UNL     1      11.473  13.628  17.244  0.00  0.00    +0.000 C 
ATOM     10  N   UNL     1      12.329  13.071  16.343  0.00  0.00    +0.000 N 
ATOM     11  N   UNL     1      10.200  13.664  17.038  0.00  0.00    +0.000 NA
ATOM     12  C   UNL     1       9.410  13.927  18.279  0.00  0.00    +0.000 C 
ATOM     13  C   UNL     1       7.886  14.232  18.111  0.00  0.00    +0.000 C 
ATOM     14  N   UNL     1       6.060  16.745  20.033  0.00  0.00    +0.000 NA
ATOM     15  C   UNL     1       4.763  17.021  20.340  0.00  0.00    +0.000 A 
ATOM     16  C   UNL     1       4.425  18.415  20.778  0.00  0.00    +0.000 C 
ATOM     17  C   UNL     1       3.766  16.076  20.232  0.00  0.00    +0.000 A 
ATOM     18  F   UNL     1       2.494  16.355  20.551  0.00  0.00    +0.000 F 
ATOM     19  H   UNL     1      13.194  12.782  16.800  0.00  0.00    +0.000 HD
ATOM     20  H   UNL     1      11.892  12.293  15.866  0.00  0.00    +0.000 HD
ENDROOT
BRANCH  12  21
ATOM     21  C   UNL     1       9.428  12.568  18.964  0.00  0.00    +0.000 A 
ATOM     22  C   UNL     1       9.227  11.367  18.288  0.00  0.00    +0.000 A 
ATOM     23  C   UNL     1       9.212  10.257  19.163  0.00  0.00    +0.000 A 
ATOM     24  N   UNL     1       9.426  10.544  20.437  0.00  0.00    +0.000 NA
ATOM     25  S   UNL     1       9.603  12.193  20.610  0.00  0.00    +0.000 S 
ENDBRANCH  12  21
BRANCH   1  27
ATOM     26  C   UNL     1       2.405  13.937  18.541  0.00  0.00    +0.000 C 
ATOM     27  O   UNL     1       3.217  13.836  19.713  0.00  0.00    +0.000 OA
ENDBRANCH   1  27
TORSDOF 2
ENDMDL
MODEL 3
REMARK VINA RESULT:      -6.3      5.735      9.173
REMARK  Name = 
REMARK  4 active torsions:
REMARK  status: ('A' for Active; 'I' for Inactive)
REMARK    1  A    between atoms: C_1  and  O_2
REMARK    2  A    between atoms: O_2  and  C_3
REMARK    3  A    between atoms: C_14  and  C_15
REMARK    4  A    between atoms: C_22  and  C_23
REMARK                            x       y       z     vdW  Elec       q    Type
REMARK                         _______ _______ _______ _____ _____    ______ ____
ROOT
ATOM      1  C   UNL     1      -6.017  12.949  23.207  0.00  0.00    +0.000 A 
ATOM      2  N   UNL     1      -4.835  12.802  22.582  0.00  0.00    +0.000 NA
ATOM      3  C   UNL     1      -4.011  13.850  22.556  0.00  0.00    +0.000 A 
ATOM      4  N   UNL     1      -2.810  13.659  21.940  0.00  0.00    +0.000 N 
ATOM      5  C   UNL     1      -1.662  14.508  22.148  0.00  0.00    +0.000 C 
ATOM      6  C   UNL     1      -0.702  14.000  21.080  0.00  0.00    +0.000 C 
ATOM      7  C   UNL     1       0.752  14.365  21.230  0.00  0.00    +0.000 C 
ATOM      8  S   UNL     1       1.815  13.084  20.533  0.00  0.00    +0.000 S 
ATOM      9  C   UNL     1       0.749  12.466  19.285  0.00  0.00    +0.000 C 
ATOM     10  N   UNL     1       1.467  11.989  18.230  0.00  0.00    +0.000 N 
ATOM     11  N   UNL     1      -0.536  12.367  19.331  0.00  0.00    +0.000 NA
ATOM     12  C   UNL     1      -1.093  12.563  20.703  0.00  0.00    +0.000 C 
ATOM     13  C   UNL     1      -2.644  12.706  20.838  0.00  0.00    +0.000 C 
ATOM     14  N   UNL     1      -4.313  15.041  23.098  0.00  0.00    +0.000 NA
ATOM     15  C   UNL     1      -5.546  15.185  23.653  0.00  0.00    +0.000 A 
ATOM     16  C   UNL     1      -5.936  16.542  24.160  0.00  0.00    +0.000 C 
ATOM     17  C   UNL     1      -6.441  14.141  23.735  0.00  0.00    +0.000 A 
ATOM     18  F   UNL     1      -7.650  14.291  24.297  0.00  0.00    +0.000 F 
ATOM     19  H   UNL     1       2.430  11.796  18.508  0.00  0.00    +0.000 HD
ATOM     20  H   UNL     1       1.029  11.164  17.842  0.00  0.00    +0.000 HD
ENDROOT
BRANCH  12  21
ATOM     21  C   UNL     1      -0.801  11.222  21.362  0.00  0.00    +0.000 A 
ATOM     22  C   UNL     1      -0.741  11.043  22.741  0.00  0.00    +0.000 A 
ATOM     23  C   UNL     1      -0.375   9.724  23.095  0.00  0.00    +0.000 A 
ATOM     24  N   UNL     1      -0.197   8.900  22.075  0.00  0.00    +0.000 NA
ATOM     25  S   UNL     1      -0.423   9.730  20.647  0.00  0.00    +0.000 S 
ENDBRANCH  12  21
BRANCH   1  27
ATOM     26  C   UNL     1      -7.793  11.781  22.248  0.00  0.00    +0.000 C 
ATOM     27  O   UNL     1      -6.845  11.850  23.315  0.00  0.00    +0.000 OA
ENDBRANCH   1  27
TORSDOF 2
ENDMDL
MODEL 4
REMARK VINA RESULT:      -6.3      5.227      8.788
REMARK  Name = 
REMARK  4 active torsions:
REMARK  status: ('A' for Active; 'I' for Inactive)
REMARK    1  A    between atoms: C_1  and  O_2
REMARK    2  A    between atoms: O_2  and  C_3
REMARK    3  A    between atoms: C_14  and  C_15
REMARK    4  A    between atoms: C_22  and  C_23
REMARK                            x       y       z     vdW  Elec       q    Type
REMARK                         _______ _______ _______ _____ _____    ______ ____
ROOT
ATOM      1  C   UNL     1      -6.082  12.735  21.620  0.00  0.00    +0.000 A 
ATOM      2  N   UNL     1      -4.818  12.559  21.196  0.00  0.00    +0.000 NA
ATOM      3  C   UNL     1      -4.050  13.641  21.060  0.00  0.00    +0.000 A 
ATOM      4  N   UNL     1      -2.766  13.424  20.656  0.00  0.00    +0.000 N 
ATOM      5  C   UNL     1      -1.703  14.383  20.830  0.00  0.00    +0.000 C 
ATOM      6  C   UNL     1      -0.577  13.749  20.023  0.00  0.00    +0.000 C 
ATOM      7  C   UNL     1       0.821  14.247  20.280  0.00  0.00    +0.000 C 
ATOM      8  S   UNL     1       2.034  12.939  20.006  0.00  0.00    +0.000 S 
ATOM      9  C   UNL     1       1.187  12.006  18.786  0.00  0.00    +0.000 C 
ATOM     10  N   UNL     1       2.069  11.385  17.954  0.00  0.00    +0.000 N 
ATOM     11  N   UNL     1      -0.086  11.819  18.686  0.00  0.00    +0.000 NA
ATOM     12  C   UNL     1      -0.839  12.240  19.905  0.00  0.00    +0.000 C 
ATOM     13  C   UNL     1      -2.400  12.288  19.806  0.00  0.00    +0.000 C 
ATOM     14  N   UNL     1      -4.484  14.889  21.300  0.00  0.00    +0.000 NA
ATOM     15  C   UNL     1      -5.789  15.045  21.650  0.00  0.00    +0.000 A 
ATOM     16  C   UNL     1      -6.313  16.441  21.810  0.00  0.00    +0.000 C 
ATOM     17  C   UNL     1      -6.635  13.972  21.830  0.00  0.00    +0.000 A 
ATOM     18  F   UNL     1      -7.916  14.137  22.189  0.00  0.00    +0.000 F 
ATOM     19  H   UNL     1       2.992  11.326  18.387  0.00  0.00    +0.000 HD
ATOM     20  H   UNL     1       1.732  10.469  17.692  0.00  0.00    +0.000 HD
ENDROOT
BRANCH  12  21
ATOM     21  C   UNL     1      -0.579  11.083  20.858  0.00  0.00    +0.000 A 
ATOM     22  C   UNL     1      -0.317   9.783  20.432  0.00  0.00    +0.000 A 
ATOM     23  C   UNL     1      -0.190   8.881  21.512  0.00  0.00    +0.000 A 
ATOM     24  N   UNL     1      -0.300   9.425  22.713  0.00  0.00    +0.000 NA
ATOM     25  S   UNL     1      -0.614  11.055  22.555  0.00  0.00    +0.000 S 
ENDBRANCH  12  21
BRANCH   1  27
ATOM     26  C   UNL     1      -7.496  11.154  20.652  0.00  0.00    +0.000 C 
ATOM     27  O   UNL     1      -6.862  11.619  21.845  0.00  0.00    +0.000 OA
ENDBRANCH   1  27
TORSDOF 2
ENDMDL
MODEL 5
REMARK VINA RESULT:      -6.3      8.521     11.113
REMARK  Name = 
REMARK  4 active torsions:
REMARK  status: ('A' for Active; 'I' for Inactive)
REMARK    1  A    between atoms: C_1  and  O_2
REMARK    2  A    between atoms: O_2  and  C_3
REMARK    3  A    between atoms: C_14  and  C_15
REMARK    4  A    between atoms: C_22  and  C_23
REMARK                            x       y       z     vdW  Elec       q    Type
REMARK                         _______ _______ _______ _____ _____    ______ ____
ROOT
ATOM      1  C   UNL     1       7.958  12.653  24.051  0.00  0.00    +0.000 A 
ATOM      2  N   UNL     1       8.468  13.133  22.902  0.00  0.00    +0.000 NA
ATOM      3  C   UNL     1       9.097  14.308  22.943  0.00  0.00    +0.000 A 
ATOM      4  N   UNL     1       9.627  14.750  21.767  0.00  0.00    +0.000 N 
ATOM      5  C   UNL     1      10.652  15.762  21.684  0.00  0.00    +0.000 C 
ATOM      6  C   UNL     1      10.705  16.030  20.186  0.00  0.00    +0.000 C 
ATOM      7  C   UNL     1      11.924  16.737  19.653  0.00  0.00    +0.000 C 
ATOM      8  S   UNL     1      12.284  16.221  17.962  0.00  0.00    +0.000 S 
ATOM      9  C   UNL     1      10.660  15.838  17.421  0.00  0.00    +0.000 C 
ATOM     10  N   UNL     1      10.535  16.053  16.082  0.00  0.00    +0.000 N 
ATOM     11  N   UNL     1       9.699  15.338  18.121  0.00  0.00    +0.000 NA
ATOM     12  C   UNL     1      10.148  14.805  19.442  0.00  0.00    +0.000 C 
ATOM     13  C   UNL     1       9.041  14.399  20.469  0.00  0.00    +0.000 C 
ATOM     14  N   UNL     1       9.223  15.040  24.061  0.00  0.00    +0.000 NA
ATOM     15  C   UNL     1       8.629  14.570  25.191  0.00  0.00    +0.000 A 
ATOM     16  C   UNL     1       8.666  15.433  26.417  0.00  0.00    +0.000 C 
ATOM     17  C   UNL     1       7.981  13.354  25.229  0.00  0.00    +0.000 A 
ATOM     18  F   UNL     1       7.411  12.895  26.352  0.00  0.00    +0.000 F 
ATOM     19  H   UNL     1      11.451  16.075  15.633  0.00  0.00    +0.000 HD
ATOM     20  H   UNL     1       9.941  15.351  15.660  0.00  0.00    +0.000 HD
ENDROOT
BRANCH  12  21
ATOM     21  C   UNL     1      10.779  13.476  19.054  0.00  0.00    +0.000 A 
ATOM     22  C   UNL     1      11.896  12.943  19.692  0.00  0.00    +0.000 A 
ATOM     23  C   UNL     1      12.332  11.740  19.092  0.00  0.00    +0.000 A 
ATOM     24  N   UNL     1      11.594  11.320  18.077  0.00  0.00    +0.000 NA
ATOM     25  S   UNL     1      10.370  12.416  17.793  0.00  0.00    +0.000 S 
ENDBRANCH  12  21
BRANCH   1  27
ATOM     26  C   UNL     1       5.951  11.467  24.072  0.00  0.00    +0.000 C 
ATOM     27  O   UNL     1       7.378  11.401  24.042  0.00  0.00    +0.000 OA
ENDBRANCH   1  27
TORSDOF 2
ENDMDL
MODEL 6
REMARK VINA RESULT:      -6.1      3.505      5.000
REMARK  Name = 
REMARK  4 active torsions:
REMARK  status: ('A' for Active; 'I' for Inactive)
REMARK    1  A    between atoms: C_1  and  O_2
REMARK    2  A    between atoms: O_2  and  C_3
REMARK    3  A    between atoms: C_14  and  C_15
REMARK    4  A    between atoms: C_22  and  C_23
REMARK                            x       y       z     vdW  Elec       q    Type
REMARK                         _______ _______ _______ _____ _____    ______ ____
ROOT
ATOM      1  C   UNL     1       1.025   9.793  20.024  0.00  0.00    +0.000 A 
ATOM      2  N   UNL     1       1.117  11.121  19.829  0.00  0.00    +0.000 NA
ATOM      3  C   UNL     1       0.679  11.925  20.799  0.00  0.00    +0.000 A 
ATOM      4  N   UNL     1       0.814  13.264  20.580  0.00  0.00    +0.000 N 
ATOM      5  C   UNL     1       0.775  14.251  21.631  0.00  0.00    +0.000 C 
ATOM      6  C   UNL     1       0.743  15.551  20.836  0.00  0.00    +0.000 C 
ATOM      7  C   UNL     1       1.095  16.818  21.569  0.00  0.00    +0.000 C 
ATOM      8  S   UNL     1       1.860  18.017  20.459  0.00  0.00    +0.000 S 
ATOM      9  C   UNL     1       1.088  17.556  18.953  0.00  0.00    +0.000 C 
ATOM     10  N   UNL     1       0.961  18.631  18.127  0.00  0.00    +0.000 N 
ATOM     11  N   UNL     1       0.744  16.369  18.581  0.00  0.00    +0.000 NA
ATOM     12  C   UNL     1       1.325  15.292  19.437  0.00  0.00    +0.000 C 
ATOM     13  C   UNL     1       0.785  13.838  19.232  0.00  0.00    +0.000 C 
ATOM     14  N   UNL     1       0.134  11.476  21.940  0.00  0.00    +0.000 NA
ATOM     15  C   UNL     1      -0.020  10.131  22.077  0.00  0.00    +0.000 A 
ATOM     16  C   UNL     1      -0.731   9.625  23.298  0.00  0.00    +0.000 C 
ATOM     17  C   UNL     1       0.427   9.240  21.127  0.00  0.00    +0.000 A 
ATOM     18  F   UNL     1       0.282   7.916  21.280  0.00  0.00    +0.000 F 
ATOM     19  H   UNL     1       1.602  19.375  18.403  0.00  0.00    +0.000 HD
ATOM     20  H   UNL     1       1.108  18.362  17.163  0.00  0.00    +0.000 HD
ENDROOT
BRANCH  12  21
ATOM     21  C   UNL     1       2.757  15.215  18.929  0.00  0.00    +0.000 A 
ATOM     22  C   UNL     1       3.844  14.914  19.744  0.00  0.00    +0.000 A 
ATOM     23  C   UNL     1       5.072  14.985  19.048  0.00  0.00    +0.000 A 
ATOM     24  N   UNL     1       4.971  15.280  17.762  0.00  0.00    +0.000 NA
ATOM     25  S   UNL     1       3.368  15.530  17.377  0.00  0.00    +0.000 S 
ENDBRANCH  12  21
BRANCH   1  27
ATOM     26  C   UNL     1       1.774   9.616  17.824  0.00  0.00    +0.000 C 
ATOM     27  O   UNL     1       1.549   8.949  19.067  0.00  0.00    +0.000 OA
ENDBRANCH   1  27
TORSDOF 2
ENDMDL
MODEL 7
REMARK VINA RESULT:      -6.1      4.885      7.407
REMARK  Name = 
REMARK  4 active torsions:
REMARK  status: ('A' for Active; 'I' for Inactive)
REMARK    1  A    between atoms: C_1  and  O_2
REMARK    2  A    between atoms: O_2  and  C_3
REMARK    3  A    between atoms: C_14  and  C_15
REMARK    4  A    between atoms: C_22  and  C_23
REMARK                            x       y       z     vdW  Elec       q    Type
REMARK                         _______ _______ _______ _____ _____    ______ ____
ROOT
ATOM      1  C   UNL     1      -1.151  10.842  19.234  0.00  0.00    +0.000 A 
ATOM      2  N   UNL     1      -2.074  11.655  19.779  0.00  0.00    +0.000 NA
ATOM      3  C   UNL     1      -3.181  11.898  19.077  0.00  0.00    +0.000 A 
ATOM      4  N   UNL     1      -4.108  12.703  19.670  0.00  0.00    +0.000 N 
ATOM      5  C   UNL     1      -5.492  12.759  19.265  0.00  0.00    +0.000 C 
ATOM      6  C   UNL     1      -6.005  13.943  20.075  0.00  0.00    +0.000 C 
ATOM      7  C   UNL     1      -7.497  14.078  20.230  0.00  0.00    +0.000 C 
ATOM      8  S   UNL     1      -7.916  14.863  21.800  0.00  0.00    +0.000 S 
ATOM      9  C   UNL     1      -6.488  15.858  22.020  0.00  0.00    +0.000 C 
ATOM     10  N   UNL     1      -6.790  16.987  22.718  0.00  0.00    +0.000 N 
ATOM     11  N   UNL     1      -5.278  15.578  21.672  0.00  0.00    +0.000 NA
ATOM     12  C   UNL     1      -5.090  14.145  21.293  0.00  0.00    +0.000 C 
ATOM     13  C   UNL     1      -3.733  13.748  20.626  0.00  0.00    +0.000 C 
ATOM     14  N   UNL     1      -3.405  11.394  17.853  0.00  0.00    +0.000 NA
ATOM     15  C   UNL     1      -2.421  10.640  17.293  0.00  0.00    +0.000 A 
ATOM     16  C   UNL     1      -2.613  10.167  15.882  0.00  0.00    +0.000 C 
ATOM     17  C   UNL     1      -1.260  10.330  17.967  0.00  0.00    +0.000 A 
ATOM     18  F   UNL     1      -0.302   9.575  17.410  0.00  0.00    +0.000 F 
ATOM     19  H   UNL     1      -7.667  16.872  23.228  0.00  0.00    +0.000 HD
ATOM     20  H   UNL     1      -6.035  17.235  23.344  0.00  0.00    +0.000 HD
ENDROOT
BRANCH  12  21
ATOM     21  C   UNL     1      -5.034  13.459  22.650  0.00  0.00    +0.000 A 
ATOM     22  C   UNL     1      -3.907  13.467  23.466  0.00  0.00    +0.000 A 
ATOM     23  C   UNL     1      -4.085  12.692  24.635  0.00  0.00    +0.000 A 
ATOM     24  N   UNL     1      -5.281  12.139  24.763  0.00  0.00    +0.000 NA
ATOM     25  S   UNL     1      -6.208  12.512  23.428  0.00  0.00    +0.000 S 
ENDBRANCH  12  21
BRANCH   1  27
ATOM     26  C   UNL     1      -0.314   9.489  20.939  0.00  0.00    +0.000 C 
ATOM     27  O   UNL     1      -0.039  10.514  19.982  0.00  0.00    +0.000 OA
ENDBRANCH   1  27
TORSDOF 2
ENDMDL
MODEL 8
REMARK VINA RESULT:      -6.1      9.158     10.949
REMARK  Name = 
REMARK  4 active torsions:
REMARK  status: ('A' for Active; 'I' for Inactive)
REMARK    1  A    between atoms: C_1  and  O_2
REMARK    2  A    between atoms: O_2  and  C_3
REMARK    3  A    between atoms: C_14  and  C_15
REMARK    4  A    between atoms: C_22  and  C_23
REMARK                            x       y       z     vdW  Elec       q    Type
REMARK                         _______ _______ _______ _____ _____    ______ ____
ROOT
ATOM      1  C   UNL     1       8.258  15.908  24.616  0.00  0.00    +0.000 A 
ATOM      2  N   UNL     1       8.742  15.346  23.494  0.00  0.00    +0.000 NA
ATOM      3  C   UNL     1       8.729  14.015  23.409  0.00  0.00    +0.000 A 
ATOM      4  N   UNL     1       9.200  13.479  22.247  0.00  0.00    +0.000 N 
ATOM      5  C   UNL     1       8.909  12.134  21.813  0.00  0.00    +0.000 C 
ATOM      6  C   UNL     1       9.839  11.985  20.616  0.00  0.00    +0.000 C 
ATOM      7  C   UNL     1       9.549  10.865  19.652  0.00  0.00    +0.000 C 
ATOM      8  S   UNL     1      10.062  11.303  17.978  0.00  0.00    +0.000 S 
ATOM      9  C   UNL     1      11.388  12.388  18.353  0.00  0.00    +0.000 C 
ATOM     10  N   UNL     1      12.333  12.352  17.373  0.00  0.00    +0.000 N 
ATOM     11  N   UNL     1      11.478  13.199  19.353  0.00  0.00    +0.000 NA
ATOM     12  C   UNL     1      10.186  13.383  20.079  0.00  0.00    +0.000 C 
ATOM     13  C   UNL     1      10.229  14.146  21.444  0.00  0.00    +0.000 C 
ATOM     14  N   UNL     1       8.282  13.217  24.391  0.00  0.00    +0.000 NA
ATOM     15  C   UNL     1       7.873  13.809  25.546  0.00  0.00    +0.000 A 
ATOM     16  C   UNL     1       7.479  12.923  26.690  0.00  0.00    +0.000 C 
ATOM     17  C   UNL     1       7.839  15.178  25.697  0.00  0.00    +0.000 A 
ATOM     18  F   UNL     1       7.421  15.751  26.835  0.00  0.00    +0.000 F 
ATOM     19  H   UNL     1      11.943  11.971  16.510  0.00  0.00    +0.000 HD
ATOM     20  H   UNL     1      12.726  13.271  17.220  0.00  0.00    +0.000 HD
ENDROOT
BRANCH  12  21
ATOM     21  C   UNL     1       9.435  14.336  19.162  0.00  0.00    +0.000 A 
ATOM     22  C   UNL     1       9.999  15.496  18.636  0.00  0.00    +0.000 A 
ATOM     23  C   UNL     1       9.070  16.248  17.880  0.00  0.00    +0.000 A 
ATOM     24  N   UNL     1       7.866  15.709  17.776  0.00  0.00    +0.000 NA
ATOM     25  S   UNL     1       7.820  14.286  18.644  0.00  0.00    +0.000 S 
ENDBRANCH  12  21
BRANCH   1  27
ATOM     26  C   UNL     1       9.443  17.904  24.395  0.00  0.00    +0.000 C 
ATOM     27  O   UNL     1       8.188  17.285  24.684  0.00  0.00    +0.000 OA
ENDBRANCH   1  27
TORSDOF 2
ENDMDL
MODEL 9
REMARK VINA RESULT:      -6.1      5.030      6.764
REMARK  Name = 
REMARK  4 active torsions:
REMARK  status: ('A' for Active; 'I' for Inactive)
REMARK    1  A    between atoms: C_1  and  O_2
REMARK    2  A    between atoms: O_2  and  C_3
REMARK    3  A    between atoms: C_14  and  C_15
REMARK    4  A    between atoms: C_22  and  C_23
REMARK                            x       y       z     vdW  Elec       q    Type
REMARK                         _______ _______ _______ _____ _____    ______ ____
ROOT
ATOM      1  C   UNL     1       4.457  14.271  21.909  0.00  0.00    +0.000 A 
ATOM      2  N   UNL     1       3.193  13.909  21.621  0.00  0.00    +0.000 NA
ATOM      3  C   UNL     1       2.789  14.015  20.354  0.00  0.00    +0.000 A 
ATOM      4  N   UNL     1       1.513  13.613  20.092  0.00  0.00    +0.000 N 
ATOM      5  C   UNL     1       1.037  13.281  18.771  0.00  0.00    +0.000 C 
ATOM      6  C   UNL     1      -0.460  13.129  19.009  0.00  0.00    +0.000 C 
ATOM      7  C   UNL     1      -1.256  12.401  17.958  0.00  0.00    +0.000 C 
ATOM      8  S   UNL     1      -2.666  11.546  18.690  0.00  0.00    +0.000 S 
ATOM      9  C   UNL     1      -2.972  12.603  20.056  0.00  0.00    +0.000 C 
ATOM     10  N   UNL     1      -4.294  12.597  20.383  0.00  0.00    +0.000 N 
ATOM     11  N   UNL     1      -2.103  13.254  20.752  0.00  0.00    +0.000 NA
ATOM     12  C   UNL     1      -0.698  12.819  20.496  0.00  0.00    +0.000 C 
ATOM     13  C   UNL     1       0.449  13.697  21.097  0.00  0.00    +0.000 C 
ATOM     14  N   UNL     1       3.568  14.485  19.367  0.00  0.00    +0.000 NA
ATOM     15  C   UNL     1       4.814  14.919  19.701  0.00  0.00    +0.000 A 
ATOM     16  C   UNL     1       5.650  15.550  18.628  0.00  0.00    +0.000 C 
ATOM     17  C   UNL     1       5.306  14.820  20.984  0.00  0.00    +0.000 A 
ATOM     18  F   UNL     1       6.541  15.239  21.298  0.00  0.00    +0.000 F 
ATOM     19  H   UNL     1      -4.756  11.772  20.000  0.00  0.00    +0.000 HD
ATOM     20  H   UNL     1      -4.416  12.649  21.386  0.00  0.00    +0.000 HD
ENDROOT
BRANCH  12  21
ATOM     21  C   UNL     1      -0.612  11.526  21.293  0.00  0.00    +0.000 A 
ATOM     22  C   UNL     1      -1.013  11.418  22.622  0.00  0.00    +0.000 A 
ATOM     23  C   UNL     1      -0.756  10.135  23.156  0.00  0.00    +0.000 A 
ATOM     24  N   UNL     1      -0.226   9.270  22.306  0.00  0.00    +0.000 NA
ATOM     25  S   UNL     1       0.020  10.019  20.837  0.00  0.00    +0.000 S 
ENDBRANCH  12  21
BRANCH   1  27
ATOM     26  C   UNL     1       4.885  15.299  23.957  0.00  0.00    +0.000 C 
ATOM     27  O   UNL     1       4.916  14.089  23.198  0.00  0.00    +0.000 OA
ENDBRANCH   1  27
TORSDOF 2
ENDMDL
