MODEL 1
REMARK VINA RESULT:      -5.5      0.000      0.000
REMARK  Name = 
REMARK  3 active torsions:
REMARK  status: ('A' for Active; 'I' for Inactive)
REMARK    1  A    between atoms: C_1  and  O_2
REMARK    2  A    between atoms: O_2  and  N_3
REMARK    3  A    between atoms: C_4  and  C_6
REMARK                            x       y       z     vdW  Elec       q    Type
REMARK                         _______ _______ _______ _____ _____    ______ ____
ROOT
ATOM      1  N   UNL     1       5.762   3.764  18.822  0.00  0.00    +0.000 N 
ATOM      2  C   UNL     1       4.707   4.566  19.210  0.00  0.00    +0.000 C 
ATOM      3  O   UNL     1       4.797   5.744  19.543  0.00  0.00    +0.000 OA
ATOM      4  H   UNL     1       5.593   3.023  18.151  0.00  0.00    +0.000 HD
ENDROOT
BRANCH   2   5
ATOM      5  C   UNL     1       3.380   3.893  19.213  0.00  0.00    +0.000 A 
ATOM      6  C   UNL     1       2.405   4.217  20.169  0.00  0.00    +0.000 A 
ATOM      7  C   UNL     1       1.158   3.592  20.134  0.00  0.00    +0.000 A 
ATOM      8  C   UNL     1       0.879   2.649  19.144  0.00  0.00    +0.000 A 
ATOM      9  C   UNL     1       1.841   2.335  18.182  0.00  0.00    +0.000 A 
ATOM     10  C   UNL     1       3.088   2.960  18.213  0.00  0.00    +0.000 A 
ENDBRANCH   2   5
BRANCH   1  12
ATOM     11  C   UNL     1       7.241   4.568  17.267  0.00  0.00    +0.000 C 
ATOM     12  O   UNL     1       6.998   4.431  18.664  0.00  0.00    +0.000 OA
ENDBRANCH   1  12
TORSDOF 2
ENDMDL
MODEL 2
REMARK VINA RESULT:      -5.5      1.686      1.923
REMARK  Name = 
REMARK  3 active torsions:
REMARK  status: ('A' for Active; 'I' for Inactive)
REMARK    1  A    between atoms: C_1  and  O_2
REMARK    2  A    between atoms: O_2  and  N_3
REMARK    3  A    between atoms: C_4  and  C_6
REMARK                            x       y       z     vdW  Elec       q    Type
REMARK                         _______ _______ _______ _____ _____    ______ ____
ROOT
ATOM      1  N   UNL     1       6.139   4.081  18.592  0.00  0.00    +0.000 N 
ATOM      2  C   UNL     1       5.204   4.270  17.595  0.00  0.00    +0.000 C 
ATOM      3  O   UNL     1       5.410   4.839  16.527  0.00  0.00    +0.000 OA
ATOM      4  H   UNL     1       6.069   3.259  19.180  0.00  0.00    +0.000 HD
ENDROOT
BRANCH   2   5
ATOM      5  C   UNL     1       3.853   3.724  17.896  0.00  0.00    +0.000 A 
ATOM      6  C   UNL     1       3.695   2.445  18.453  0.00  0.00    +0.000 A 
ATOM      7  C   UNL     1       2.419   1.966  18.751  0.00  0.00    +0.000 A 
ATOM      8  C   UNL     1       1.301   2.761  18.502  0.00  0.00    +0.000 A 
ATOM      9  C   UNL     1       1.454   4.039  17.962  0.00  0.00    +0.000 A 
ATOM     10  C   UNL     1       2.729   4.522  17.664  0.00  0.00    +0.000 A 
ENDBRANCH   2   5
BRANCH   1  12
ATOM     11  C   UNL     1       7.766   5.652  18.964  0.00  0.00    +0.000 C 
ATOM     12  O   UNL     1       7.461   4.454  18.255  0.00  0.00    +0.000 OA
ENDBRANCH   1  12
TORSDOF 2
ENDMDL
MODEL 3
REMARK VINA RESULT:      -5.5      0.138      1.465
REMARK  Name = 
REMARK  3 active torsions:
REMARK  status: ('A' for Active; 'I' for Inactive)
REMARK    1  A    between atoms: C_1  and  O_2
REMARK    2  A    between atoms: O_2  and  N_3
REMARK    3  A    between atoms: C_4  and  C_6
REMARK                            x       y       z     vdW  Elec       q    Type
REMARK                         _______ _______ _______ _____ _____    ______ ____
ROOT
ATOM      1  N   UNL     1       5.679   3.730  18.798  0.00  0.00    +0.000 N 
ATOM      2  C   UNL     1       4.660   4.567  19.204  0.00  0.00    +0.000 C 
ATOM      3  O   UNL     1       4.796   5.739  19.541  0.00  0.00    +0.000 OA
ATOM      4  H   UNL     1       5.476   2.999  18.126  0.00  0.00    +0.000 HD
ENDROOT
BRANCH   2   5
ATOM      5  C   UNL     1       3.309   3.944  19.219  0.00  0.00    +0.000 A 
ATOM      6  C   UNL     1       2.939   2.992  18.256  0.00  0.00    +0.000 A 
ATOM      7  C   UNL     1       1.676   2.402  18.308  0.00  0.00    +0.000 A 
ATOM      8  C   UNL     1       0.784   2.753  19.320  0.00  0.00    +0.000 A 
ATOM      9  C   UNL     1       1.153   3.688  20.288  0.00  0.00    +0.000 A 
ATOM     10  C   UNL     1       2.416   4.279  20.242  0.00  0.00    +0.000 A 
ENDBRANCH   2   5
BRANCH   1  12
ATOM     11  C   UNL     1       7.121   4.585  17.236  0.00  0.00    +0.000 C 
ATOM     12  O   UNL     1       6.938   4.352  18.629  0.00  0.00    +0.000 OA
ENDBRANCH   1  12
TORSDOF 2
ENDMDL
MODEL 4
REMARK VINA RESULT:      -5.4      0.914      1.074
REMARK  Name = 
REMARK  3 active torsions:
REMARK  status: ('A' for Active; 'I' for Inactive)
REMARK    1  A    between atoms: C_1  and  O_2
REMARK    2  A    between atoms: O_2  and  N_3
REMARK    3  A    between atoms: C_4  and  C_6
REMARK                            x       y       z     vdW  Elec       q    Type
REMARK                         _______ _______ _______ _____ _____    ______ ____
ROOT
ATOM      1  N   UNL     1       5.898   3.752  18.805  0.00  0.00    +0.000 N 
ATOM      2  C   UNL     1       4.794   4.559  18.992  0.00  0.00    +0.000 C 
ATOM      3  O   UNL     1       4.827   5.759  19.243  0.00  0.00    +0.000 OA
ATOM      4  H   UNL     1       5.826   2.961  18.176  0.00  0.00    +0.000 HD
ENDROOT
BRANCH   2   5
ATOM      5  C   UNL     1       3.485   3.862  18.872  0.00  0.00    +0.000 A 
ATOM      6  C   UNL     1       3.230   2.673  19.574  0.00  0.00    +0.000 A 
ATOM      7  C   UNL     1       1.985   2.052  19.466  0.00  0.00    +0.000 A 
ATOM      8  C   UNL     1       0.992   2.618  18.668  0.00  0.00    +0.000 A 
ATOM      9  C   UNL     1       1.236   3.808  17.981  0.00  0.00    +0.000 A 
ATOM     10  C   UNL     1       2.479   4.432  18.087  0.00  0.00    +0.000 A 
ENDBRANCH   2   5
BRANCH   1  12
ATOM     11  C   UNL     1       7.489   4.599  17.388  0.00  0.00    +0.000 C 
ATOM     12  O   UNL     1       7.138   4.431  18.759  0.00  0.00    +0.000 OA
ENDBRANCH   1  12
TORSDOF 2
ENDMDL
MODEL 5
REMARK VINA RESULT:      -5.3      3.057      4.029
REMARK  Name = 
REMARK  3 active torsions:
REMARK  status: ('A' for Active; 'I' for Inactive)
REMARK    1  A    between atoms: C_1  and  O_2
REMARK    2  A    between atoms: O_2  and  N_3
REMARK    3  A    between atoms: C_4  and  C_6
REMARK                            x       y       z     vdW  Elec       q    Type
REMARK                         _______ _______ _______ _____ _____    ______ ____
ROOT
ATOM      1  N   UNL     1       6.815   5.502  14.652  0.00  0.00    +0.000 N 
ATOM      2  C   UNL     1       6.814   4.985  15.931  0.00  0.00    +0.000 C 
ATOM      3  O   UNL     1       7.787   4.500  16.501  0.00  0.00    +0.000 OA
ATOM      4  H   UNL     1       6.182   6.262  14.430  0.00  0.00    +0.000 HD
ENDROOT
BRANCH   2   5
ATOM      5  C   UNL     1       5.499   5.041  16.626  0.00  0.00    +0.000 A 
ATOM      6  C   UNL     1       5.007   6.245  17.151  0.00  0.00    +0.000 A 
ATOM      7  C   UNL     1       3.759   6.277  17.774  0.00  0.00    +0.000 A 
ATOM      8  C   UNL     1       2.998   5.113  17.868  0.00  0.00    +0.000 A 
ATOM      9  C   UNL     1       3.477   3.915  17.334  0.00  0.00    +0.000 A 
ATOM     10  C   UNL     1       4.723   3.880  16.709  0.00  0.00    +0.000 A 
ENDBRANCH   2   5
BRANCH   1  12
ATOM     11  C   UNL     1       7.934   5.269  12.665  0.00  0.00    +0.000 C 
ATOM     12  O   UNL     1       8.087   5.599  14.043  0.00  0.00    +0.000 OA
ENDBRANCH   1  12
TORSDOF 2
ENDMDL
MODEL 6
REMARK VINA RESULT:      -5.3      3.085      4.212
REMARK  Name = 
REMARK  3 active torsions:
REMARK  status: ('A' for Active; 'I' for Inactive)
REMARK    1  A    between atoms: C_1  and  O_2
REMARK    2  A    between atoms: O_2  and  N_3
REMARK    3  A    between atoms: C_4  and  C_6
REMARK                            x       y       z     vdW  Elec       q    Type
REMARK                         _______ _______ _______ _____ _____    ______ ____
ROOT
ATOM      1  N   UNL     1       6.821   5.468  14.602  0.00  0.00    +0.000 N 
ATOM      2  C   UNL     1       6.801   4.983  15.894  0.00  0.00    +0.000 C 
ATOM      3  O   UNL     1       7.769   4.529  16.496  0.00  0.00    +0.000 OA
ATOM      4  H   UNL     1       6.181   6.211  14.348  0.00  0.00    +0.000 HD
ENDROOT
BRANCH   2   5
ATOM      5  C   UNL     1       5.472   5.036  16.560  0.00  0.00    +0.000 A 
ATOM      6  C   UNL     1       4.688   3.881  16.708  0.00  0.00    +0.000 A 
ATOM      7  C   UNL     1       3.457   3.951  17.360  0.00  0.00    +0.000 A 
ATOM      8  C   UNL     1       3.008   5.168  17.870  0.00  0.00    +0.000 A 
ATOM      9  C   UNL     1       3.790   6.316  17.739  0.00  0.00    +0.000 A 
ATOM     10  C   UNL     1       5.023   6.250  17.089  0.00  0.00    +0.000 A 
ENDBRANCH   2   5
BRANCH   1  12
ATOM     11  C   UNL     1       7.961   5.343  12.617  0.00  0.00    +0.000 C 
ATOM     12  O   UNL     1       8.104   5.569  14.017  0.00  0.00    +0.000 OA
ENDBRANCH   1  12
TORSDOF 2
ENDMDL
MODEL 7
REMARK VINA RESULT:      -5.3      2.496      3.295
REMARK  Name = 
REMARK  3 active torsions:
REMARK  status: ('A' for Active; 'I' for Inactive)
REMARK    1  A    between atoms: C_1  and  O_2
REMARK    2  A    between atoms: O_2  and  N_3
REMARK    3  A    between atoms: C_4  and  C_6
REMARK                            x       y       z     vdW  Elec       q    Type
REMARK                         _______ _______ _______ _____ _____    ______ ____
ROOT
ATOM      1  N   UNL     1       6.261   6.774  16.841  0.00  0.00    +0.000 N 
ATOM      2  C   UNL     1       5.985   5.422  16.870  0.00  0.00    +0.000 C 
ATOM      3  O   UNL     1       6.799   4.527  16.669  0.00  0.00    +0.000 OA
ATOM      4  H   UNL     1       5.730   7.396  17.438  0.00  0.00    +0.000 HD
ENDROOT
BRANCH   2   5
ATOM      5  C   UNL     1       4.568   5.082  17.170  0.00  0.00    +0.000 A 
ATOM      6  C   UNL     1       4.064   3.795  16.927  0.00  0.00    +0.000 A 
ATOM      7  C   UNL     1       2.739   3.492  17.241  0.00  0.00    +0.000 A 
ATOM      8  C   UNL     1       1.917   4.468  17.804  0.00  0.00    +0.000 A 
ATOM      9  C   UNL     1       2.418   5.745  18.062  0.00  0.00    +0.000 A 
ATOM     10  C   UNL     1       3.743   6.051  17.750  0.00  0.00    +0.000 A 
ENDBRANCH   2   5
BRANCH   1  12
ATOM     11  C   UNL     1       7.902   8.172  17.618  0.00  0.00    +0.000 C 
ATOM     12  O   UNL     1       7.630   7.105  16.714  0.00  0.00    +0.000 OA
ENDBRANCH   1  12
TORSDOF 2
ENDMDL
MODEL 8
REMARK VINA RESULT:      -5.3      4.333      5.438
REMARK  Name = 
REMARK  3 active torsions:
REMARK  status: ('A' for Active; 'I' for Inactive)
REMARK    1  A    between atoms: C_1  and  O_2
REMARK    2  A    between atoms: O_2  and  N_3
REMARK    3  A    between atoms: C_4  and  C_6
REMARK                            x       y       z     vdW  Elec       q    Type
REMARK                         _______ _______ _______ _____ _____    ______ ____
ROOT
ATOM      1  N   UNL     1       6.257   3.680  13.921  0.00  0.00    +0.000 N 
ATOM      2  C   UNL     1       6.895   4.760  14.497  0.00  0.00    +0.000 C 
ATOM      3  O   UNL     1       7.756   5.447  13.955  0.00  0.00    +0.000 OA
ATOM      4  H   UNL     1       5.303   3.473  14.192  0.00  0.00    +0.000 HD
ENDROOT
BRANCH   2   5
ATOM      5  C   UNL     1       6.469   5.067  15.889  0.00  0.00    +0.000 A 
ATOM      6  C   UNL     1       5.255   5.722  16.149  0.00  0.00    +0.000 A 
ATOM      7  C   UNL     1       4.865   5.974  17.464  0.00  0.00    +0.000 A 
ATOM      8  C   UNL     1       5.679   5.568  18.522  0.00  0.00    +0.000 A 
ATOM      9  C   UNL     1       6.880   4.903  18.269  0.00  0.00    +0.000 A 
ATOM     10  C   UNL     1       7.272   4.647  16.955  0.00  0.00    +0.000 A 
ENDBRANCH   2   5
BRANCH   1  12
ATOM     11  C   UNL     1       5.319   3.107  11.910  0.00  0.00    +0.000 C 
ATOM     12  O   UNL     1       6.538   3.477  12.550  0.00  0.00    +0.000 OA
ENDBRANCH   1  12
TORSDOF 2
ENDMDL
MODEL 9
REMARK VINA RESULT:      -5.3      1.205      1.254
REMARK  Name = 
REMARK  3 active torsions:
REMARK  status: ('A' for Active; 'I' for Inactive)
REMARK    1  A    between atoms: C_1  and  O_2
REMARK    2  A    between atoms: O_2  and  N_3
REMARK    3  A    between atoms: C_4  and  C_6
REMARK                            x       y       z     vdW  Elec       q    Type
REMARK                         _______ _______ _______ _____ _____    ______ ____
ROOT
ATOM      1  N   UNL     1       5.726   4.104  18.973  0.00  0.00    +0.000 N 
ATOM      2  C   UNL     1       4.663   4.014  18.098  0.00  0.00    +0.000 C 
ATOM      3  O   UNL     1       4.723   4.201  16.887  0.00  0.00    +0.000 OA
ATOM      4  H   UNL     1       5.732   3.519  19.800  0.00  0.00    +0.000 HD
ENDROOT
BRANCH   2   5
ATOM      5  C   UNL     1       3.362   3.666  18.731  0.00  0.00    +0.000 A 
ATOM      6  C   UNL     1       2.955   4.270  19.931  0.00  0.00    +0.000 A 
ATOM      7  C   UNL     1       1.719   3.946  20.491  0.00  0.00    +0.000 A 
ATOM      8  C   UNL     1       0.885   3.028  19.854  0.00  0.00    +0.000 A 
ATOM      9  C   UNL     1       1.279   2.436  18.653  0.00  0.00    +0.000 A 
ATOM     10  C   UNL     1       2.514   2.758  18.089  0.00  0.00    +0.000 A 
ENDBRANCH   2   5
BRANCH   1  12
ATOM     11  C   UNL     1       7.490   5.553  18.764  0.00  0.00    +0.000 C 
ATOM     12  O   UNL     1       6.991   4.279  18.366  0.00  0.00    +0.000 OA
ENDBRANCH   1  12
TORSDOF 2
ENDMDL
