MODEL 1
REMARK VINA RESULT:      -7.3      0.000      0.000
REMARK  Name = 
REMARK  6 active torsions:
REMARK  status: ('A' for Active; 'I' for Inactive)
REMARK    1  A    between atoms: C_1  and  N_2
REMARK    2  A    between atoms: C_8  and  C_9
REMARK    3  A    between atoms: C_15  and  C_16
REMARK    4  A    between atoms: C_16  and  C_17
REMARK    5  A    between atoms: C_17  and  C_18
REMARK    6  A    between atoms: C_18  and  O_19
REMARK                            x       y       z     vdW  Elec       q    Type
REMARK                         _______ _______ _______ _____ _____    ______ ____
ROOT
ATOM      1  C   UNL     1       1.931   3.406  21.513  0.00  0.00    +0.000 C 
ATOM      2  N   UNL     1       1.998   3.839  20.129  0.00  0.00    +0.000 NA
ATOM      3  C   UNL     1       3.288   4.494  19.895  0.00  0.00    +0.000 C 
ATOM      4  C   UNL     1       4.133   3.199  19.569  0.00  0.00    +0.000 C 
ATOM      5  C   UNL     1       3.180   2.125  19.073  0.00  0.00    +0.000 C 
ATOM      6  C   UNL     1       1.915   2.929  18.933  0.00  0.00    +0.000 C 
ATOM      7  C   UNL     1       2.048   3.690  17.486  0.00  0.00    +0.000 C 
ATOM      8  C   UNL     1       2.938   5.029  17.456  0.00  0.00    +0.000 C 
ATOM      9  C   UNL     1       2.699   5.517  18.872  0.00  0.00    +0.000 C 
ENDROOT
BRANCH   8  10
ATOM     10  C   UNL     1       4.426   5.010  17.067  0.00  0.00    +0.000 A 
ATOM     11  C   UNL     1       5.344   5.958  17.543  0.00  0.00    +0.000 A 
ATOM     12  C   UNL     1       6.686   5.931  17.122  0.00  0.00    +0.000 A 
ATOM     13  C   UNL     1       7.140   4.951  16.241  0.00  0.00    +0.000 A 
ATOM     14  C   UNL     1       6.267   3.979  15.784  0.00  0.00    +0.000 A 
ATOM     15  C   UNL     1       4.935   4.006  16.205  0.00  0.00    +0.000 A 
ENDBRANCH   8  10
BRANCH   9  16
ATOM     16  C   UNL     1       2.500   6.976  19.346  0.00  0.00    +0.000 C 
BRANCH  16  17
ATOM     17  C   UNL     1       2.329   7.928  18.123  0.00  0.00    +0.000 C 
BRANCH  17  18
ATOM     18  C   UNL     1       1.600   9.216  18.435  0.00  0.00    +0.000 C 
BRANCH  18  19
ATOM     19  O   UNL     1       1.801  10.183  17.406  0.00  0.00    +0.000 OA
ATOM     20  H   UNL     1       1.024  10.157  16.821  0.00  0.00    +0.000 HD
ENDBRANCH  18  19
ENDBRANCH  17  18
ENDBRANCH  16  17
ENDBRANCH   9  16
TORSDOF 5
ENDMDL
MODEL 2
REMARK VINA RESULT:      -7.3      0.151      1.111
REMARK  Name = 
REMARK  6 active torsions:
REMARK  status: ('A' for Active; 'I' for Inactive)
REMARK    1  A    between atoms: C_1  and  N_2
REMARK    2  A    between atoms: C_8  and  C_9
REMARK    3  A    between atoms: C_15  and  C_16
REMARK    4  A    between atoms: C_16  and  C_17
REMARK    5  A    between atoms: C_17  and  C_18
REMARK    6  A    between atoms: C_18  and  O_19
REMARK                            x       y       z     vdW  Elec       q    Type
REMARK                         _______ _______ _______ _____ _____    ______ ____
ROOT
ATOM      1  C   UNL     1       2.095   3.524  21.622  0.00  0.00    +0.000 C 
ATOM      2  N   UNL     1       2.097   3.914  20.224  0.00  0.00    +0.000 NA
ATOM      3  C   UNL     1       3.354   4.607  19.923  0.00  0.00    +0.000 C 
ATOM      4  C   UNL     1       4.233   3.333  19.606  0.00  0.00    +0.000 C 
ATOM      5  C   UNL     1       3.304   2.211  19.179  0.00  0.00    +0.000 C 
ATOM      6  C   UNL     1       2.006   2.964  19.060  0.00  0.00    +0.000 C 
ATOM      7  C   UNL     1       2.060   3.683  17.587  0.00  0.00    +0.000 C 
ATOM      8  C   UNL     1       2.898   5.051  17.483  0.00  0.00    +0.000 C 
ATOM      9  C   UNL     1       2.691   5.575  18.891  0.00  0.00    +0.000 C 
ENDROOT
BRANCH   8  10
ATOM     10  C   UNL     1       4.371   5.072  17.041  0.00  0.00    +0.000 A 
ATOM     11  C   UNL     1       4.927   4.082  16.218  0.00  0.00    +0.000 A 
ATOM     12  C   UNL     1       6.292   4.115  15.878  0.00  0.00    +0.000 A 
ATOM     13  C   UNL     1       7.118   5.142  16.333  0.00  0.00    +0.000 A 
ATOM     14  C   UNL     1       6.590   6.154  17.115  0.00  0.00    +0.000 A 
ATOM     15  C   UNL     1       5.233   6.122  17.450  0.00  0.00    +0.000 A 
ENDBRANCH   8  10
BRANCH   9  16
ATOM     16  C   UNL     1       2.456   7.040  19.327  0.00  0.00    +0.000 C 
BRANCH  16  17
ATOM     17  C   UNL     1       2.282   7.959  18.079  0.00  0.00    +0.000 C 
BRANCH  17  18
ATOM     18  C   UNL     1       1.527   9.241  18.352  0.00  0.00    +0.000 C 
BRANCH  18  19
ATOM     19  O   UNL     1       1.883  10.257  17.416  0.00  0.00    +0.000 OA
ATOM     20  H   UNL     1       2.754  10.026  17.048  0.00  0.00    +0.000 HD
ENDBRANCH  18  19
ENDBRANCH  17  18
ENDBRANCH  16  17
ENDBRANCH   9  16
TORSDOF 5
ENDMDL
MODEL 3
REMARK VINA RESULT:      -6.9      1.460      1.882
REMARK  Name = 
REMARK  6 active torsions:
REMARK  status: ('A' for Active; 'I' for Inactive)
REMARK    1  A    between atoms: C_1  and  N_2
REMARK    2  A    between atoms: C_8  and  C_9
REMARK    3  A    between atoms: C_15  and  C_16
REMARK    4  A    between atoms: C_16  and  C_17
REMARK    5  A    between atoms: C_17  and  C_18
REMARK    6  A    between atoms: C_18  and  O_19
REMARK                            x       y       z     vdW  Elec       q    Type
REMARK                         _______ _______ _______ _____ _____    ______ ____
ROOT
ATOM      1  C   UNL     1       1.869   2.843  21.438  0.00  0.00    +0.000 C 
ATOM      2  N   UNL     1       1.917   3.514  20.151  0.00  0.00    +0.000 NA
ATOM      3  C   UNL     1       3.254   4.088  19.963  0.00  0.00    +0.000 C 
ATOM      4  C   UNL     1       3.956   2.807  19.362  0.00  0.00    +0.000 C 
ATOM      5  C   UNL     1       2.886   1.928  18.739  0.00  0.00    +0.000 C 
ATOM      6  C   UNL     1       1.699   2.849  18.820  0.00  0.00    +0.000 C 
ATOM      7  C   UNL     1       1.843   3.848  17.526  0.00  0.00    +0.000 C 
ATOM      8  C   UNL     1       2.854   5.088  17.683  0.00  0.00    +0.000 C 
ATOM      9  C   UNL     1       2.721   5.328  19.175  0.00  0.00    +0.000 C 
ENDROOT
BRANCH   8  10
ATOM     10  C   UNL     1       4.315   5.013  17.211  0.00  0.00    +0.000 A 
ATOM     11  C   UNL     1       4.754   4.080  16.260  0.00  0.00    +0.000 A 
ATOM     12  C   UNL     1       6.111   4.014  15.893  0.00  0.00    +0.000 A 
ATOM     13  C   UNL     1       7.045   4.888  16.448  0.00  0.00    +0.000 A 
ATOM     14  C   UNL     1       6.636   5.845  17.359  0.00  0.00    +0.000 A 
ATOM     15  C   UNL     1       5.287   5.910  17.721  0.00  0.00    +0.000 A 
ENDBRANCH   8  10
BRANCH   9  16
ATOM     16  C   UNL     1       2.682   6.687  19.912  0.00  0.00    +0.000 C 
BRANCH  16  17
ATOM     17  C   UNL     1       1.337   6.851  20.682  0.00  0.00    +0.000 C 
BRANCH  17  18
ATOM     18  C   UNL     1       1.023   8.274  21.089  0.00  0.00    +0.000 C 
BRANCH  18  19
ATOM     19  O   UNL     1       1.822   8.679  22.200  0.00  0.00    +0.000 OA
ATOM     20  H   UNL     1       2.531   9.252  21.860  0.00  0.00    +0.000 HD
ENDBRANCH  18  19
ENDBRANCH  17  18
ENDBRANCH  16  17
ENDBRANCH   9  16
TORSDOF 5
ENDMDL
MODEL 4
REMARK VINA RESULT:      -6.8      1.390      1.500
REMARK  Name = 
REMARK  6 active torsions:
REMARK  status: ('A' for Active; 'I' for Inactive)
REMARK    1  A    between atoms: C_1  and  N_2
REMARK    2  A    between atoms: C_8  and  C_9
REMARK    3  A    between atoms: C_15  and  C_16
REMARK    4  A    between atoms: C_16  and  C_17
REMARK    5  A    between atoms: C_17  and  C_18
REMARK    6  A    between atoms: C_18  and  O_19
REMARK                            x       y       z     vdW  Elec       q    Type
REMARK                         _______ _______ _______ _____ _____    ______ ____
ROOT
ATOM      1  C   UNL     1       2.125   3.454  21.646  0.00  0.00    +0.000 C 
ATOM      2  N   UNL     1       2.099   3.895  20.263  0.00  0.00    +0.000 NA
ATOM      3  C   UNL     1       3.365   4.566  19.952  0.00  0.00    +0.000 C 
ATOM      4  C   UNL     1       4.201   3.282  19.565  0.00  0.00    +0.000 C 
ATOM      5  C   UNL     1       3.231   2.201  19.124  0.00  0.00    +0.000 C 
ATOM      6  C   UNL     1       1.951   2.991  19.069  0.00  0.00    +0.000 C 
ATOM      7  C   UNL     1       1.984   3.762  17.621  0.00  0.00    +0.000 C 
ATOM      8  C   UNL     1       2.856   5.111  17.544  0.00  0.00    +0.000 C 
ATOM      9  C   UNL     1       2.701   5.588  18.975  0.00  0.00    +0.000 C 
ENDROOT
BRANCH   8  10
ATOM     10  C   UNL     1       4.316   5.111  17.062  0.00  0.00    +0.000 A 
ATOM     11  C   UNL     1       5.218   6.135  17.384  0.00  0.00    +0.000 A 
ATOM     12  C   UNL     1       6.531   6.119  16.880  0.00  0.00    +0.000 A 
ATOM     13  C   UNL     1       6.973   5.075  16.068  0.00  0.00    +0.000 A 
ATOM     14  C   UNL     1       6.119   4.030  15.764  0.00  0.00    +0.000 A 
ATOM     15  C   UNL     1       4.814   4.047  16.267  0.00  0.00    +0.000 A 
ENDBRANCH   8  10
BRANCH   9  16
ATOM     16  C   UNL     1       2.517   7.042  19.470  0.00  0.00    +0.000 C 
BRANCH  16  17
ATOM     17  C   UNL     1       1.586   7.079  20.720  0.00  0.00    +0.000 C 
BRANCH  17  18
ATOM     18  C   UNL     1       1.139   8.467  21.121  0.00  0.00    +0.000 C 
BRANCH  18  19
ATOM     19  O   UNL     1       1.740   8.865  22.352  0.00  0.00    +0.000 OA
ATOM     20  H   UNL     1       1.161   9.532  22.761  0.00  0.00    +0.000 HD
ENDBRANCH  18  19
ENDBRANCH  17  18
ENDBRANCH  16  17
ENDBRANCH   9  16
TORSDOF 5
ENDMDL
MODEL 5
REMARK VINA RESULT:      -6.6      0.945      1.011
REMARK  Name = 
REMARK  6 active torsions:
REMARK  status: ('A' for Active; 'I' for Inactive)
REMARK    1  A    between atoms: C_1  and  N_2
REMARK    2  A    between atoms: C_8  and  C_9
REMARK    3  A    between atoms: C_15  and  C_16
REMARK    4  A    between atoms: C_16  and  C_17
REMARK    5  A    between atoms: C_17  and  C_18
REMARK    6  A    between atoms: C_18  and  O_19
REMARK                            x       y       z     vdW  Elec       q    Type
REMARK                         _______ _______ _______ _____ _____    ______ ____
ROOT
ATOM      1  C   UNL     1       1.074   2.906  20.710  0.00  0.00    +0.000 C 
ATOM      2  N   UNL     1       1.639   3.471  19.498  0.00  0.00    +0.000 NA
ATOM      3  C   UNL     1       2.897   4.148  19.829  0.00  0.00    +0.000 C 
ATOM      4  C   UNL     1       3.851   2.892  19.732  0.00  0.00    +0.000 C 
ATOM      5  C   UNL     1       3.197   1.870  18.820  0.00  0.00    +0.000 C 
ATOM      6  C   UNL     1       2.048   2.681  18.285  0.00  0.00    +0.000 C 
ATOM      7  C   UNL     1       2.687   3.578  17.069  0.00  0.00    +0.000 C 
ATOM      8  C   UNL     1       3.470   4.916  17.497  0.00  0.00    +0.000 C 
ATOM      9  C   UNL     1       2.697   5.264  18.754  0.00  0.00    +0.000 C 
ENDROOT
BRANCH   8  10
ATOM     10  C   UNL     1       4.994   4.937  17.699  0.00  0.00    +0.000 A 
ATOM     11  C   UNL     1       5.598   5.506  18.830  0.00  0.00    +0.000 A 
ATOM     12  C   UNL     1       6.999   5.548  18.951  0.00  0.00    +0.000 A 
ATOM     13  C   UNL     1       7.819   5.005  17.961  0.00  0.00    +0.000 A 
ATOM     14  C   UNL     1       7.252   4.403  16.852  0.00  0.00    +0.000 A 
ATOM     15  C   UNL     1       5.860   4.361  16.735  0.00  0.00    +0.000 A 
ENDBRANCH   8  10
BRANCH   9  16
ATOM     16  C   UNL     1       2.279   6.670  19.245  0.00  0.00    +0.000 C 
BRANCH  16  17
ATOM     17  C   UNL     1       1.900   7.579  18.037  0.00  0.00    +0.000 C 
BRANCH  17  18
ATOM     18  C   UNL     1       2.611   8.914  18.016  0.00  0.00    +0.000 C 
BRANCH  18  19
ATOM     19  O   UNL     1       1.805   9.917  17.399  0.00  0.00    +0.000 OA
ATOM     20  H   UNL     1       2.210  10.133  16.541  0.00  0.00    +0.000 HD
ENDBRANCH  18  19
ENDBRANCH  17  18
ENDBRANCH  16  17
ENDBRANCH   9  16
TORSDOF 5
ENDMDL
MODEL 6
REMARK VINA RESULT:      -6.6      2.306      4.747
REMARK  Name = 
REMARK  6 active torsions:
REMARK  status: ('A' for Active; 'I' for Inactive)
REMARK    1  A    between atoms: C_1  and  N_2
REMARK    2  A    between atoms: C_8  and  C_9
REMARK    3  A    between atoms: C_15  and  C_16
REMARK    4  A    between atoms: C_16  and  C_17
REMARK    5  A    between atoms: C_17  and  C_18
REMARK    6  A    between atoms: C_18  and  O_19
REMARK                            x       y       z     vdW  Elec       q    Type
REMARK                         _______ _______ _______ _____ _____    ______ ____
ROOT
ATOM      1  C   UNL     1       2.726   1.942  17.491  0.00  0.00    +0.000 C 
ATOM      2  N   UNL     1       3.128   3.015  18.382  0.00  0.00    +0.000 NA
ATOM      3  C   UNL     1       2.935   4.299  17.700  0.00  0.00    +0.000 C 
ATOM      4  C   UNL     1       1.414   4.513  18.069  0.00  0.00    +0.000 C 
ATOM      5  C   UNL     1       1.117   3.724  19.332  0.00  0.00    +0.000 C 
ATOM      6  C   UNL     1       2.509   3.305  19.722  0.00  0.00    +0.000 C 
ATOM      7  C   UNL     1       3.145   4.601  20.502  0.00  0.00    +0.000 C 
ATOM      8  C   UNL     1       3.727   5.782  19.579  0.00  0.00    +0.000 C 
ATOM      9  C   UNL     1       4.173   4.963  18.383  0.00  0.00    +0.000 C 
ENDROOT
BRANCH   8  10
ATOM     10  C   UNL     1       2.881   7.006  19.192  0.00  0.00    +0.000 A 
ATOM     11  C   UNL     1       2.978   7.625  17.937  0.00  0.00    +0.000 A 
ATOM     12  C   UNL     1       2.219   8.773  17.643  0.00  0.00    +0.000 A 
ATOM     13  C   UNL     1       1.339   9.308  18.582  0.00  0.00    +0.000 A 
ATOM     14  C   UNL     1       1.192   8.697  19.815  0.00  0.00    +0.000 A 
ATOM     15  C   UNL     1       1.945   7.555  20.105  0.00  0.00    +0.000 A 
ENDBRANCH   8  10
BRANCH   9  16
ATOM     16  C   UNL     1       5.448   5.159  17.528  0.00  0.00    +0.000 C 
BRANCH  16  17
ATOM     17  C   UNL     1       6.471   6.068  18.275  0.00  0.00    +0.000 C 
BRANCH  17  18
ATOM     18  C   UNL     1       7.662   5.327  18.841  0.00  0.00    +0.000 C 
BRANCH  18  19
ATOM     19  O   UNL     1       7.743   5.488  20.256  0.00  0.00    +0.000 OA
ATOM     20  H   UNL     1       6.843   5.663  20.585  0.00  0.00    +0.000 HD
ENDBRANCH  18  19
ENDBRANCH  17  18
ENDBRANCH  16  17
ENDBRANCH   9  16
TORSDOF 5
ENDMDL
MODEL 7
REMARK VINA RESULT:      -6.5      2.357      4.746
REMARK  Name = 
REMARK  6 active torsions:
REMARK  status: ('A' for Active; 'I' for Inactive)
REMARK    1  A    between atoms: C_1  and  N_2
REMARK    2  A    between atoms: C_8  and  C_9
REMARK    3  A    between atoms: C_15  and  C_16
REMARK    4  A    between atoms: C_16  and  C_17
REMARK    5  A    between atoms: C_17  and  C_18
REMARK    6  A    between atoms: C_18  and  O_19
REMARK                            x       y       z     vdW  Elec       q    Type
REMARK                         _______ _______ _______ _____ _____    ______ ____
ROOT
ATOM      1  C   UNL     1       3.238   1.791  17.959  0.00  0.00    +0.000 C 
ATOM      2  N   UNL     1       3.230   2.879  18.921  0.00  0.00    +0.000 NA
ATOM      3  C   UNL     1       3.351   4.152  18.203  0.00  0.00    +0.000 C 
ATOM      4  C   UNL     1       1.817   4.369  17.889  0.00  0.00    +0.000 C 
ATOM      5  C   UNL     1       1.009   3.599  18.918  0.00  0.00    +0.000 C 
ATOM      6  C   UNL     1       2.102   3.188  19.868  0.00  0.00    +0.000 C 
ATOM      7  C   UNL     1       2.353   4.496  20.825  0.00  0.00    +0.000 C 
ATOM      8  C   UNL     1       3.278   5.664  20.219  0.00  0.00    +0.000 C 
ATOM      9  C   UNL     1       4.185   4.829  19.337  0.00  0.00    +0.000 C 
ENDROOT
BRANCH   8  10
ATOM     10  C   UNL     1       2.681   6.881  19.492  0.00  0.00    +0.000 A 
ATOM     11  C   UNL     1       3.030   7.220  18.176  0.00  0.00    +0.000 A 
ATOM     12  C   UNL     1       2.496   8.371  17.567  0.00  0.00    +0.000 A 
ATOM     13  C   UNL     1       1.594   9.187  18.247  0.00  0.00    +0.000 A 
ATOM     14  C   UNL     1       1.201   8.858  19.532  0.00  0.00    +0.000 A 
ATOM     15  C   UNL     1       1.730   7.713  20.135  0.00  0.00    +0.000 A 
ENDBRANCH   8  10
BRANCH   9  16
ATOM     16  C   UNL     1       5.703   5.014  19.101  0.00  0.00    +0.000 C 
BRANCH  16  17
ATOM     17  C   UNL     1       5.985   5.354  17.606  0.00  0.00    +0.000 C 
BRANCH  17  18
ATOM     18  C   UNL     1       7.021   4.468  16.952  0.00  0.00    +0.000 C 
BRANCH  18  19
ATOM     19  O   UNL     1       8.052   4.116  17.873  0.00  0.00    +0.000 OA
ATOM     20  H   UNL     1       8.686   4.855  17.901  0.00  0.00    +0.000 HD
ENDBRANCH  18  19
ENDBRANCH  17  18
ENDBRANCH  16  17
ENDBRANCH   9  16
TORSDOF 5
ENDMDL
MODEL 8
REMARK VINA RESULT:      -6.4      2.095      4.545
REMARK  Name = 
REMARK  6 active torsions:
REMARK  status: ('A' for Active; 'I' for Inactive)
REMARK    1  A    between atoms: C_1  and  N_2
REMARK    2  A    between atoms: C_8  and  C_9
REMARK    3  A    between atoms: C_15  and  C_16
REMARK    4  A    between atoms: C_16  and  C_17
REMARK    5  A    between atoms: C_17  and  C_18
REMARK    6  A    between atoms: C_18  and  O_19
REMARK                            x       y       z     vdW  Elec       q    Type
REMARK                         _______ _______ _______ _____ _____    ______ ____
ROOT
ATOM      1  C   UNL     1       2.594   1.758  17.773  0.00  0.00    +0.000 C 
ATOM      2  N   UNL     1       3.048   2.863  18.598  0.00  0.00    +0.000 NA
ATOM      3  C   UNL     1       2.880   4.115  17.852  0.00  0.00    +0.000 C 
ATOM      4  C   UNL     1       1.374   4.397  18.241  0.00  0.00    +0.000 C 
ATOM      5  C   UNL     1       1.081   3.684  19.549  0.00  0.00    +0.000 C 
ATOM      6  C   UNL     1       2.468   3.242  19.933  0.00  0.00    +0.000 C 
ATOM      7  C   UNL     1       3.159   4.556  20.630  0.00  0.00    +0.000 C 
ATOM      8  C   UNL     1       3.758   5.668  19.634  0.00  0.00    +0.000 C 
ATOM      9  C   UNL     1       4.153   4.775  18.475  0.00  0.00    +0.000 C 
ENDROOT
BRANCH   8  10
ATOM     10  C   UNL     1       2.941   6.896  19.200  0.00  0.00    +0.000 A 
ATOM     11  C   UNL     1       3.080   7.488  17.936  0.00  0.00    +0.000 A 
ATOM     12  C   UNL     1       2.348   8.641  17.599  0.00  0.00    +0.000 A 
ATOM     13  C   UNL     1       1.451   9.209  18.504  0.00  0.00    +0.000 A 
ATOM     14  C   UNL     1       1.263   8.626  19.744  0.00  0.00    +0.000 A 
ATOM     15  C   UNL     1       1.990   7.479  20.077  0.00  0.00    +0.000 A 
ENDBRANCH   8  10
BRANCH   9  16
ATOM     16  C   UNL     1       5.414   4.885  17.586  0.00  0.00    +0.000 C 
BRANCH  16  17
ATOM     17  C   UNL     1       6.627   5.394  18.422  0.00  0.00    +0.000 C 
BRANCH  17  18
ATOM     18  C   UNL     1       7.309   6.616  17.847  0.00  0.00    +0.000 C 
BRANCH  18  19
ATOM     19  O   UNL     1       7.566   6.454  16.453  0.00  0.00    +0.000 OA
ATOM     20  H   UNL     1       7.306   5.549  16.209  0.00  0.00    +0.000 HD
ENDBRANCH  18  19
ENDBRANCH  17  18
ENDBRANCH  16  17
ENDBRANCH   9  16
TORSDOF 5
ENDMDL
MODEL 9
REMARK VINA RESULT:      -6.4      1.748      4.418
REMARK  Name = 
REMARK  6 active torsions:
REMARK  status: ('A' for Active; 'I' for Inactive)
REMARK    1  A    between atoms: C_1  and  N_2
REMARK    2  A    between atoms: C_8  and  C_9
REMARK    3  A    between atoms: C_15  and  C_16
REMARK    4  A    between atoms: C_16  and  C_17
REMARK    5  A    between atoms: C_17  and  C_18
REMARK    6  A    between atoms: C_18  and  O_19
REMARK                            x       y       z     vdW  Elec       q    Type
REMARK                         _______ _______ _______ _____ _____    ______ ____
ROOT
ATOM      1  C   UNL     1       2.454   1.682  17.909  0.00  0.00    +0.000 C 
ATOM      2  N   UNL     1       2.898   2.782  18.745  0.00  0.00    +0.000 NA
ATOM      3  C   UNL     1       2.798   4.031  17.983  0.00  0.00    +0.000 C 
ATOM      4  C   UNL     1       1.284   4.356  18.298  0.00  0.00    +0.000 C 
ATOM      5  C   UNL     1       0.911   3.663  19.596  0.00  0.00    +0.000 C 
ATOM      6  C   UNL     1       2.265   3.188  20.049  0.00  0.00    +0.000 C 
ATOM      7  C   UNL     1       2.958   4.490  20.768  0.00  0.00    +0.000 C 
ATOM      8  C   UNL     1       3.632   5.577  19.793  0.00  0.00    +0.000 C 
ATOM      9  C   UNL     1       4.057   4.663  18.660  0.00  0.00    +0.000 C 
ENDROOT
BRANCH   8  10
ATOM     10  C   UNL     1       2.869   6.822  19.311  0.00  0.00    +0.000 A 
ATOM     11  C   UNL     1       3.036   7.361  18.027  0.00  0.00    +0.000 A 
ATOM     12  C   UNL     1       2.354   8.531  17.645  0.00  0.00    +0.000 A 
ATOM     13  C   UNL     1       1.481   9.169  18.525  0.00  0.00    +0.000 A 
ATOM     14  C   UNL     1       1.266   8.641  19.785  0.00  0.00    +0.000 A 
ATOM     15  C   UNL     1       1.942   7.477  20.162  0.00  0.00    +0.000 A 
ENDBRANCH   8  10
BRANCH   9  16
ATOM     16  C   UNL     1       5.361   4.733  17.830  0.00  0.00    +0.000 C 
BRANCH  16  17
ATOM     17  C   UNL     1       5.048   4.593  16.310  0.00  0.00    +0.000 C 
BRANCH  17  18
ATOM     18  C   UNL     1       5.868   5.501  15.420  0.00  0.00    +0.000 C 
BRANCH  18  19
ATOM     19  O   UNL     1       5.197   6.739  15.191  0.00  0.00    +0.000 OA
ATOM     20  H   UNL     1       4.937   7.099  16.058  0.00  0.00    +0.000 HD
ENDBRANCH  18  19
ENDBRANCH  17  18
ENDBRANCH  16  17
ENDBRANCH   9  16
TORSDOF 5
ENDMDL
