MODEL 1
REMARK VINA RESULT:      -7.9      0.000      0.000
REMARK  Name = 
REMARK  6 active torsions:
REMARK  status: ('A' for Active; 'I' for Inactive)
REMARK    1  A    between atoms: C_1  and  O_2
REMARK    2  A    between atoms: O_2  and  C_3
REMARK    3  A    between atoms: C_6  and  N_7
REMARK    4  A    between atoms: C_9  and  C_10
REMARK    5  A    between atoms: N_12  and  C_13
REMARK    6  A    between atoms: C_13  and  C_14
REMARK                            x       y       z     vdW  Elec       q    Type
REMARK                         _______ _______ _______ _____ _____    ______ ____
ROOT
ATOM      1  N   UNL     1       0.476  13.119  19.749  0.00  0.00    +0.000 N 
ATOM      2  N   UNL     1       0.755  12.070  18.883  0.00  0.00    +0.000 NA
ATOM      3  C   UNL     1       0.627  10.844  19.303  0.00  0.00    +0.000 A 
ATOM      4  C   UNL     1       0.148  10.500  20.665  0.00  0.00    +0.000 A 
ATOM      5  C   UNL     1       0.024   9.201  21.169  0.00  0.00    +0.000 A 
ATOM      6  C   UNL     1      -0.458   8.978  22.465  0.00  0.00    +0.000 A 
ATOM      7  C   UNL     1      -0.851  10.046  23.264  0.00  0.00    +0.000 A 
ATOM      8  C   UNL     1      -0.727  11.339  22.773  0.00  0.00    +0.000 A 
ATOM      9  C   UNL     1      -0.212  11.558  21.489  0.00  0.00    +0.000 A 
ATOM     10  C   UNL     1      -0.043  12.940  21.031  0.00  0.00    +0.000 A 
ATOM     11  O   UNL     1      -0.401  13.822  21.812  0.00  0.00    +0.000 OA
ENDROOT
BRANCH   1  15
ATOM     12  C   UNL     1       1.127  17.076  18.274  0.00  0.00    +0.000 A 
ATOM     13  C   UNL     1       2.182  16.166  18.351  0.00  0.00    +0.000 A 
ATOM     14  C   UNL     1       1.974  14.863  18.814  0.00  0.00    +0.000 A 
ATOM     15  C   UNL     1       0.701  14.428  19.212  0.00  0.00    +0.000 A 
ATOM     16  C   UNL     1      -0.358  15.327  19.085  0.00  0.00    +0.000 A 
ATOM     17  C   UNL     1      -0.156  16.642  18.637  0.00  0.00    +0.000 A 
ATOM     18 CL   UNL     1      -1.593  17.600  18.553  0.00  0.00    +0.000 Cl
BRANCH  12  20
ATOM     19  C   UNL     1       1.065  18.631  16.473  0.00  0.00    +0.000 C 
ATOM     20  O   UNL     1       1.516  18.289  17.775  0.00  0.00    +0.000 OA
ENDBRANCH  12  20
ENDBRANCH   1  15
BRANCH   3  21
ATOM     21  C   UNL     1       1.010   9.735  18.321  0.00  0.00    +0.000 C 
ATOM     22  O   UNL     1       0.197   9.325  17.497  0.00  0.00    +0.000 OA
ATOM     23  N   UNL     1       2.284   9.218  18.413  0.00  0.00    +0.000 N 
ATOM     24  H   UNL     1       2.878   9.461  19.199  0.00  0.00    +0.000 HD
BRANCH  23  25
ATOM     25  C   UNL     1       2.676   8.130  17.528  0.00  0.00    +0.000 C 
BRANCH  25  26
ATOM     26  C   UNL     1       3.035   6.821  18.235  0.00  0.00    +0.000 C 
ATOM     27  O   UNL     1       2.308   6.365  19.119  0.00  0.00    +0.000 OA
ATOM     28  N   UNL     1       4.191   6.177  17.807  0.00  0.00    +0.000 N 
ATOM     29  C   UNL     1       5.141   6.666  16.799  0.00  0.00    +0.000 C 
ATOM     30  C   UNL     1       5.327   5.622  15.689  0.00  0.00    +0.000 C 
ATOM     31  O   UNL     1       5.710   4.351  16.236  0.00  0.00    +0.000 OA
ATOM     32  C   UNL     1       4.721   3.869  17.163  0.00  0.00    +0.000 C 
ATOM     33  C   UNL     1       4.532   4.851  18.327  0.00  0.00    +0.000 C 
ENDBRANCH  25  26
ENDBRANCH  23  25
ENDBRANCH   3  21
TORSDOF 5
ENDMDL
MODEL 2
REMARK VINA RESULT:      -7.7      4.095      9.863
REMARK  Name = 
REMARK  6 active torsions:
REMARK  status: ('A' for Active; 'I' for Inactive)
REMARK    1  A    between atoms: C_1  and  O_2
REMARK    2  A    between atoms: O_2  and  C_3
REMARK    3  A    between atoms: C_6  and  N_7
REMARK    4  A    between atoms: C_9  and  C_10
REMARK    5  A    between atoms: N_12  and  C_13
REMARK    6  A    between atoms: C_13  and  C_14
REMARK                            x       y       z     vdW  Elec       q    Type
REMARK                         _______ _______ _______ _____ _____    ______ ____
ROOT
ATOM      1  N   UNL     1       4.203   4.533  17.141  0.00  0.00    +0.000 N 
ATOM      2  N   UNL     1       3.835   5.794  17.591  0.00  0.00    +0.000 NA
ATOM      3  C   UNL     1       2.968   5.898  18.557  0.00  0.00    +0.000 A 
ATOM      4  C   UNL     1       2.373   4.724  19.243  0.00  0.00    +0.000 A 
ATOM      5  C   UNL     1       1.417   4.788  20.262  0.00  0.00    +0.000 A 
ATOM      6  C   UNL     1       0.932   3.620  20.864  0.00  0.00    +0.000 A 
ATOM      7  C   UNL     1       1.415   2.375  20.477  0.00  0.00    +0.000 A 
ATOM      8  C   UNL     1       2.361   2.303  19.464  0.00  0.00    +0.000 A 
ATOM      9  C   UNL     1       2.818   3.471  18.842  0.00  0.00    +0.000 A 
ATOM     10  C   UNL     1       3.773   3.348  17.737  0.00  0.00    +0.000 A 
ATOM     11  O   UNL     1       4.133   2.205  17.451  0.00  0.00    +0.000 OA
ENDROOT
BRANCH   1  15
ATOM     12  C   UNL     1       6.865   4.609  13.799  0.00  0.00    +0.000 A 
ATOM     13  C   UNL     1       7.303   5.006  15.063  0.00  0.00    +0.000 A 
ATOM     14  C   UNL     1       6.443   4.966  16.166  0.00  0.00    +0.000 A 
ATOM     15  C   UNL     1       5.119   4.523  16.039  0.00  0.00    +0.000 A 
ATOM     16  C   UNL     1       4.703   4.080  14.783  0.00  0.00    +0.000 A 
ATOM     17  C   UNL     1       5.553   4.132  13.668  0.00  0.00    +0.000 A 
ATOM     18 CL   UNL     1       4.850   3.542  12.203  0.00  0.00    +0.000 Cl
BRANCH  12  20
ATOM     19  C   UNL     1       8.480   5.952  12.680  0.00  0.00    +0.000 C 
ATOM     20  O   UNL     1       7.850   4.692  12.853  0.00  0.00    +0.000 OA
ENDBRANCH  12  20
ENDBRANCH   1  15
BRANCH   3  21
ATOM     21  C   UNL     1       2.557   7.315  18.964  0.00  0.00    +0.000 C 
ATOM     22  O   UNL     1       2.606   8.234  18.152  0.00  0.00    +0.000 OA
ATOM     23  N   UNL     1       2.151   7.509  20.267  0.00  0.00    +0.000 N 
ATOM     24  H   UNL     1       2.271   6.771  20.953  0.00  0.00    +0.000 HD
BRANCH  23  25
ATOM     25  C   UNL     1       1.795   8.849  20.708  0.00  0.00    +0.000 C 
BRANCH  25  26
ATOM     26  C   UNL     1       0.316   9.209  20.545  0.00  0.00    +0.000 C 
ATOM     27  O   UNL     1      -0.549   8.626  21.201  0.00  0.00    +0.000 OA
ATOM     28  N   UNL     1       0.018  10.233  19.652  0.00  0.00    +0.000 N 
ATOM     29  C   UNL     1       0.971  10.950  18.794  0.00  0.00    +0.000 C 
ATOM     30  C   UNL     1       0.874  12.462  19.036  0.00  0.00    +0.000 C 
ATOM     31  O   UNL     1      -0.475  12.926  18.867  0.00  0.00    +0.000 OA
ATOM     32  C   UNL     1      -1.368  12.255  19.773  0.00  0.00    +0.000 C 
ATOM     33  C   UNL     1      -1.352  10.738  19.540  0.00  0.00    +0.000 C 
ENDBRANCH  25  26
ENDBRANCH  23  25
ENDBRANCH   3  21
TORSDOF 5
ENDMDL
MODEL 3
REMARK VINA RESULT:      -7.7      2.146      2.665
REMARK  Name = 
REMARK  6 active torsions:
REMARK  status: ('A' for Active; 'I' for Inactive)
REMARK    1  A    between atoms: C_1  and  O_2
REMARK    2  A    between atoms: O_2  and  C_3
REMARK    3  A    between atoms: C_6  and  N_7
REMARK    4  A    between atoms: C_9  and  C_10
REMARK    5  A    between atoms: N_12  and  C_13
REMARK    6  A    between atoms: C_13  and  C_14
REMARK                            x       y       z     vdW  Elec       q    Type
REMARK                         _______ _______ _______ _____ _____    ______ ____
ROOT
ATOM      1  N   UNL     1       1.298  12.424  19.759  0.00  0.00    +0.000 N 
ATOM      2  N   UNL     1       1.511  11.322  18.942  0.00  0.00    +0.000 NA
ATOM      3  C   UNL     1       1.183  10.137  19.370  0.00  0.00    +0.000 A 
ATOM      4  C   UNL     1       0.542   9.900  20.687  0.00  0.00    +0.000 A 
ATOM      5  C   UNL     1       0.200   8.644  21.200  0.00  0.00    +0.000 A 
ATOM      6  C   UNL     1      -0.423   8.526  22.449  0.00  0.00    +0.000 A 
ATOM      7  C   UNL     1      -0.740   9.660  23.189  0.00  0.00    +0.000 A 
ATOM      8  C   UNL     1      -0.401  10.909  22.688  0.00  0.00    +0.000 A 
ATOM      9  C   UNL     1       0.253  11.020  21.455  0.00  0.00    +0.000 A 
ATOM     10  C   UNL     1       0.646  12.353  20.990  0.00  0.00    +0.000 A 
ATOM     11  O   UNL     1       0.340  13.298  21.718  0.00  0.00    +0.000 OA
ENDROOT
BRANCH   1  15
ATOM     12  C   UNL     1       2.633  16.098  18.034  0.00  0.00    +0.000 A 
ATOM     13  C   UNL     1       1.328  15.973  18.513  0.00  0.00    +0.000 A 
ATOM     14  C   UNL     1       0.889  14.780  19.096  0.00  0.00    +0.000 A 
ATOM     15  C   UNL     1       1.743  13.675  19.223  0.00  0.00    +0.000 A 
ATOM     16  C   UNL     1       3.061  13.824  18.788  0.00  0.00    +0.000 A 
ATOM     17  C   UNL     1       3.505  15.012  18.186  0.00  0.00    +0.000 A 
ATOM     18 CL   UNL     1       5.168  14.997  17.712  0.00  0.00    +0.000 Cl
BRANCH  12  20
ATOM     19  C   UNL     1       1.828  17.990  16.834  0.00  0.00    +0.000 C 
ATOM     20  O   UNL     1       2.886  17.342  17.523  0.00  0.00    +0.000 OA
ENDBRANCH  12  20
ENDBRANCH   1  15
BRANCH   3  21
ATOM     21  C   UNL     1       1.502   8.958  18.448  0.00  0.00    +0.000 C 
ATOM     22  O   UNL     1       1.052   8.922  17.306  0.00  0.00    +0.000 OA
ATOM     23  N   UNL     1       2.292   7.950  18.956  0.00  0.00    +0.000 N 
ATOM     24  H   UNL     1       2.518   7.928  19.945  0.00  0.00    +0.000 HD
BRANCH  23  25
ATOM     25  C   UNL     1       2.583   6.789  18.128  0.00  0.00    +0.000 C 
BRANCH  25  26
ATOM     26  C   UNL     1       3.473   5.733  18.788  0.00  0.00    +0.000 C 
ATOM     27  O   UNL     1       4.506   6.060  19.375  0.00  0.00    +0.000 OA
ATOM     28  N   UNL     1       3.038   4.414  18.713  0.00  0.00    +0.000 N 
ATOM     29  C   UNL     1       1.852   3.925  17.997  0.00  0.00    +0.000 C 
ATOM     30  C   UNL     1       0.940   3.138  18.949  0.00  0.00    +0.000 C 
ATOM     31  O   UNL     1       1.664   2.083  19.602  0.00  0.00    +0.000 OA
ATOM     32  C   UNL     1       2.775   2.607  20.351  0.00  0.00    +0.000 C 
ATOM     33  C   UNL     1       3.750   3.360  19.438  0.00  0.00    +0.000 C 
ENDBRANCH  25  26
ENDBRANCH  23  25
ENDBRANCH   3  21
TORSDOF 5
ENDMDL
MODEL 4
REMARK VINA RESULT:      -7.7      4.433      9.959
REMARK  Name = 
REMARK  6 active torsions:
REMARK  status: ('A' for Active; 'I' for Inactive)
REMARK    1  A    between atoms: C_1  and  O_2
REMARK    2  A    between atoms: O_2  and  C_3
REMARK    3  A    between atoms: C_6  and  N_7
REMARK    4  A    between atoms: C_9  and  C_10
REMARK    5  A    between atoms: N_12  and  C_13
REMARK    6  A    between atoms: C_13  and  C_14
REMARK                            x       y       z     vdW  Elec       q    Type
REMARK                         _______ _______ _______ _____ _____    ______ ____
ROOT
ATOM      1  N   UNL     1       4.364   4.830  17.443  0.00  0.00    +0.000 N 
ATOM      2  N   UNL     1       3.762   6.060  17.672  0.00  0.00    +0.000 NA
ATOM      3  C   UNL     1       2.799   6.147  18.545  0.00  0.00    +0.000 A 
ATOM      4  C   UNL     1       2.331   4.993  19.353  0.00  0.00    +0.000 A 
ATOM      5  C   UNL     1       1.282   5.033  20.278  0.00  0.00    +0.000 A 
ATOM      6  C   UNL     1       0.928   3.892  21.009  0.00  0.00    +0.000 A 
ATOM      7  C   UNL     1       1.635   2.705  20.849  0.00  0.00    +0.000 A 
ATOM      8  C   UNL     1       2.675   2.657  19.931  0.00  0.00    +0.000 A 
ATOM      9  C   UNL     1       3.003   3.791  19.177  0.00  0.00    +0.000 A 
ATOM     10  C   UNL     1       4.068   3.681  18.177  0.00  0.00    +0.000 A 
ATOM     11  O   UNL     1       4.628   2.587  18.092  0.00  0.00    +0.000 OA
ENDROOT
BRANCH   1  15
ATOM     12  C   UNL     1       7.300   4.911  14.340  0.00  0.00    +0.000 A 
ATOM     13  C   UNL     1       7.587   5.435  15.601  0.00  0.00    +0.000 A 
ATOM     14  C   UNL     1       6.638   5.396  16.628  0.00  0.00    +0.000 A 
ATOM     15  C   UNL     1       5.373   4.826  16.427  0.00  0.00    +0.000 A 
ATOM     16  C   UNL     1       5.111   4.258  15.179  0.00  0.00    +0.000 A 
ATOM     17  C   UNL     1       6.051   4.309  14.138  0.00  0.00    +0.000 A 
ATOM     18 CL   UNL     1       5.536   3.553  12.670  0.00  0.00    +0.000 Cl
BRANCH  12  20
ATOM     19  C   UNL     1       8.189   5.859  12.346  0.00  0.00    +0.000 C 
ATOM     20  O   UNL     1       8.356   5.017  13.477  0.00  0.00    +0.000 OA
ENDBRANCH  12  20
ENDBRANCH   1  15
BRANCH   3  21
ATOM     21  C   UNL     1       2.135   7.516  18.705  0.00  0.00    +0.000 C 
ATOM     22  O   UNL     1       1.766   8.148  17.719  0.00  0.00    +0.000 OA
ATOM     23  N   UNL     1       1.988   8.005  19.985  0.00  0.00    +0.000 N 
ATOM     24  H   UNL     1       2.441   7.538  20.764  0.00  0.00    +0.000 HD
BRANCH  23  25
ATOM     25  C   UNL     1       1.402   9.323  20.180  0.00  0.00    +0.000 C 
BRANCH  25  26
ATOM     26  C   UNL     1       0.826   9.573  21.576  0.00  0.00    +0.000 C 
ATOM     27  O   UNL     1       1.428   9.191  22.581  0.00  0.00    +0.000 OA
ATOM     28  N   UNL     1      -0.376  10.268  21.641  0.00  0.00    +0.000 N 
ATOM     29  C   UNL     1      -1.188  10.718  20.502  0.00  0.00    +0.000 C 
ATOM     30  C   UNL     1      -1.442  12.228  20.591  0.00  0.00    +0.000 C 
ATOM     31  O   UNL     1      -2.026  12.579  21.856  0.00  0.00    +0.000 OA
ATOM     32  C   UNL     1      -1.171  12.189  22.944  0.00  0.00    +0.000 C 
ATOM     33  C   UNL     1      -0.924  10.674  22.937  0.00  0.00    +0.000 C 
ENDBRANCH  25  26
ENDBRANCH  23  25
ENDBRANCH   3  21
TORSDOF 5
ENDMDL
MODEL 5
REMARK VINA RESULT:      -7.7      4.177      9.933
REMARK  Name = 
REMARK  6 active torsions:
REMARK  status: ('A' for Active; 'I' for Inactive)
REMARK    1  A    between atoms: C_1  and  O_2
REMARK    2  A    between atoms: O_2  and  C_3
REMARK    3  A    between atoms: C_6  and  N_7
REMARK    4  A    between atoms: C_9  and  C_10
REMARK    5  A    between atoms: N_12  and  C_13
REMARK    6  A    between atoms: C_13  and  C_14
REMARK                            x       y       z     vdW  Elec       q    Type
REMARK                         _______ _______ _______ _____ _____    ______ ____
ROOT
ATOM      1  N   UNL     1       4.211   4.606  17.051  0.00  0.00    +0.000 N 
ATOM      2  N   UNL     1       3.848   5.867  17.502  0.00  0.00    +0.000 NA
ATOM      3  C   UNL     1       2.985   5.974  18.472  0.00  0.00    +0.000 A 
ATOM      4  C   UNL     1       2.392   4.801  19.163  0.00  0.00    +0.000 A 
ATOM      5  C   UNL     1       1.441   4.868  20.186  0.00  0.00    +0.000 A 
ATOM      6  C   UNL     1       0.957   3.701  20.791  0.00  0.00    +0.000 A 
ATOM      7  C   UNL     1       1.437   2.455  20.404  0.00  0.00    +0.000 A 
ATOM      8  C   UNL     1       2.378   2.380  19.386  0.00  0.00    +0.000 A 
ATOM      9  C   UNL     1       2.833   3.548  18.761  0.00  0.00    +0.000 A 
ATOM     10  C   UNL     1       3.783   3.422  17.651  0.00  0.00    +0.000 A 
ATOM     11  O   UNL     1       4.139   2.278  17.365  0.00  0.00    +0.000 OA
ENDROOT
BRANCH   1  15
ATOM     12  C   UNL     1       6.850   4.665  13.691  0.00  0.00    +0.000 A 
ATOM     13  C   UNL     1       7.263   5.169  14.925  0.00  0.00    +0.000 A 
ATOM     14  C   UNL     1       6.412   5.136  16.035  0.00  0.00    +0.000 A 
ATOM     15  C   UNL     1       5.122   4.593  15.946  0.00  0.00    +0.000 A 
ATOM     16  C   UNL     1       4.734   4.045  14.723  0.00  0.00    +0.000 A 
ATOM     17  C   UNL     1       5.575   4.089  13.599  0.00  0.00    +0.000 A 
ATOM     18 CL   UNL     1       4.912   3.360  12.178  0.00  0.00    +0.000 Cl
BRANCH  12  20
ATOM     19  C   UNL     1       8.647   5.915  12.757  0.00  0.00    +0.000 C 
ATOM     20  O   UNL     1       7.823   4.760  12.734  0.00  0.00    +0.000 OA
ENDBRANCH  12  20
ENDBRANCH   1  15
BRANCH   3  21
ATOM     21  C   UNL     1       2.579   7.392  18.880  0.00  0.00    +0.000 C 
ATOM     22  O   UNL     1       2.286   7.644  20.045  0.00  0.00    +0.000 OA
ATOM     23  N   UNL     1       2.543   8.351  17.891  0.00  0.00    +0.000 N 
ATOM     24  H   UNL     1       2.634   8.083  16.917  0.00  0.00    +0.000 HD
BRANCH  23  25
ATOM     25  C   UNL     1       2.119   9.703  18.228  0.00  0.00    +0.000 C 
BRANCH  25  26
ATOM     26  C   UNL     1       0.621   9.968  18.059  0.00  0.00    +0.000 C 
ATOM     27  O   UNL     1      -0.101   9.151  17.486  0.00  0.00    +0.000 OA
ATOM     28  N   UNL     1       0.130  11.150  18.604  0.00  0.00    +0.000 N 
ATOM     29  C   UNL     1       0.918  12.203  19.259  0.00  0.00    +0.000 C 
ATOM     30  C   UNL     1       0.375  12.479  20.667  0.00  0.00    +0.000 C 
ATOM     31  O   UNL     1      -1.028  12.785  20.628  0.00  0.00    +0.000 OA
ATOM     32  C   UNL     1      -1.775  11.701  20.048  0.00  0.00    +0.000 C 
ATOM     33  C   UNL     1      -1.310  11.415  18.615  0.00  0.00    +0.000 C 
ENDBRANCH  25  26
ENDBRANCH  23  25
ENDBRANCH   3  21
TORSDOF 5
ENDMDL
MODEL 6
REMARK VINA RESULT:      -7.6      3.565      4.720
REMARK  Name = 
REMARK  6 active torsions:
REMARK  status: ('A' for Active; 'I' for Inactive)
REMARK    1  A    between atoms: C_1  and  O_2
REMARK    2  A    between atoms: O_2  and  C_3
REMARK    3  A    between atoms: C_6  and  N_7
REMARK    4  A    between atoms: C_9  and  C_10
REMARK    5  A    between atoms: N_12  and  C_13
REMARK    6  A    between atoms: C_13  and  C_14
REMARK                            x       y       z     vdW  Elec       q    Type
REMARK                         _______ _______ _______ _____ _____    ______ ____
ROOT
ATOM      1  N   UNL     1      -1.830  12.169  20.380  0.00  0.00    +0.000 N 
ATOM      2  N   UNL     1      -0.641  11.519  20.080  0.00  0.00    +0.000 NA
ATOM      3  C   UNL     1      -0.566  10.792  19.002  0.00  0.00    +0.000 A 
ATOM      4  C   UNL     1      -1.686  10.654  18.038  0.00  0.00    +0.000 A 
ATOM      5  C   UNL     1      -1.660   9.862  16.885  0.00  0.00    +0.000 A 
ATOM      6  C   UNL     1      -2.764   9.814  16.024  0.00  0.00    +0.000 A 
ATOM      7  C   UNL     1      -3.895  10.579  16.286  0.00  0.00    +0.000 A 
ATOM      8  C   UNL     1      -3.930  11.365  17.429  0.00  0.00    +0.000 A 
ATOM      9  C   UNL     1      -2.837  11.382  18.305  0.00  0.00    +0.000 A 
ATOM     10  C   UNL     1      -2.937  12.179  19.531  0.00  0.00    +0.000 A 
ATOM     11  O   UNL     1      -3.982  12.810  19.689  0.00  0.00    +0.000 OA
ENDROOT
BRANCH   1  15
ATOM     12  C   UNL     1      -1.792  14.225  24.126  0.00  0.00    +0.000 A 
ATOM     13  C   UNL     1      -0.856  14.535  23.138  0.00  0.00    +0.000 A 
ATOM     14  C   UNL     1      -0.874  13.880  21.902  0.00  0.00    +0.000 A 
ATOM     15  C   UNL     1      -1.832  12.897  21.614  0.00  0.00    +0.000 A 
ATOM     16  C   UNL     1      -2.796  12.629  22.587  0.00  0.00    +0.000 A 
ATOM     17  C   UNL     1      -2.776  13.270  23.836  0.00  0.00    +0.000 A 
ATOM     18 CL   UNL     1      -4.051  12.798  24.903  0.00  0.00    +0.000 Cl
BRANCH  12  20
ATOM     19  C   UNL     1      -2.376  16.193  25.332  0.00  0.00    +0.000 C 
ATOM     20  O   UNL     1      -1.635  14.984  25.253  0.00  0.00    +0.000 OA
ENDBRANCH  12  20
ENDBRANCH   1  15
BRANCH   3  21
ATOM     21  C   UNL     1       0.751  10.050  18.762  0.00  0.00    +0.000 C 
ATOM     22  O   UNL     1       1.591  10.508  17.993  0.00  0.00    +0.000 OA
ATOM     23  N   UNL     1       0.938   8.857  19.426  0.00  0.00    +0.000 N 
ATOM     24  H   UNL     1       0.168   8.426  19.928  0.00  0.00    +0.000 HD
BRANCH  23  25
ATOM     25  C   UNL     1       2.157   8.097  19.191  0.00  0.00    +0.000 C 
BRANCH  25  26
ATOM     26  C   UNL     1       2.226   6.751  19.916  0.00  0.00    +0.000 C 
ATOM     27  O   UNL     1       1.470   6.504  20.857  0.00  0.00    +0.000 OA
ATOM     28  N   UNL     1       3.154   5.831  19.438  0.00  0.00    +0.000 N 
ATOM     29  C   UNL     1       4.126   6.051  18.359  0.00  0.00    +0.000 C 
ATOM     30  C   UNL     1       3.971   4.978  17.273  0.00  0.00    +0.000 C 
ATOM     31  O   UNL     1       4.061   3.659  17.835  0.00  0.00    +0.000 OA
ATOM     32  C   UNL     1       3.049   3.455  18.836  0.00  0.00    +0.000 C 
ATOM     33  C   UNL     1       3.189   4.470  19.978  0.00  0.00    +0.000 C 
ENDBRANCH  25  26
ENDBRANCH  23  25
ENDBRANCH   3  21
TORSDOF 5
ENDMDL
MODEL 7
REMARK VINA RESULT:      -7.6      3.780      9.754
REMARK  Name = 
REMARK  6 active torsions:
REMARK  status: ('A' for Active; 'I' for Inactive)
REMARK    1  A    between atoms: C_1  and  O_2
REMARK    2  A    between atoms: O_2  and  C_3
REMARK    3  A    between atoms: C_6  and  N_7
REMARK    4  A    between atoms: C_9  and  C_10
REMARK    5  A    between atoms: N_12  and  C_13
REMARK    6  A    between atoms: C_13  and  C_14
REMARK                            x       y       z     vdW  Elec       q    Type
REMARK                         _______ _______ _______ _____ _____    ______ ____
ROOT
ATOM      1  N   UNL     1       4.346   4.881  17.586  0.00  0.00    +0.000 N 
ATOM      2  N   UNL     1       3.743   6.087  17.916  0.00  0.00    +0.000 NA
ATOM      3  C   UNL     1       2.784   6.101  18.797  0.00  0.00    +0.000 A 
ATOM      4  C   UNL     1       2.323   4.885  19.513  0.00  0.00    +0.000 A 
ATOM      5  C   UNL     1       1.279   4.847  20.443  0.00  0.00    +0.000 A 
ATOM      6  C   UNL     1       0.932   3.650  21.082  0.00  0.00    +0.000 A 
ATOM      7  C   UNL     1       1.641   2.482  20.824  0.00  0.00    +0.000 A 
ATOM      8  C   UNL     1       2.676   2.511  19.900  0.00  0.00    +0.000 A 
ATOM      9  C   UNL     1       2.997   3.702  19.238  0.00  0.00    +0.000 A 
ATOM     10  C   UNL     1       4.057   3.676  18.226  0.00  0.00    +0.000 A 
ATOM     11  O   UNL     1       4.619   2.594  18.051  0.00  0.00    +0.000 OA
ENDROOT
BRANCH   1  15
ATOM     12  C   UNL     1       7.254   5.197  14.471  0.00  0.00    +0.000 A 
ATOM     13  C   UNL     1       7.455   5.836  15.695  0.00  0.00    +0.000 A 
ATOM     14  C   UNL     1       6.517   5.722  16.727  0.00  0.00    +0.000 A 
ATOM     15  C   UNL     1       5.350   4.961  16.567  0.00  0.00    +0.000 A 
ATOM     16  C   UNL     1       5.180   4.284  15.359  0.00  0.00    +0.000 A 
ATOM     17  C   UNL     1       6.108   4.406  14.312  0.00  0.00    +0.000 A 
ATOM     18 CL   UNL     1       5.716   3.493  12.897  0.00  0.00    +0.000 Cl
BRANCH  12  20
ATOM     19  C   UNL     1       7.951   5.775  12.270  0.00  0.00    +0.000 C 
ATOM     20  O   UNL     1       8.286   5.402  13.598  0.00  0.00    +0.000 OA
ENDBRANCH  12  20
ENDBRANCH   1  15
BRANCH   3  21
ATOM     21  C   UNL     1       2.118   7.451  19.070  0.00  0.00    +0.000 C 
ATOM     22  O   UNL     1       1.997   7.864  20.220  0.00  0.00    +0.000 OA
ATOM     23  N   UNL     1       1.655   8.162  17.983  0.00  0.00    +0.000 N 
ATOM     24  H   UNL     1       1.625   7.729  17.066  0.00  0.00    +0.000 HD
BRANCH  23  25
ATOM     25  C   UNL     1       0.975   9.431  18.202  0.00  0.00    +0.000 C 
BRANCH  25  26
ATOM     26  C   UNL     1       1.887  10.659  18.195  0.00  0.00    +0.000 C 
ATOM     27  O   UNL     1       2.851  10.723  17.430  0.00  0.00    +0.000 OA
ATOM     28  N   UNL     1       1.552  11.691  19.066  0.00  0.00    +0.000 N 
ATOM     29  C   UNL     1       0.457  11.685  20.046  0.00  0.00    +0.000 C 
ATOM     30  C   UNL     1      -0.462  12.894  19.825  0.00  0.00    +0.000 C 
ATOM     31  O   UNL     1       0.285  14.121  19.841  0.00  0.00    +0.000 OA
ATOM     32  C   UNL     1       1.301  14.119  18.822  0.00  0.00    +0.000 C 
ATOM     33  C   UNL     1       2.284  12.959  19.024  0.00  0.00    +0.000 C 
ENDBRANCH  25  26
ENDBRANCH  23  25
ENDBRANCH   3  21
TORSDOF 5
ENDMDL
MODEL 8
REMARK VINA RESULT:      -7.6      3.126      4.413
REMARK  Name = 
REMARK  6 active torsions:
REMARK  status: ('A' for Active; 'I' for Inactive)
REMARK    1  A    between atoms: C_1  and  O_2
REMARK    2  A    between atoms: O_2  and  C_3
REMARK    3  A    between atoms: C_6  and  N_7
REMARK    4  A    between atoms: C_9  and  C_10
REMARK    5  A    between atoms: N_12  and  C_13
REMARK    6  A    between atoms: C_13  and  C_14
REMARK                            x       y       z     vdW  Elec       q    Type
REMARK                         _______ _______ _______ _____ _____    ______ ____
ROOT
ATOM      1  N   UNL     1      -1.376  12.084  20.217  0.00  0.00    +0.000 N 
ATOM      2  N   UNL     1      -0.271  11.326  19.854  0.00  0.00    +0.000 NA
ATOM      3  C   UNL     1      -0.331  10.578  18.790  0.00  0.00    +0.000 A 
ATOM      4  C   UNL     1      -1.520  10.524  17.904  0.00  0.00    +0.000 A 
ATOM      5  C   UNL     1      -1.641   9.714  16.770  0.00  0.00    +0.000 A 
ATOM      6  C   UNL     1      -2.800   9.749  15.984  0.00  0.00    +0.000 A 
ATOM      7  C   UNL     1      -3.841  10.615  16.302  0.00  0.00    +0.000 A 
ATOM      8  C   UNL     1      -3.730  11.419  17.428  0.00  0.00    +0.000 A 
ATOM      9  C   UNL     1      -2.584  11.355  18.230  0.00  0.00    +0.000 A 
ATOM     10  C   UNL     1      -2.532  12.177  19.442  0.00  0.00    +0.000 A 
ATOM     11  O   UNL     1      -3.506  12.900  19.654  0.00  0.00    +0.000 OA
ENDROOT
BRANCH   1  15
ATOM     12  C   UNL     1      -1.014  14.411  23.782  0.00  0.00    +0.000 A 
ATOM     13  C   UNL     1      -1.835  13.283  23.752  0.00  0.00    +0.000 A 
ATOM     14  C   UNL     1      -1.945  12.505  22.595  0.00  0.00    +0.000 A 
ATOM     15  C   UNL     1      -1.232  12.829  21.432  0.00  0.00    +0.000 A 
ATOM     16  C   UNL     1      -0.373  13.927  21.484  0.00  0.00    +0.000 A 
ATOM     17  C   UNL     1      -0.270  14.724  22.636  0.00  0.00    +0.000 A 
ATOM     18 CL   UNL     1       0.844  16.039  22.500  0.00  0.00    +0.000 Cl
BRANCH  12  20
ATOM     19  C   UNL     1      -1.887  16.134  25.172  0.00  0.00    +0.000 C 
ATOM     20  O   UNL     1      -1.015  15.028  25.003  0.00  0.00    +0.000 OA
ENDBRANCH  12  20
ENDBRANCH   1  15
BRANCH   3  21
ATOM     21  C   UNL     1       0.897   9.720  18.480  0.00  0.00    +0.000 C 
ATOM     22  O   UNL     1       1.568   9.933  17.474  0.00  0.00    +0.000 OA
ATOM     23  N   UNL     1       1.201   8.704  19.361  0.00  0.00    +0.000 N 
ATOM     24  H   UNL     1       0.545   8.451  20.093  0.00  0.00    +0.000 HD
BRANCH  23  25
ATOM     25  C   UNL     1       2.335   7.836  19.081  0.00  0.00    +0.000 C 
BRANCH  25  26
ATOM     26  C   UNL     1       2.324   6.501  19.829  0.00  0.00    +0.000 C 
ATOM     27  O   UNL     1       1.540   6.308  20.760  0.00  0.00    +0.000 OA
ATOM     28  N   UNL     1       3.214   5.528  19.385  0.00  0.00    +0.000 N 
ATOM     29  C   UNL     1       4.215   5.681  18.321  0.00  0.00    +0.000 C 
ATOM     30  C   UNL     1       4.028   4.597  17.251  0.00  0.00    +0.000 C 
ATOM     31  O   UNL     1       4.042   3.286  17.837  0.00  0.00    +0.000 OA
ATOM     32  C   UNL     1       3.003   3.149  18.822  0.00  0.00    +0.000 C 
ATOM     33  C   UNL     1       3.172   4.177  19.949  0.00  0.00    +0.000 C 
ENDBRANCH  25  26
ENDBRANCH  23  25
ENDBRANCH   3  21
TORSDOF 5
ENDMDL
MODEL 9
REMARK VINA RESULT:      -7.6      1.598      1.908
REMARK  Name = 
REMARK  6 active torsions:
REMARK  status: ('A' for Active; 'I' for Inactive)
REMARK    1  A    between atoms: C_1  and  O_2
REMARK    2  A    between atoms: O_2  and  C_3
REMARK    3  A    between atoms: C_6  and  N_7
REMARK    4  A    between atoms: C_9  and  C_10
REMARK    5  A    between atoms: N_12  and  C_13
REMARK    6  A    between atoms: C_13  and  C_14
REMARK                            x       y       z     vdW  Elec       q    Type
REMARK                         _______ _______ _______ _____ _____    ______ ____
ROOT
ATOM      1  N   UNL     1       0.962  13.022  19.795  0.00  0.00    +0.000 N 
ATOM      2  N   UNL     1       1.351  11.906  19.066  0.00  0.00    +0.000 NA
ATOM      3  C   UNL     1       1.120  10.718  19.546  0.00  0.00    +0.000 A 
ATOM      4  C   UNL     1       0.411  10.486  20.829  0.00  0.00    +0.000 A 
ATOM      5  C   UNL     1       0.168   9.230  21.397  0.00  0.00    +0.000 A 
ATOM      6  C   UNL     1      -0.530   9.114  22.606  0.00  0.00    +0.000 A 
ATOM      7  C   UNL     1      -1.020  10.245  23.248  0.00  0.00    +0.000 A 
ATOM      8  C   UNL     1      -0.779  11.495  22.693  0.00  0.00    +0.000 A 
ATOM      9  C   UNL     1      -0.051  11.608  21.503  0.00  0.00    +0.000 A 
ATOM     10  C   UNL     1       0.232  12.949  20.981  0.00  0.00    +0.000 A 
ATOM     11  O   UNL     1      -0.226  13.893  21.625  0.00  0.00    +0.000 OA
ENDROOT
BRANCH   1  15
ATOM     12  C   UNL     1       2.036  16.717  17.937  0.00  0.00    +0.000 A 
ATOM     13  C   UNL     1       0.701  16.431  18.226  0.00  0.00    +0.000 A 
ATOM     14  C   UNL     1       0.343  15.231  18.851  0.00  0.00    +0.000 A 
ATOM     15  C   UNL     1       1.310  14.282  19.211  0.00  0.00    +0.000 A 
ATOM     16  C   UNL     1       2.647  14.597  18.966  0.00  0.00    +0.000 A 
ATOM     17  C   UNL     1       3.015  15.791  18.324  0.00  0.00    +0.000 A 
ATOM     18 CL   UNL     1       4.718  15.994  18.108  0.00  0.00    +0.000 Cl
BRANCH  12  20
ATOM     19  C   UNL     1       1.052  18.522  16.737  0.00  0.00    +0.000 C 
ATOM     20  O   UNL     1       2.194  17.942  17.351  0.00  0.00    +0.000 OA
ENDBRANCH  12  20
ENDBRANCH   1  15
BRANCH   3  21
ATOM     21  C   UNL     1       1.629   9.532  18.724  0.00  0.00    +0.000 C 
ATOM     22  O   UNL     1       1.680   9.599  17.500  0.00  0.00    +0.000 OA
ATOM     23  N   UNL     1       2.009   8.399  19.412  0.00  0.00    +0.000 N 
ATOM     24  H   UNL     1       1.810   8.314  20.404  0.00  0.00    +0.000 HD
BRANCH  23  25
ATOM     25  C   UNL     1       2.458   7.232  18.667  0.00  0.00    +0.000 C 
BRANCH  25  26
ATOM     26  C   UNL     1       2.485   5.928  19.467  0.00  0.00    +0.000 C 
ATOM     27  O   UNL     1       1.758   5.779  20.451  0.00  0.00    +0.000 OA
ATOM     28  N   UNL     1       3.340   4.931  19.009  0.00  0.00    +0.000 N 
ATOM     29  C   UNL     1       4.276   5.034  17.881  0.00  0.00    +0.000 C 
ATOM     30  C   UNL     1       4.017   3.910  16.869  0.00  0.00    +0.000 C 
ATOM     31  O   UNL     1       4.060   2.623  17.505  0.00  0.00    +0.000 OA
ATOM     32  C   UNL     1       3.081   2.534  18.556  0.00  0.00    +0.000 C 
ATOM     33  C   UNL     1       3.325   3.604  19.628  0.00  0.00    +0.000 C 
ENDBRANCH  25  26
ENDBRANCH  23  25
ENDBRANCH   3  21
TORSDOF 5
ENDMDL
