MODEL 1
REMARK VINA RESULT:      -7.2      0.000      0.000
REMARK  Name = 
REMARK  5 active torsions:
REMARK  status: ('A' for Active; 'I' for Inactive)
REMARK    1  A    between atoms: C_1  and  C_2
REMARK    2  A    between atoms: C_2  and  N_3
REMARK    3  A    between atoms: C_2  and  C_22
REMARK    4  A    between atoms: C_4  and  C_6
REMARK    5  A    between atoms: N_8  and  N_9
REMARK                            x       y       z     vdW  Elec       q    Type
REMARK                         _______ _______ _______ _____ _____    ______ ____
ROOT
ATOM      1  C   UNL     1       7.992   8.010  18.027  0.00  0.00    +0.000 C 
ATOM      2  O   UNL     1       8.526   7.278  18.849  0.00  0.00    +0.000 OA
ATOM      3  N   UNL     1       7.145   7.665  16.984  0.00  0.00    +0.000 N 
ATOM      4  H   UNL     1       6.791   8.420  16.407  0.00  0.00    +0.000 HD
ENDROOT
BRANCH   3   5
ATOM      5  N   UNL     1       6.787   6.366  16.759  0.00  0.00    +0.000 NA
ATOM      6  C   UNL     1       5.545   6.077  16.463  0.00  0.00    +0.000 C 
ATOM      7  C   UNL     1       4.417   7.094  16.311  0.00  0.00    +0.000 C 
ATOM      8  C   UNL     1       4.116   7.841  17.612  0.00  0.00    +0.000 C 
ATOM      9  C   UNL     1       2.666   7.692  18.094  0.00  0.00    +0.000 C 
ATOM     10  C   UNL     1       2.576   7.273  19.570  0.00  0.00    +0.000 C 
ATOM     11  C   UNL     1       1.723   6.013  19.784  0.00  0.00    +0.000 C 
ATOM     12  C   UNL     1       2.497   4.870  20.460  0.00  0.00    +0.000 C 
ATOM     13  C   UNL     1       2.496   3.566  19.645  0.00  0.00    +0.000 C 
ATOM     14  C   UNL     1       3.910   3.042  19.337  0.00  0.00    +0.000 C 
ATOM     15  C   UNL     1       4.194   2.921  17.830  0.00  0.00    +0.000 C 
ATOM     16  C   UNL     1       5.448   3.696  17.384  0.00  0.00    +0.000 C 
ATOM     17  C   UNL     1       5.204   4.614  16.179  0.00  0.00    +0.000 C 
ENDBRANCH   3   5
BRANCH   1  19
ATOM     18  N   UNL     1       9.321   9.893  18.886  0.00  0.00    +0.000 N 
ATOM     19  C   UNL     1       8.264   9.534  18.080  0.00  0.00    +0.000 C 
ATOM     20  O   UNL     1       7.558  10.299  17.434  0.00  0.00    +0.000 OA
ATOM     21  H   UNL     1       9.790   9.138  19.377  0.00  0.00    +0.000 HD
BRANCH  18  23
ATOM     22  C   UNL     1      11.305  11.375  18.912  0.00  0.00    +0.000 C 
ATOM     23  C   UNL     1       9.784  11.262  19.059  0.00  0.00    +0.000 C 
BRANCH  23  24
ATOM     24  C   UNL     1       9.325  11.809  20.400  0.00  0.00    +0.000 A 
ATOM     25  C   UNL     1       9.321  13.192  20.636  0.00  0.00    +0.000 A 
ATOM     26  C   UNL     1       8.881  13.708  21.857  0.00  0.00    +0.000 A 
ATOM     27  C   UNL     1       8.439  12.848  22.861  0.00  0.00    +0.000 A 
ATOM     28  C   UNL     1       8.444  11.473  22.650  0.00  0.00    +0.000 A 
ATOM     29  C   UNL     1       8.887  10.955  21.428  0.00  0.00    +0.000 A 
ENDBRANCH  23  24
ENDBRANCH  18  23
ENDBRANCH   1  19
TORSDOF 4
ENDMDL
MODEL 2
REMARK VINA RESULT:      -7.2      5.795      8.977
REMARK  Name = 
REMARK  5 active torsions:
REMARK  status: ('A' for Active; 'I' for Inactive)
REMARK    1  A    between atoms: C_1  and  C_2
REMARK    2  A    between atoms: C_2  and  N_3
REMARK    3  A    between atoms: C_2  and  C_22
REMARK    4  A    between atoms: C_4  and  C_6
REMARK    5  A    between atoms: N_8  and  N_9
REMARK                            x       y       z     vdW  Elec       q    Type
REMARK                         _______ _______ _______ _____ _____    ______ ____
ROOT
ATOM      1  C   UNL     1       1.493   8.200  20.159  0.00  0.00    +0.000 C 
ATOM      2  O   UNL     1       1.350   7.386  21.060  0.00  0.00    +0.000 OA
ATOM      3  N   UNL     1       0.981   9.486  20.068  0.00  0.00    +0.000 N 
ATOM      4  H   UNL     1       1.218  10.020  19.239  0.00  0.00    +0.000 HD
ENDROOT
BRANCH   3   5
ATOM      5  N   UNL     1       0.211  10.017  21.063  0.00  0.00    +0.000 NA
ATOM      6  C   UNL     1      -0.774  10.824  20.761  0.00  0.00    +0.000 C 
ATOM      7  C   UNL     1      -1.182  11.224  19.346  0.00  0.00    +0.000 C 
ATOM      8  C   UNL     1      -0.089  12.005  18.615  0.00  0.00    +0.000 C 
ATOM      9  C   UNL     1      -0.531  13.396  18.138  0.00  0.00    +0.000 C 
ATOM     10  C   UNL     1       0.453  14.501  18.555  0.00  0.00    +0.000 C 
ATOM     11  C   UNL     1      -0.224  15.647  19.322  0.00  0.00    +0.000 C 
ATOM     12  C   UNL     1       0.368  15.865  20.724  0.00  0.00    +0.000 C 
ATOM     13  C   UNL     1      -0.678  15.777  21.848  0.00  0.00    +0.000 C 
ATOM     14  C   UNL     1      -0.326  14.732  22.922  0.00  0.00    +0.000 C 
ATOM     15  C   UNL     1      -1.397  13.638  23.073  0.00  0.00    +0.000 C 
ATOM     16  C   UNL     1      -0.838  12.213  22.905  0.00  0.00    +0.000 C 
ATOM     17  C   UNL     1      -1.633  11.359  21.908  0.00  0.00    +0.000 C 
ENDBRANCH   3   5
BRANCH   1  19
ATOM     18  N   UNL     1       2.733   6.497  18.888  0.00  0.00    +0.000 N 
ATOM     19  C   UNL     1       2.325   7.812  18.911  0.00  0.00    +0.000 C 
ATOM     20  O   UNL     1       2.564   8.656  18.055  0.00  0.00    +0.000 OA
ATOM     21  H   UNL     1       2.474   5.932  19.692  0.00  0.00    +0.000 HD
BRANCH  18  23
ATOM     22  C   UNL     1       3.122   4.428  17.586  0.00  0.00    +0.000 C 
ATOM     23  C   UNL     1       3.491   5.900  17.800  0.00  0.00    +0.000 C 
BRANCH  23  24
ATOM     24  C   UNL     1       4.982   6.055  18.048  0.00  0.00    +0.000 A 
ATOM     25  C   UNL     1       5.596   5.381  19.113  0.00  0.00    +0.000 A 
ATOM     26  C   UNL     1       6.969   5.497  19.339  0.00  0.00    +0.000 A 
ATOM     27  C   UNL     1       7.750   6.294  18.502  0.00  0.00    +0.000 A 
ATOM     28  C   UNL     1       7.158   6.979  17.445  0.00  0.00    +0.000 A 
ATOM     29  C   UNL     1       5.782   6.864  17.220  0.00  0.00    +0.000 A 
ENDBRANCH  23  24
ENDBRANCH  18  23
ENDBRANCH   1  19
TORSDOF 4
ENDMDL
MODEL 3
REMARK VINA RESULT:      -6.9      6.610     10.649
REMARK  Name = 
REMARK  5 active torsions:
REMARK  status: ('A' for Active; 'I' for Inactive)
REMARK    1  A    between atoms: C_1  and  C_2
REMARK    2  A    between atoms: C_2  and  N_3
REMARK    3  A    between atoms: C_2  and  C_22
REMARK    4  A    between atoms: C_4  and  C_6
REMARK    5  A    between atoms: N_8  and  N_9
REMARK                            x       y       z     vdW  Elec       q    Type
REMARK                         _______ _______ _______ _____ _____    ______ ____
ROOT
ATOM      1  C   UNL     1       0.364   9.180  21.180  0.00  0.00    +0.000 C 
ATOM      2  O   UNL     1      -0.496   8.496  21.717  0.00  0.00    +0.000 OA
ATOM      3  N   UNL     1       0.611  10.536  21.335  0.00  0.00    +0.000 N 
ATOM      4  H   UNL     1       1.382  10.929  20.807  0.00  0.00    +0.000 HD
ENDROOT
BRANCH   3   5
ATOM      5  N   UNL     1      -0.140  11.303  22.181  0.00  0.00    +0.000 NA
ATOM      6  C   UNL     1      -1.042  12.115  21.693  0.00  0.00    +0.000 C 
ATOM      7  C   UNL     1      -1.372  12.276  20.211  0.00  0.00    +0.000 C 
ATOM      8  C   UNL     1      -0.194  12.818  19.399  0.00  0.00    +0.000 C 
ATOM      9  C   UNL     1      -0.499  14.127  18.656  0.00  0.00    +0.000 C 
ATOM     10  C   UNL     1       0.565  15.208  18.907  0.00  0.00    +0.000 C 
ATOM     11  C   UNL     1      -0.033  16.527  19.421  0.00  0.00    +0.000 C 
ATOM     12  C   UNL     1       0.535  16.954  20.784  0.00  0.00    +0.000 C 
ATOM     13  C   UNL     1      -0.547  17.161  21.858  0.00  0.00    +0.000 C 
ATOM     14  C   UNL     1      -0.319  16.309  23.119  0.00  0.00    +0.000 C 
ATOM     15  C   UNL     1      -1.485  15.352  23.420  0.00  0.00    +0.000 C 
ATOM     16  C   UNL     1      -1.048  13.881  23.540  0.00  0.00    +0.000 C 
ATOM     17  C   UNL     1      -1.884  12.921  22.683  0.00  0.00    +0.000 C 
ENDBRANCH   3   5
BRANCH   1  19
ATOM     18  N   UNL     1       1.786   7.278  20.538  0.00  0.00    +0.000 N 
ATOM     19  C   UNL     1       1.332   8.523  20.164  0.00  0.00    +0.000 C 
ATOM     20  O   UNL     1       1.627   9.119  19.135  0.00  0.00    +0.000 OA
ATOM     21  H   UNL     1       1.467   6.934  21.439  0.00  0.00    +0.000 HD
BRANCH  18  23
ATOM     22  C   UNL     1       2.962   7.103  18.366  0.00  0.00    +0.000 C 
ATOM     23  C   UNL     1       2.672   6.458  19.726  0.00  0.00    +0.000 C 
BRANCH  23  24
ATOM     24  C   UNL     1       2.091   5.065  19.552  0.00  0.00    +0.000 A 
ATOM     25  C   UNL     1       1.540   4.387  20.650  0.00  0.00    +0.000 A 
ATOM     26  C   UNL     1       0.982   3.115  20.500  0.00  0.00    +0.000 A 
ATOM     27  C   UNL     1       0.970   2.501  19.248  0.00  0.00    +0.000 A 
ATOM     28  C   UNL     1       1.520   3.153  18.149  0.00  0.00    +0.000 A 
ATOM     29  C   UNL     1       2.080   4.425  18.300  0.00  0.00    +0.000 A 
ENDBRANCH  23  24
ENDBRANCH  18  23
ENDBRANCH   1  19
TORSDOF 4
ENDMDL
MODEL 4
REMARK VINA RESULT:      -6.9      1.090      2.350
REMARK  Name = 
REMARK  5 active torsions:
REMARK  status: ('A' for Active; 'I' for Inactive)
REMARK    1  A    between atoms: C_1  and  C_2
REMARK    2  A    between atoms: C_2  and  N_3
REMARK    3  A    between atoms: C_2  and  C_22
REMARK    4  A    between atoms: C_4  and  C_6
REMARK    5  A    between atoms: N_8  and  N_9
REMARK                            x       y       z     vdW  Elec       q    Type
REMARK                         _______ _______ _______ _____ _____    ______ ____
ROOT
ATOM      1  C   UNL     1       8.064   7.877  18.146  0.00  0.00    +0.000 C 
ATOM      2  O   UNL     1       8.537   6.991  18.844  0.00  0.00    +0.000 OA
ATOM      3  N   UNL     1       7.272   7.754  17.014  0.00  0.00    +0.000 N 
ATOM      4  H   UNL     1       6.966   8.613  16.570  0.00  0.00    +0.000 HD
ENDROOT
BRANCH   3   5
ATOM      5  N   UNL     1       6.904   6.530  16.532  0.00  0.00    +0.000 NA
ATOM      6  C   UNL     1       5.660   6.315  16.188  0.00  0.00    +0.000 C 
ATOM      7  C   UNL     1       4.539   7.349  16.247  0.00  0.00    +0.000 C 
ATOM      8  C   UNL     1       4.245   7.821  17.672  0.00  0.00    +0.000 C 
ATOM      9  C   UNL     1       2.794   7.588  18.118  0.00  0.00    +0.000 C 
ATOM     10  C   UNL     1       2.703   6.881  19.480  0.00  0.00    +0.000 C 
ATOM     11  C   UNL     1       1.841   5.609  19.437  0.00  0.00    +0.000 C 
ATOM     12  C   UNL     1       2.608   4.349  19.867  0.00  0.00    +0.000 C 
ATOM     13  C   UNL     1       2.596   3.235  18.806  0.00  0.00    +0.000 C 
ATOM     14  C   UNL     1       4.006   2.775  18.395  0.00  0.00    +0.000 C 
ATOM     15  C   UNL     1       4.288   2.958  16.894  0.00  0.00    +0.000 C 
ATOM     16  C   UNL     1       5.547   3.797  16.610  0.00  0.00    +0.000 C 
ATOM     17  C   UNL     1       5.308   4.941  15.616  0.00  0.00    +0.000 C 
ENDBRANCH   3   5
BRANCH   1  19
ATOM     18  N   UNL     1       9.206   9.527  19.568  0.00  0.00    +0.000 N 
ATOM     19  C   UNL     1       8.361   9.357  18.495  0.00  0.00    +0.000 C 
ATOM     20  O   UNL     1       7.849  10.250  17.831  0.00  0.00    +0.000 OA
ATOM     21  H   UNL     1       9.523   8.680  20.031  0.00  0.00    +0.000 HD
BRANCH  18  23
ATOM     22  C   UNL     1       8.559  11.547  20.846  0.00  0.00    +0.000 C 
ATOM     23  C   UNL     1       9.654  10.824  20.052  0.00  0.00    +0.000 C 
BRANCH  23  24
ATOM     24  C   UNL     1      10.142  11.680  18.896  0.00  0.00    +0.000 A 
ATOM     25  C   UNL     1       9.442  12.840  18.530  0.00  0.00    +0.000 A 
ATOM     26  C   UNL     1       9.893  13.647  17.483  0.00  0.00    +0.000 A 
ATOM     27  C   UNL     1      11.049  13.305  16.784  0.00  0.00    +0.000 A 
ATOM     28  C   UNL     1      11.751  12.153  17.125  0.00  0.00    +0.000 A 
ATOM     29  C   UNL     1      11.300  11.343  18.172  0.00  0.00    +0.000 A 
ENDBRANCH  23  24
ENDBRANCH  18  23
ENDBRANCH   1  19
TORSDOF 4
ENDMDL
MODEL 5
REMARK VINA RESULT:      -6.9      6.075      9.781
REMARK  Name = 
REMARK  5 active torsions:
REMARK  status: ('A' for Active; 'I' for Inactive)
REMARK    1  A    between atoms: C_1  and  C_2
REMARK    2  A    between atoms: C_2  and  N_3
REMARK    3  A    between atoms: C_2  and  C_22
REMARK    4  A    between atoms: C_4  and  C_6
REMARK    5  A    between atoms: N_8  and  N_9
REMARK                            x       y       z     vdW  Elec       q    Type
REMARK                         _______ _______ _______ _____ _____    ______ ____
ROOT
ATOM      1  C   UNL     1       1.014   9.180  18.502  0.00  0.00    +0.000 C 
ATOM      2  O   UNL     1       1.456   9.735  17.506  0.00  0.00    +0.000 OA
ATOM      3  N   UNL     1      -0.223   9.347  19.107  0.00  0.00    +0.000 N 
ATOM      4  H   UNL     1      -0.415   8.787  19.930  0.00  0.00    +0.000 HD
ENDROOT
BRANCH   3   5
ATOM      5  N   UNL     1      -1.150  10.214  18.601  0.00  0.00    +0.000 NA
ATOM      6  C   UNL     1      -1.184  11.450  19.028  0.00  0.00    +0.000 C 
ATOM      7  C   UNL     1      -0.231  12.053  20.056  0.00  0.00    +0.000 C 
ATOM      8  C   UNL     1      -0.351  11.393  21.431  0.00  0.00    +0.000 C 
ATOM      9  C   UNL     1      -0.707  12.368  22.562  0.00  0.00    +0.000 C 
ATOM     10  C   UNL     1      -1.891  11.878  23.411  0.00  0.00    +0.000 C 
ATOM     11  C   UNL     1      -3.023  12.912  23.514  0.00  0.00    +0.000 C 
ATOM     12  C   UNL     1      -4.368  12.384  22.991  0.00  0.00    +0.000 C 
ATOM     13  C   UNL     1      -4.974  13.254  21.876  0.00  0.00    +0.000 C 
ATOM     14  C   UNL     1      -5.268  12.467  20.587  0.00  0.00    +0.000 C 
ATOM     15  C   UNL     1      -4.516  13.012  19.361  0.00  0.00    +0.000 C 
ATOM     16  C   UNL     1      -3.662  11.948  18.649  0.00  0.00    +0.000 C 
ATOM     17  C   UNL     1      -2.214  12.392  18.401  0.00  0.00    +0.000 C 
ENDBRANCH   3   5
BRANCH   1  19
ATOM     18  N   UNL     1       2.484   7.208  18.447  0.00  0.00    +0.000 N 
ATOM     19  C   UNL     1       1.900   8.157  19.257  0.00  0.00    +0.000 C 
ATOM     20  O   UNL     1       2.025   8.244  20.472  0.00  0.00    +0.000 OA
ATOM     21  H   UNL     1       2.256   7.258  17.459  0.00  0.00    +0.000 HD
BRANCH  18  23
ATOM     22  C   UNL     1       4.413   5.768  17.868  0.00  0.00    +0.000 C 
ATOM     23  C   UNL     1       3.384   6.172  18.930  0.00  0.00    +0.000 C 
BRANCH  23  24
ATOM     24  C   UNL     1       2.593   4.965  19.406  0.00  0.00    +0.000 A 
ATOM     25  C   UNL     1       2.491   4.682  20.776  0.00  0.00    +0.000 A 
ATOM     26  C   UNL     1       1.749   3.589  21.228  0.00  0.00    +0.000 A 
ATOM     27  C   UNL     1       1.098   2.760  20.315  0.00  0.00    +0.000 A 
ATOM     28  C   UNL     1       1.195   3.018  18.951  0.00  0.00    +0.000 A 
ATOM     29  C   UNL     1       1.940   4.112  18.498  0.00  0.00    +0.000 A 
ENDBRANCH  23  24
ENDBRANCH  18  23
ENDBRANCH   1  19
TORSDOF 4
ENDMDL
MODEL 6
REMARK VINA RESULT:      -6.8      6.022     10.110
REMARK  Name = 
REMARK  5 active torsions:
REMARK  status: ('A' for Active; 'I' for Inactive)
REMARK    1  A    between atoms: C_1  and  C_2
REMARK    2  A    between atoms: C_2  and  N_3
REMARK    3  A    between atoms: C_2  and  C_22
REMARK    4  A    between atoms: C_4  and  C_6
REMARK    5  A    between atoms: N_8  and  N_9
REMARK                            x       y       z     vdW  Elec       q    Type
REMARK                         _______ _______ _______ _____ _____    ______ ____
ROOT
ATOM      1  C   UNL     1       0.724   9.557  20.208  0.00  0.00    +0.000 C 
ATOM      2  O   UNL     1       0.996   9.672  21.394  0.00  0.00    +0.000 OA
ATOM      3  N   UNL     1      -0.295  10.169  19.492  0.00  0.00    +0.000 N 
ATOM      4  H   UNL     1      -0.359   9.955  18.503  0.00  0.00    +0.000 HD
ENDROOT
BRANCH   3   5
ATOM      5  N   UNL     1      -1.160  11.040  20.091  0.00  0.00    +0.000 NA
ATOM      6  C   UNL     1      -1.239  12.275  19.664  0.00  0.00    +0.000 C 
ATOM      7  C   UNL     1      -0.446  12.854  18.495  0.00  0.00    +0.000 C 
ATOM      8  C   UNL     1       1.063  12.853  18.747  0.00  0.00    +0.000 C 
ATOM      9  C   UNL     1       1.708  14.244  18.665  0.00  0.00    +0.000 C 
ATOM     10  C   UNL     1       2.587  14.557  19.886  0.00  0.00    +0.000 C 
ATOM     11  C   UNL     1       2.203  15.875  20.578  0.00  0.00    +0.000 C 
ATOM     12  C   UNL     1       1.819  15.689  22.055  0.00  0.00    +0.000 C 
ATOM     13  C   UNL     1       0.415  16.218  22.392  0.00  0.00    +0.000 C 
ATOM     14  C   UNL     1      -0.498  15.154  23.026  0.00  0.00    +0.000 C 
ATOM     15  C   UNL     1      -1.778  14.894  22.214  0.00  0.00    +0.000 C 
ATOM     16  C   UNL     1      -1.966  13.414  21.832  0.00  0.00    +0.000 C 
ATOM     17  C   UNL     1      -2.252  13.199  20.340  0.00  0.00    +0.000 C 
ENDBRANCH   3   5
BRANCH   1  19
ATOM     18  N   UNL     1       2.169   7.576  20.014  0.00  0.00    +0.000 N 
ATOM     19  C   UNL     1       1.568   8.605  19.324  0.00  0.00    +0.000 C 
ATOM     20  O   UNL     1       1.652   8.812  18.119  0.00  0.00    +0.000 OA
ATOM     21  H   UNL     1       2.023   7.562  21.019  0.00  0.00    +0.000 HD
BRANCH  18  23
ATOM     22  C   UNL     1       3.387   6.920  17.960  0.00  0.00    +0.000 C 
ATOM     23  C   UNL     1       2.978   6.541  19.388  0.00  0.00    +0.000 C 
BRANCH  23  24
ATOM     24  C   UNL     1       2.241   5.212  19.407  0.00  0.00    +0.000 A 
ATOM     25  C   UNL     1       1.748   4.695  20.614  0.00  0.00    +0.000 A 
ATOM     26  C   UNL     1       1.051   3.485  20.642  0.00  0.00    +0.000 A 
ATOM     27  C   UNL     1       0.837   2.774  19.462  0.00  0.00    +0.000 A 
ATOM     28  C   UNL     1       1.327   3.266  18.256  0.00  0.00    +0.000 A 
ATOM     29  C   UNL     1       2.027   4.476  18.228  0.00  0.00    +0.000 A 
ENDBRANCH  23  24
ENDBRANCH  18  23
ENDBRANCH   1  19
TORSDOF 4
ENDMDL
MODEL 7
REMARK VINA RESULT:      -6.8      1.727      8.740
REMARK  Name = 
REMARK  5 active torsions:
REMARK  status: ('A' for Active; 'I' for Inactive)
REMARK    1  A    between atoms: C_1  and  C_2
REMARK    2  A    between atoms: C_2  and  N_3
REMARK    3  A    between atoms: C_2  and  C_22
REMARK    4  A    between atoms: C_4  and  C_6
REMARK    5  A    between atoms: N_8  and  N_9
REMARK                            x       y       z     vdW  Elec       q    Type
REMARK                         _______ _______ _______ _____ _____    ______ ____
ROOT
ATOM      1  C   UNL     1       8.380   9.893  17.814  0.00  0.00    +0.000 C 
ATOM      2  O   UNL     1       7.497  10.560  17.294  0.00  0.00    +0.000 OA
ATOM      3  N   UNL     1       9.653  10.292  18.195  0.00  0.00    +0.000 N 
ATOM      4  H   UNL     1      10.249   9.592  18.622  0.00  0.00    +0.000 HD
ENDROOT
BRANCH   3   5
ATOM      5  N   UNL     1      10.077  11.579  18.021  0.00  0.00    +0.000 NA
ATOM      6  C   UNL     1      10.523  12.260  19.045  0.00  0.00    +0.000 C 
ATOM      7  C   UNL     1      10.650  11.726  20.469  0.00  0.00    +0.000 C 
ATOM      8  C   UNL     1       9.298  11.356  21.083  0.00  0.00    +0.000 C 
ATOM      9  C   UNL     1       8.979  12.107  22.384  0.00  0.00    +0.000 C 
ATOM     10  C   UNL     1       7.584  12.752  22.364  0.00  0.00    +0.000 C 
ATOM     11  C   UNL     1       7.616  14.256  22.679  0.00  0.00    +0.000 C 
ATOM     12  C   UNL     1       7.022  15.119  21.554  0.00  0.00    +0.000 C 
ATOM     13  C   UNL     1       7.995  16.186  21.025  0.00  0.00    +0.000 C 
ATOM     14  C   UNL     1       8.232  16.091  19.507  0.00  0.00    +0.000 C 
ATOM     15  C   UNL     1       9.708  15.863  19.140  0.00  0.00    +0.000 C 
ATOM     16  C   UNL     1       9.930  14.618  18.261  0.00  0.00    +0.000 C 
ATOM     17  C   UNL     1      11.024  13.682  18.790  0.00  0.00    +0.000 C 
ENDBRANCH   3   5
BRANCH   1  19
ATOM     18  N   UNL     1       7.243   7.791  17.231  0.00  0.00    +0.000 N 
ATOM     19  C   UNL     1       8.129   8.391  18.098  0.00  0.00    +0.000 C 
ATOM     20  O   UNL     1       8.704   7.846  19.033  0.00  0.00    +0.000 OA
ATOM     21  H   UNL     1       6.830   8.391  16.523  0.00  0.00    +0.000 HD
BRANCH  18  23
ATOM     22  C   UNL     1       6.967   5.721  15.902  0.00  0.00    +0.000 C 
ATOM     23  C   UNL     1       6.884   6.382  17.282  0.00  0.00    +0.000 C 
BRANCH  23  24
ATOM     24  C   UNL     1       5.500   6.211  17.884  0.00  0.00    +0.000 A 
ATOM     25  C   UNL     1       5.302   5.340  18.966  0.00  0.00    +0.000 A 
ATOM     26  C   UNL     1       4.039   5.190  19.543  0.00  0.00    +0.000 A 
ATOM     27  C   UNL     1       2.953   5.910  19.045  0.00  0.00    +0.000 A 
ATOM     28  C   UNL     1       3.127   6.772  17.967  0.00  0.00    +0.000 A 
ATOM     29  C   UNL     1       4.391   6.920  17.387  0.00  0.00    +0.000 A 
ENDBRANCH  23  24
ENDBRANCH  18  23
ENDBRANCH   1  19
TORSDOF 4
ENDMDL
MODEL 8
REMARK VINA RESULT:      -6.8      1.683      8.729
REMARK  Name = 
REMARK  5 active torsions:
REMARK  status: ('A' for Active; 'I' for Inactive)
REMARK    1  A    between atoms: C_1  and  C_2
REMARK    2  A    between atoms: C_2  and  N_3
REMARK    3  A    between atoms: C_2  and  C_22
REMARK    4  A    between atoms: C_4  and  C_6
REMARK    5  A    between atoms: N_8  and  N_9
REMARK                            x       y       z     vdW  Elec       q    Type
REMARK                         _______ _______ _______ _____ _____    ______ ____
ROOT
ATOM      1  C   UNL     1       7.874   8.982  17.802  0.00  0.00    +0.000 C 
ATOM      2  O   UNL     1       7.050   9.396  17.000  0.00  0.00    +0.000 OA
ATOM      3  N   UNL     1       8.945   9.658  18.368  0.00  0.00    +0.000 N 
ATOM      4  H   UNL     1       9.520   9.144  19.027  0.00  0.00    +0.000 HD
ENDROOT
BRANCH   3   5
ATOM      5  N   UNL     1       9.199  10.966  18.067  0.00  0.00    +0.000 NA
ATOM      6  C   UNL     1       9.746  11.745  18.965  0.00  0.00    +0.000 C 
ATOM      7  C   UNL     1      10.171  11.310  20.365  0.00  0.00    +0.000 C 
ATOM      8  C   UNL     1       8.991  10.855  21.226  0.00  0.00    +0.000 C 
ATOM      9  C   UNL     1       8.829  11.649  22.530  0.00  0.00    +0.000 C 
ATOM     10  C   UNL     1       7.393  12.161  22.732  0.00  0.00    +0.000 C 
ATOM     11  C   UNL     1       7.327  13.677  22.972  0.00  0.00    +0.000 C 
ATOM     12  C   UNL     1       6.463  14.413  21.936  0.00  0.00    +0.000 C 
ATOM     13  C   UNL     1       7.216  15.532  21.197  0.00  0.00    +0.000 C 
ATOM     14  C   UNL     1       7.194  15.369  19.667  0.00  0.00    +0.000 C 
ATOM     15  C   UNL     1       8.599  15.256  19.052  0.00  0.00    +0.000 C 
ATOM     16  C   UNL     1       8.789  13.987  18.201  0.00  0.00    +0.000 C 
ATOM     17  C   UNL     1      10.048  13.189  18.565  0.00  0.00    +0.000 C 
ENDBRANCH   3   5
BRANCH   1  19
ATOM     18  N   UNL     1       6.766   6.787  17.717  0.00  0.00    +0.000 N 
ATOM     19  C   UNL     1       7.792   7.511  18.283  0.00  0.00    +0.000 C 
ATOM     20  O   UNL     1       8.603   7.094  19.101  0.00  0.00    +0.000 OA
ATOM     21  H   UNL     1       6.161   7.290  17.074  0.00  0.00    +0.000 HD
BRANCH  18  23
ATOM     22  C   UNL     1       7.337   4.466  17.071  0.00  0.00    +0.000 C 
ATOM     23  C   UNL     1       6.518   5.380  17.990  0.00  0.00    +0.000 C 
BRANCH  23  24
ATOM     24  C   UNL     1       5.034   5.073  17.877  0.00  0.00    +0.000 A 
ATOM     25  C   UNL     1       4.603   3.816  17.430  0.00  0.00    +0.000 A 
ATOM     26  C   UNL     1       3.243   3.514  17.343  0.00  0.00    +0.000 A 
ATOM     27  C   UNL     1       2.291   4.468  17.701  0.00  0.00    +0.000 A 
ATOM     28  C   UNL     1       2.698   5.724  18.138  0.00  0.00    +0.000 A 
ATOM     29  C   UNL     1       4.060   6.028  18.224  0.00  0.00    +0.000 A 
ENDBRANCH  23  24
ENDBRANCH  18  23
ENDBRANCH   1  19
TORSDOF 4
ENDMDL
MODEL 9
REMARK VINA RESULT:      -6.7      6.958     10.763
REMARK  Name = 
REMARK  5 active torsions:
REMARK  status: ('A' for Active; 'I' for Inactive)
REMARK    1  A    between atoms: C_1  and  C_2
REMARK    2  A    between atoms: C_2  and  N_3
REMARK    3  A    between atoms: C_2  and  C_22
REMARK    4  A    between atoms: C_4  and  C_6
REMARK    5  A    between atoms: N_8  and  N_9
REMARK                            x       y       z     vdW  Elec       q    Type
REMARK                         _______ _______ _______ _____ _____    ______ ____
ROOT
ATOM      1  C   UNL     1      -0.039   9.230  22.032  0.00  0.00    +0.000 C 
ATOM      2  O   UNL     1      -0.974   8.510  22.351  0.00  0.00    +0.000 OA
ATOM      3  N   UNL     1       0.019  10.616  22.020  0.00  0.00    +0.000 N 
ATOM      4  H   UNL     1       0.894  11.039  21.729  0.00  0.00    +0.000 HD
ENDROOT
BRANCH   3   5
ATOM      5  N   UNL     1      -1.048  11.376  22.405  0.00  0.00    +0.000 NA
ATOM      6  C   UNL     1      -1.783  11.969  21.500  0.00  0.00    +0.000 C 
ATOM      7  C   UNL     1      -1.574  11.869  19.992  0.00  0.00    +0.000 C 
ATOM      8  C   UNL     1      -0.236  12.457  19.541  0.00  0.00    +0.000 C 
ATOM      9  C   UNL     1      -0.368  13.589  18.512  0.00  0.00    +0.000 C 
ATOM     10  C   UNL     1       0.436  14.839  18.904  0.00  0.00    +0.000 C 
ATOM     11  C   UNL     1      -0.419  16.116  18.933  0.00  0.00    +0.000 C 
ATOM     12  C   UNL     1      -0.417  16.810  20.304  0.00  0.00    +0.000 C 
ATOM     13  C   UNL     1      -1.826  17.005  20.891  0.00  0.00    +0.000 C 
ATOM     14  C   UNL     1      -1.991  16.383  22.289  0.00  0.00    +0.000 C 
ATOM     15  C   UNL     1      -3.098  15.317  22.349  0.00  0.00    +0.000 C 
ATOM     16  C   UNL     1      -2.605  13.958  22.879  0.00  0.00    +0.000 C 
ATOM     17  C   UNL     1      -2.991  12.775  21.981  0.00  0.00    +0.000 C 
ENDBRANCH   3   5
BRANCH   1  19
ATOM     18  N   UNL     1       1.141   7.761  20.450  0.00  0.00    +0.000 N 
ATOM     19  C   UNL     1       1.283   8.585  21.544  0.00  0.00    +0.000 C 
ATOM     20  O   UNL     1       2.330   8.829  22.132  0.00  0.00    +0.000 OA
ATOM     21  H   UNL     1       0.197   7.641  20.096  0.00  0.00    +0.000 HD
BRANCH  18  23
ATOM     22  C   UNL     1       2.642   7.757  18.480  0.00  0.00    +0.000 C 
ATOM     23  C   UNL     1       2.249   7.079  19.798  0.00  0.00    +0.000 C 
BRANCH  23  24
ATOM     24  C   UNL     1       1.909   5.615  19.575  0.00  0.00    +0.000 A 
ATOM     25  C   UNL     1       1.460   4.823  20.642  0.00  0.00    +0.000 A 
ATOM     26  C   UNL     1       1.124   3.482  20.447  0.00  0.00    +0.000 A 
ATOM     27  C   UNL     1       1.233   2.911  19.179  0.00  0.00    +0.000 A 
ATOM     28  C   UNL     1       1.686   3.678  18.110  0.00  0.00    +0.000 A 
ATOM     29  C   UNL     1       2.025   5.020  18.306  0.00  0.00    +0.000 A 
ENDBRANCH  23  24
ENDBRANCH  18  23
ENDBRANCH   1  19
TORSDOF 4
ENDMDL
