MODEL 1
REMARK VINA RESULT:      -8.0      0.000      0.000
REMARK  Name = 
REMARK  1 active torsions:
REMARK  status: ('A' for Active; 'I' for Inactive)
REMARK    1  A    between atoms: C_13  and  C_14
REMARK                            x       y       z     vdW  Elec       q    Type
REMARK                         _______ _______ _______ _____ _____    ______ ____
ROOT
ATOM      1  O   UNL     1      -0.735  11.091  18.022  0.00  0.00    +0.000 OA
ATOM      2  C   UNL     1      -0.321  10.597  19.065  0.00  0.00    +0.000 C 
ATOM      3  C   UNL     1      -0.784  11.091  20.395  0.00  0.00    +0.000 A 
ATOM      4  C   UNL     1      -1.727  12.130  20.429  0.00  0.00    +0.000 A 
ATOM      5  C   UNL     1      -2.190  12.613  21.652  0.00  0.00    +0.000 A 
ATOM      6  C   UNL     1      -1.715  12.069  22.845  0.00  0.00    +0.000 A 
ATOM      7  C   UNL     1      -0.771  11.038  22.823  0.00  0.00    +0.000 A 
ATOM      8  C   UNL     1      -0.300  10.540  21.599  0.00  0.00    +0.000 A 
ATOM      9  C   UNL     1       0.709   9.428  21.594  0.00  0.00    +0.000 C 
ATOM     10  O   UNL     1       1.127   8.961  22.644  0.00  0.00    +0.000 OA
ATOM     11  C   UNL     1       1.098   9.005  20.274  0.00  0.00    +0.000 A 
ATOM     12  O   UNL     1       2.034   8.042  20.046  0.00  0.00    +0.000 OA
ATOM     13  C   UNL     1       2.169   7.932  18.678  0.00  0.00    +0.000 A 
ATOM     14  C   UNL     1       1.310   8.830  18.062  0.00  0.00    +0.000 A 
ATOM     15  C   UNL     1       0.637   9.523  19.090  0.00  0.00    +0.000 A 
ENDROOT
BRANCH  13  16
ATOM     16  C   UNL     1       3.181   7.080  18.070  0.00  0.00    +0.000 C 
ATOM     17  O   UNL     1       4.003   7.565  17.288  0.00  0.00    +0.000 OA
ATOM     18  N   UNL     1       3.227   5.720  18.384  0.00  0.00    +0.000 N 
ATOM     19  C   UNL     1       4.387   4.937  17.958  0.00  0.00    +0.000 C 
ATOM     20  C   UNL     1       3.996   3.893  16.917  0.00  0.00    +0.000 C 
ATOM     21  C   UNL     1       2.853   3.021  17.431  0.00  0.00    +0.000 C 
ATOM     22  C   UNL     1       1.672   3.882  17.868  0.00  0.00    +0.000 C 
ATOM     23  C   UNL     1       2.089   4.948  18.883  0.00  0.00    +0.000 C 
ENDBRANCH  13  16
TORSDOF 1
ENDMDL
MODEL 2
REMARK VINA RESULT:      -7.8      1.251      2.603
REMARK  Name = 
REMARK  1 active torsions:
REMARK  status: ('A' for Active; 'I' for Inactive)
REMARK    1  A    between atoms: C_13  and  C_14
REMARK                            x       y       z     vdW  Elec       q    Type
REMARK                         _______ _______ _______ _____ _____    ______ ____
ROOT
ATOM      1  O   UNL     1       0.274   9.651  23.599  0.00  0.00    +0.000 OA
ATOM      2  C   UNL     1       0.062   9.987  22.439  0.00  0.00    +0.000 C 
ATOM      3  C   UNL     1      -0.890  11.089  22.112  0.00  0.00    +0.000 A 
ATOM      4  C   UNL     1      -1.530  11.753  23.169  0.00  0.00    +0.000 A 
ATOM      5  C   UNL     1      -2.420  12.793  22.905  0.00  0.00    +0.000 A 
ATOM      6  C   UNL     1      -2.680  13.174  21.589  0.00  0.00    +0.000 A 
ATOM      7  C   UNL     1      -2.052  12.516  20.527  0.00  0.00    +0.000 A 
ATOM      8  C   UNL     1      -1.151  11.471  20.780  0.00  0.00    +0.000 A 
ATOM      9  C   UNL     1      -0.481  10.779  19.628  0.00  0.00    +0.000 C 
ATOM     10  O   UNL     1      -0.720  11.113  18.476  0.00  0.00    +0.000 OA
ATOM     11  C   UNL     1       0.425   9.734  20.028  0.00  0.00    +0.000 A 
ATOM     12  O   UNL     1       1.101   8.954  19.140  0.00  0.00    +0.000 OA
ATOM     13  C   UNL     1       1.836   8.051  19.879  0.00  0.00    +0.000 A 
ATOM     14  C   UNL     1       1.614   8.280  21.228  0.00  0.00    +0.000 A 
ATOM     15  C   UNL     1       0.699   9.350  21.316  0.00  0.00    +0.000 A 
ENDROOT
BRANCH  13  16
ATOM     16  C   UNL     1       2.589   6.973  19.251  0.00  0.00    +0.000 C 
ATOM     17  O   UNL     1       3.188   7.179  18.193  0.00  0.00    +0.000 OA
ATOM     18  N   UNL     1       2.640   5.716  19.856  0.00  0.00    +0.000 N 
ATOM     19  C   UNL     1       3.588   4.727  19.345  0.00  0.00    +0.000 C 
ATOM     20  C   UNL     1       2.864   3.540  18.716  0.00  0.00    +0.000 C 
ATOM     21  C   UNL     1       1.859   2.942  19.698  0.00  0.00    +0.000 C 
ATOM     22  C   UNL     1       0.897   4.012  20.206  0.00  0.00    +0.000 C 
ATOM     23  C   UNL     1       1.641   5.210  20.798  0.00  0.00    +0.000 C 
ENDBRANCH  13  16
TORSDOF 1
ENDMDL
MODEL 3
REMARK VINA RESULT:      -7.7      1.632      2.001
REMARK  Name = 
REMARK  1 active torsions:
REMARK  status: ('A' for Active; 'I' for Inactive)
REMARK    1  A    between atoms: C_13  and  C_14
REMARK                            x       y       z     vdW  Elec       q    Type
REMARK                         _______ _______ _______ _____ _____    ______ ____
ROOT
ATOM      1  O   UNL     1       1.860  10.407  17.426  0.00  0.00    +0.000 OA
ATOM      2  C   UNL     1       1.430  10.035  18.513  0.00  0.00    +0.000 C 
ATOM      3  C   UNL     1       0.553  10.913  19.343  0.00  0.00    +0.000 A 
ATOM      4  C   UNL     1       0.211  12.178  18.842  0.00  0.00    +0.000 A 
ATOM      5  C   UNL     1      -0.612  13.024  19.584  0.00  0.00    +0.000 A 
ATOM      6  C   UNL     1      -1.094  12.618  20.828  0.00  0.00    +0.000 A 
ATOM      7  C   UNL     1      -0.755  11.361  21.339  0.00  0.00    +0.000 A 
ATOM      8  C   UNL     1       0.069  10.499  20.601  0.00  0.00    +0.000 A 
ATOM      9  C   UNL     1       0.418   9.151  21.163  0.00  0.00    +0.000 C 
ATOM     10  O   UNL     1      -0.001   8.804  22.258  0.00  0.00    +0.000 OA
ATOM     11  C   UNL     1       1.261   8.364  20.299  0.00  0.00    +0.000 A 
ATOM     12  O   UNL     1       1.729   7.132  20.637  0.00  0.00    +0.000 OA
ATOM     13  C   UNL     1       2.522   6.705  19.593  0.00  0.00    +0.000 A 
ATOM     14  C   UNL     1       2.538   7.678  18.606  0.00  0.00    +0.000 A 
ATOM     15  C   UNL     1       1.739   8.745  19.071  0.00  0.00    +0.000 A 
ENDROOT
BRANCH  13  16
ATOM     16  C   UNL     1       3.294   5.471  19.665  0.00  0.00    +0.000 C 
ATOM     17  O   UNL     1       4.520   5.507  19.541  0.00  0.00    +0.000 OA
ATOM     18  N   UNL     1       2.644   4.256  19.890  0.00  0.00    +0.000 N 
ATOM     19  C   UNL     1       3.449   3.074  20.198  0.00  0.00    +0.000 C 
ATOM     20  C   UNL     1       3.355   2.035  19.086  0.00  0.00    +0.000 C 
ATOM     21  C   UNL     1       1.896   1.694  18.789  0.00  0.00    +0.000 C 
ATOM     22  C   UNL     1       1.098   2.958  18.479  0.00  0.00    +0.000 C 
ATOM     23  C   UNL     1       1.235   4.003  19.588  0.00  0.00    +0.000 C 
ENDBRANCH  13  16
TORSDOF 1
ENDMDL
MODEL 4
REMARK VINA RESULT:      -7.7      1.992      7.666
REMARK  Name = 
REMARK  1 active torsions:
REMARK  status: ('A' for Active; 'I' for Inactive)
REMARK    1  A    between atoms: C_13  and  C_14
REMARK                            x       y       z     vdW  Elec       q    Type
REMARK                         _______ _______ _______ _____ _____    ______ ____
ROOT
ATOM      1  O   UNL     1       1.220   3.825  21.180  0.00  0.00    +0.000 OA
ATOM      2  C   UNL     1       1.800   4.482  20.322  0.00  0.00    +0.000 C 
ATOM      3  C   UNL     1       2.611   3.823  19.256  0.00  0.00    +0.000 A 
ATOM      4  C   UNL     1       2.683   2.422  19.243  0.00  0.00    +0.000 A 
ATOM      5  C   UNL     1       3.424   1.770  18.258  0.00  0.00    +0.000 A 
ATOM      6  C   UNL     1       4.100   2.507  17.287  0.00  0.00    +0.000 A 
ATOM      7  C   UNL     1       4.040   3.904  17.294  0.00  0.00    +0.000 A 
ATOM      8  C   UNL     1       3.294   4.573  18.276  0.00  0.00    +0.000 A 
ATOM      9  C   UNL     1       3.236   6.073  18.265  0.00  0.00    +0.000 C 
ATOM     10  O   UNL     1       3.838   6.714  17.415  0.00  0.00    +0.000 OA
ATOM     11  C   UNL     1       2.429   6.629  19.320  0.00  0.00    +0.000 A 
ATOM     12  O   UNL     1       2.280   7.968  19.516  0.00  0.00    +0.000 OA
ATOM     13  C   UNL     1       1.477   8.122  20.626  0.00  0.00    +0.000 A 
ATOM     14  C   UNL     1       1.128   6.872  21.113  0.00  0.00    +0.000 A 
ATOM     15  C   UNL     1       1.752   5.920  20.279  0.00  0.00    +0.000 A 
ENDROOT
BRANCH  13  16
ATOM     16  C   UNL     1       1.206   9.431  21.206  0.00  0.00    +0.000 C 
ATOM     17  O   UNL     1       1.387   9.617  22.412  0.00  0.00    +0.000 OA
ATOM     18  N   UNL     1       0.758  10.474  20.393  0.00  0.00    +0.000 N 
ATOM     19  C   UNL     1       0.725  11.830  20.941  0.00  0.00    +0.000 C 
ATOM     20  C   UNL     1      -0.707  12.341  21.065  0.00  0.00    +0.000 C 
ATOM     21  C   UNL     1      -1.437  12.227  19.729  0.00  0.00    +0.000 C 
ATOM     22  C   UNL     1      -1.370  10.798  19.197  0.00  0.00    +0.000 C 
ATOM     23  C   UNL     1       0.070  10.289  19.115  0.00  0.00    +0.000 C 
ENDBRANCH  13  16
TORSDOF 1
ENDMDL
MODEL 5
REMARK VINA RESULT:      -7.6      1.714      2.848
REMARK  Name = 
REMARK  1 active torsions:
REMARK  status: ('A' for Active; 'I' for Inactive)
REMARK    1  A    between atoms: C_13  and  C_14
REMARK                            x       y       z     vdW  Elec       q    Type
REMARK                         _______ _______ _______ _____ _____    ______ ____
ROOT
ATOM      1  O   UNL     1      -0.233   8.844  22.264  0.00  0.00    +0.000 OA
ATOM      2  C   UNL     1       0.260   9.099  21.170  0.00  0.00    +0.000 C 
ATOM      3  C   UNL     1      -0.119  10.329  20.415  0.00  0.00    +0.000 A 
ATOM      4  C   UNL     1      -1.047  11.208  20.994  0.00  0.00    +0.000 A 
ATOM      5  C   UNL     1      -1.420  12.372  20.324  0.00  0.00    +0.000 A 
ATOM      6  C   UNL     1      -0.877  12.664  19.073  0.00  0.00    +0.000 A 
ATOM      7  C   UNL     1       0.044  11.793  18.483  0.00  0.00    +0.000 A 
ATOM      8  C   UNL     1       0.431  10.621  19.150  0.00  0.00    +0.000 A 
ATOM      9  C   UNL     1       1.426   9.699  18.504  0.00  0.00    +0.000 C 
ATOM     10  O   UNL     1       1.892   9.957  17.404  0.00  0.00    +0.000 OA
ATOM     11  C   UNL     1       1.743   8.541  19.299  0.00  0.00    +0.000 A 
ATOM     12  O   UNL     1       2.587   7.558  18.880  0.00  0.00    +0.000 OA
ATOM     13  C   UNL     1       2.619   6.606  19.877  0.00  0.00    +0.000 A 
ATOM     14  C   UNL     1       1.793   7.007  20.916  0.00  0.00    +0.000 A 
ATOM     15  C   UNL     1       1.224   8.240  20.533  0.00  0.00    +0.000 A 
ENDROOT
BRANCH  13  16
ATOM     16  C   UNL     1       3.328   5.344  19.715  0.00  0.00    +0.000 C 
ATOM     17  O   UNL     1       4.521   5.347  19.402  0.00  0.00    +0.000 OA
ATOM     18  N   UNL     1       2.659   4.137  19.928  0.00  0.00    +0.000 N 
ATOM     19  C   UNL     1       3.439   2.902  19.997  0.00  0.00    +0.000 C 
ATOM     20  C   UNL     1       3.122   1.981  18.823  0.00  0.00    +0.000 C 
ATOM     21  C   UNL     1       1.620   1.725  18.731  0.00  0.00    +0.000 C 
ATOM     22  C   UNL     1       0.850   3.041  18.667  0.00  0.00    +0.000 C 
ATOM     23  C   UNL     1       1.209   3.967  19.830  0.00  0.00    +0.000 C 
ENDBRANCH  13  16
TORSDOF 1
ENDMDL
MODEL 6
REMARK VINA RESULT:      -7.5      2.442      7.109
REMARK  Name = 
REMARK  1 active torsions:
REMARK  status: ('A' for Active; 'I' for Inactive)
REMARK    1  A    between atoms: C_13  and  C_14
REMARK                            x       y       z     vdW  Elec       q    Type
REMARK                         _______ _______ _______ _____ _____    ______ ____
ROOT
ATOM      1  O   UNL     1       3.865   7.753  16.345  0.00  0.00    +0.000 OA
ATOM      2  C   UNL     1       3.402   7.347  17.405  0.00  0.00    +0.000 C 
ATOM      3  C   UNL     1       3.741   5.991  17.931  0.00  0.00    +0.000 A 
ATOM      4  C   UNL     1       4.621   5.189  17.191  0.00  0.00    +0.000 A 
ATOM      5  C   UNL     1       4.968   3.920  17.653  0.00  0.00    +0.000 A 
ATOM      6  C   UNL     1       4.436   3.443  18.850  0.00  0.00    +0.000 A 
ATOM      7  C   UNL     1       3.552   4.231  19.594  0.00  0.00    +0.000 A 
ATOM      8  C   UNL     1       3.199   5.511  19.141  0.00  0.00    +0.000 A 
ATOM      9  C   UNL     1       2.253   6.346  19.955  0.00  0.00    +0.000 C 
ATOM     10  O   UNL     1       1.784   5.917  21.000  0.00  0.00    +0.000 OA
ATOM     11  C   UNL     1       1.984   7.640  19.384  0.00  0.00    +0.000 A 
ATOM     12  O   UNL     1       1.120   8.534  19.938  0.00  0.00    +0.000 OA
ATOM     13  C   UNL     1       1.092   9.632  19.104  0.00  0.00    +0.000 A 
ATOM     14  C   UNL     1       1.945   9.413  18.034  0.00  0.00    +0.000 A 
ATOM     15  C   UNL     1       2.503   8.130  18.212  0.00  0.00    +0.000 A 
ENDROOT
BRANCH  13  16
ATOM     16  C   UNL     1       0.173  10.742  19.322  0.00  0.00    +0.000 C 
ATOM     17  O   UNL     1       0.299  11.455  20.321  0.00  0.00    +0.000 OA
ATOM     18  N   UNL     1      -0.837  11.002  18.394  0.00  0.00    +0.000 N 
ATOM     19  C   UNL     1      -1.589  12.252  18.503  0.00  0.00    +0.000 C 
ATOM     20  C   UNL     1      -3.048  11.989  18.860  0.00  0.00    +0.000 C 
ATOM     21  C   UNL     1      -3.676  11.008  17.874  0.00  0.00    +0.000 C 
ATOM     22  C   UNL     1      -2.854   9.725  17.791  0.00  0.00    +0.000 C 
ATOM     23  C   UNL     1      -1.386  10.010  17.470  0.00  0.00    +0.000 C 
ENDBRANCH  13  16
TORSDOF 1
ENDMDL
MODEL 7
REMARK VINA RESULT:      -7.4      1.994      7.439
REMARK  Name = 
REMARK  1 active torsions:
REMARK  status: ('A' for Active; 'I' for Inactive)
REMARK    1  A    between atoms: C_13  and  C_14
REMARK                            x       y       z     vdW  Elec       q    Type
REMARK                         _______ _______ _______ _____ _____    ______ ____
ROOT
ATOM      1  O   UNL     1       3.864   6.419  17.209  0.00  0.00    +0.000 OA
ATOM      2  C   UNL     1       3.287   5.856  18.134  0.00  0.00    +0.000 C 
ATOM      3  C   UNL     1       3.269   4.367  18.244  0.00  0.00    +0.000 A 
ATOM      4  C   UNL     1       3.945   3.617  17.271  0.00  0.00    +0.000 A 
ATOM      5  C   UNL     1       3.958   2.225  17.345  0.00  0.00    +0.000 A 
ATOM      6  C   UNL     1       3.293   1.574  18.383  0.00  0.00    +0.000 A 
ATOM      7  C   UNL     1       2.610   2.310  19.356  0.00  0.00    +0.000 A 
ATOM      8  C   UNL     1       2.594   3.712  19.295  0.00  0.00    +0.000 A 
ATOM      9  C   UNL     1       1.860   4.488  20.351  0.00  0.00    +0.000 C 
ATOM     10  O   UNL     1       1.272   3.909  21.254  0.00  0.00    +0.000 OA
ATOM     11  C   UNL     1       1.932   5.915  20.176  0.00  0.00    +0.000 A 
ATOM     12  O   UNL     1       1.300   6.799  20.996  0.00  0.00    +0.000 OA
ATOM     13  C   UNL     1       1.564   8.060  20.504  0.00  0.00    +0.000 A 
ATOM     14  C   UNL     1       2.365   7.951  19.378  0.00  0.00    +0.000 A 
ATOM     15  C   UNL     1       2.586   6.573  19.166  0.00  0.00    +0.000 A 
ENDROOT
BRANCH  13  16
ATOM     16  C   UNL     1       0.939   9.251  21.064  0.00  0.00    +0.000 C 
ATOM     17  O   UNL     1       0.819   9.364  22.286  0.00  0.00    +0.000 OA
ATOM     18  N   UNL     1       0.492  10.267  20.216  0.00  0.00    +0.000 N 
ATOM     19  C   UNL     1       0.094  11.547  20.800  0.00  0.00    +0.000 C 
ATOM     20  C   UNL     1      -1.400  11.796  20.619  0.00  0.00    +0.000 C 
ATOM     21  C   UNL     1      -1.792  11.671  19.149  0.00  0.00    +0.000 C 
ATOM     22  C   UNL     1      -1.351  10.324  18.584  0.00  0.00    +0.000 C 
ATOM     23  C   UNL     1       0.141  10.074  18.809  0.00  0.00    +0.000 C 
ENDBRANCH  13  16
TORSDOF 1
ENDMDL
MODEL 8
REMARK VINA RESULT:      -7.3      1.194      1.290
REMARK  Name = 
REMARK  1 active torsions:
REMARK  status: ('A' for Active; 'I' for Inactive)
REMARK    1  A    between atoms: C_13  and  C_14
REMARK                            x       y       z     vdW  Elec       q    Type
REMARK                         _______ _______ _______ _____ _____    ______ ____
ROOT
ATOM      1  O   UNL     1      -0.256  11.798  18.485  0.00  0.00    +0.000 OA
ATOM      2  C   UNL     1      -0.190  11.203  19.556  0.00  0.00    +0.000 C 
ATOM      3  C   UNL     1      -0.829  11.752  20.788  0.00  0.00    +0.000 A 
ATOM      4  C   UNL     1      -1.529  12.963  20.694  0.00  0.00    +0.000 A 
ATOM      5  C   UNL     1      -2.147  13.503  21.822  0.00  0.00    +0.000 A 
ATOM      6  C   UNL     1      -2.064  12.844  23.047  0.00  0.00    +0.000 A 
ATOM      7  C   UNL     1      -1.363  11.639  23.155  0.00  0.00    +0.000 A 
ATOM      8  C   UNL     1      -0.742  11.083  22.027  0.00  0.00    +0.000 A 
ATOM      9  C   UNL     1       0.002   9.784  22.158  0.00  0.00    +0.000 C 
ATOM     10  O   UNL     1       0.077   9.216  23.239  0.00  0.00    +0.000 OA
ATOM     11  C   UNL     1       0.582   9.322  20.924  0.00  0.00    +0.000 A 
ATOM     12  O   UNL     1       1.334   8.190  20.833  0.00  0.00    +0.000 OA
ATOM     13  C   UNL     1       1.743   8.087  19.520  0.00  0.00    +0.000 A 
ATOM     14  C   UNL     1       1.238   9.159  18.800  0.00  0.00    +0.000 A 
ATOM     15  C   UNL     1       0.506   9.953  19.709  0.00  0.00    +0.000 A 
ENDROOT
BRANCH  13  16
ATOM     16  C   UNL     1       2.675   7.056  19.083  0.00  0.00    +0.000 C 
ATOM     17  O   UNL     1       3.388   7.253  18.096  0.00  0.00    +0.000 OA
ATOM     18  N   UNL     1       2.769   5.856  19.790  0.00  0.00    +0.000 N 
ATOM     19  C   UNL     1       3.869   4.943  19.485  0.00  0.00    +0.000 C 
ATOM     20  C   UNL     1       3.356   3.645  18.869  0.00  0.00    +0.000 C 
ATOM     21  C   UNL     1       2.293   3.010  19.762  0.00  0.00    +0.000 C 
ATOM     22  C   UNL     1       1.171   4.002  20.057  0.00  0.00    +0.000 C 
ATOM     23  C   UNL     1       1.708   5.311  20.637  0.00  0.00    +0.000 C 
ENDBRANCH  13  16
TORSDOF 1
ENDMDL
MODEL 9
REMARK VINA RESULT:      -7.2      1.873      7.398
REMARK  Name = 
REMARK  1 active torsions:
REMARK  status: ('A' for Active; 'I' for Inactive)
REMARK    1  A    between atoms: C_13  and  C_14
REMARK                            x       y       z     vdW  Elec       q    Type
REMARK                         _______ _______ _______ _____ _____    ______ ____
ROOT
ATOM      1  O   UNL     1       4.224   6.359  16.679  0.00  0.00    +0.000 OA
ATOM      2  C   UNL     1       3.576   5.976  17.647  0.00  0.00    +0.000 C 
ATOM      3  C   UNL     1       3.539   4.535  18.034  0.00  0.00    +0.000 A 
ATOM      4  C   UNL     1       4.281   3.620  17.273  0.00  0.00    +0.000 A 
ATOM      5  C   UNL     1       4.278   2.267  17.609  0.00  0.00    +0.000 A 
ATOM      6  C   UNL     1       3.532   1.818  18.698  0.00  0.00    +0.000 A 
ATOM      7  C   UNL     1       2.784   2.720  19.460  0.00  0.00    +0.000 A 
ATOM      8  C   UNL     1       2.782   4.084  19.136  0.00  0.00    +0.000 A 
ATOM      9  C   UNL     1       1.977   5.040  19.969  0.00  0.00    +0.000 C 
ATOM     10  O   UNL     1       1.319   4.638  20.918  0.00  0.00    +0.000 OA
ATOM     11  C   UNL     1       2.073   6.409  19.534  0.00  0.00    +0.000 A 
ATOM     12  O   UNL     1       1.387   7.428  20.123  0.00  0.00    +0.000 OA
ATOM     13  C   UNL     1       1.696   8.575  19.424  0.00  0.00    +0.000 A 
ATOM     14  C   UNL     1       2.579   8.262  18.402  0.00  0.00    +0.000 A 
ATOM     15  C   UNL     1       2.806   6.871  18.470  0.00  0.00    +0.000 A 
ENDROOT
BRANCH  13  16
ATOM     16  C   UNL     1       1.040   9.846  19.701  0.00  0.00    +0.000 C 
ATOM     17  O   UNL     1       1.441  10.875  19.152  0.00  0.00    +0.000 OA
ATOM     18  N   UNL     1      -0.048   9.893  20.574  0.00  0.00    +0.000 N 
ATOM     19  C   UNL     1      -0.837  11.122  20.651  0.00  0.00    +0.000 C 
ATOM     20  C   UNL     1      -0.698  11.783  22.019  0.00  0.00    +0.000 C 
ATOM     21  C   UNL     1      -1.036  10.795  23.132  0.00  0.00    +0.000 C 
ATOM     22  C   UNL     1      -0.193   9.529  23.005  0.00  0.00    +0.000 C 
ATOM     23  C   UNL     1      -0.315   8.901  21.616  0.00  0.00    +0.000 C 
ENDBRANCH  13  16
TORSDOF 1
ENDMDL
