MODEL 1
REMARK VINA RESULT:      -7.0      0.000      0.000
REMARK  Name = 
REMARK  6 active torsions:
REMARK  status: ('A' for Active; 'I' for Inactive)
REMARK    1  A    between atoms: C_1  and  N_2
REMARK    2  A    between atoms: N_2  and  C_3
REMARK    3  A    between atoms: C_4  and  C_6
REMARK    4  A    between atoms: C_11  and  C_12
REMARK    5  A    between atoms: N_14  and  C_15
REMARK    6  A    between atoms: N_22  and  C_23
REMARK                            x       y       z     vdW  Elec       q    Type
REMARK                         _______ _______ _______ _____ _____    ______ ____
ROOT
ATOM      1  C   UNL     1       1.052   9.359  20.213  0.00  0.00    +0.000 A 
ATOM      2  C   UNL     1       0.989   8.189  20.960  0.00  0.00    +0.000 A 
ATOM      3  C   UNL     1       1.735   7.191  20.308  0.00  0.00    +0.000 A 
ATOM      4  N   UNL     1       2.006   5.932  20.722  0.00  0.00    +0.000 NA
ATOM      5  C   UNL     1       2.740   5.191  19.855  0.00  0.00    +0.000 A 
ATOM      6  C   UNL     1       3.206   5.611  18.614  0.00  0.00    +0.000 A 
ATOM      7  C   UNL     1       2.910   6.922  18.212  0.00  0.00    +0.000 A 
ATOM      8  C   UNL     1       2.176   7.717  19.102  0.00  0.00    +0.000 A 
ATOM      9  N   UNL     1       1.756   9.033  19.059  0.00  0.00    +0.000 N 
ATOM     10  C   UNL     1       2.112   9.954  17.994  0.00  0.00    +0.000 C 
ENDROOT
BRANCH   1  14
ATOM     11  C   UNL     1      -1.157  12.425  20.047  0.00  0.00    +0.000 C 
ATOM     12  N   UNL     1      -0.645  11.092  19.781  0.00  0.00    +0.000 N 
ATOM     13  C   UNL     1      -1.426  10.275  18.865  0.00  0.00    +0.000 C 
ATOM     14  C   UNL     1       0.480  10.670  20.503  0.00  0.00    +0.000 C 
ATOM     15  O   UNL     1       0.977  11.399  21.365  0.00  0.00    +0.000 OA
ENDBRANCH   1  14
BRANCH   6  16
ATOM     16  C   UNL     1       3.986   4.752  17.677  0.00  0.00    +0.000 C 
ATOM     17  O   UNL     1       3.827   3.530  17.712  0.00  0.00    +0.000 OA
ATOM     18  N   UNL     1       4.878   5.348  16.804  0.00  0.00    +0.000 N 
ATOM     19  H   UNL     1       4.890   6.347  16.670  0.00  0.00    +0.000 HD
BRANCH  18  20
ATOM     20  C   UNL     1       5.646   4.544  15.868  0.00  0.00    +0.000 C 
ATOM     21  C   UNL     1       4.944   4.364  14.527  0.00  0.00    +0.000 C 
ATOM     22  C   UNL     1       6.063   3.931  13.586  0.00  0.00    +0.000 C 
ATOM     23  C   UNL     1       7.341   4.561  14.138  0.00  0.00    +0.000 C 
ATOM     24  C   UNL     1       6.967   5.198  15.474  0.00  0.00    +0.000 C 
ENDBRANCH  18  20
ENDBRANCH   6  16
TORSDOF 3
ENDMDL
MODEL 2
REMARK VINA RESULT:      -6.9      2.525      8.448
REMARK  Name = 
REMARK  6 active torsions:
REMARK  status: ('A' for Active; 'I' for Inactive)
REMARK    1  A    between atoms: C_1  and  N_2
REMARK    2  A    between atoms: N_2  and  C_3
REMARK    3  A    between atoms: C_4  and  C_6
REMARK    4  A    between atoms: C_11  and  C_12
REMARK    5  A    between atoms: N_14  and  C_15
REMARK    6  A    between atoms: N_22  and  C_23
REMARK                            x       y       z     vdW  Elec       q    Type
REMARK                         _______ _______ _______ _____ _____    ______ ____
ROOT
ATOM      1  C   UNL     1       3.627   5.110  18.757  0.00  0.00    +0.000 A 
ATOM      2  C   UNL     1       3.838   6.027  17.734  0.00  0.00    +0.000 A 
ATOM      3  C   UNL     1       3.096   7.190  18.004  0.00  0.00    +0.000 A 
ATOM      4  N   UNL     1       3.071   8.355  17.316  0.00  0.00    +0.000 NA
ATOM      5  C   UNL     1       2.231   9.295  17.816  0.00  0.00    +0.000 A 
ATOM      6  C   UNL     1       1.415   9.150  18.932  0.00  0.00    +0.000 A 
ATOM      7  C   UNL     1       1.463   7.931  19.625  0.00  0.00    +0.000 A 
ATOM      8  C   UNL     1       2.344   6.953  19.145  0.00  0.00    +0.000 A 
ATOM      9  N   UNL     1       2.677   5.689  19.592  0.00  0.00    +0.000 N 
ATOM     10  C   UNL     1       2.172   5.115  20.827  0.00  0.00    +0.000 C 
ENDROOT
BRANCH   1  14
ATOM     11  C   UNL     1       4.049   1.352  18.823  0.00  0.00    +0.000 C 
ATOM     12  N   UNL     1       3.469   2.658  18.570  0.00  0.00    +0.000 N 
ATOM     13  C   UNL     1       2.209   2.671  17.842  0.00  0.00    +0.000 C 
ATOM     14  C   UNL     1       4.212   3.787  18.945  0.00  0.00    +0.000 C 
ATOM     15  O   UNL     1       5.340   3.657  19.426  0.00  0.00    +0.000 OA
ENDBRANCH   1  14
BRANCH   6  16
ATOM     16  C   UNL     1       0.481  10.201  19.430  0.00  0.00    +0.000 C 
ATOM     17  O   UNL     1      -0.209  10.822  18.619  0.00  0.00    +0.000 OA
ATOM     18  N   UNL     1       0.424  10.460  20.788  0.00  0.00    +0.000 N 
ATOM     19  H   UNL     1       0.867   9.849  21.455  0.00  0.00    +0.000 HD
BRANCH  18  20
ATOM     20  C   UNL     1      -0.483  11.468  21.311  0.00  0.00    +0.000 C 
ATOM     21  C   UNL     1      -1.011  11.126  22.700  0.00  0.00    +0.000 C 
ATOM     22  C   UNL     1      -1.524  12.460  23.232  0.00  0.00    +0.000 C 
ATOM     23  C   UNL     1      -0.672  13.535  22.559  0.00  0.00    +0.000 C 
ATOM     24  C   UNL     1       0.195  12.817  21.528  0.00  0.00    +0.000 C 
ENDBRANCH  18  20
ENDBRANCH   6  16
TORSDOF 3
ENDMDL
MODEL 3
REMARK VINA RESULT:      -6.9      2.138      9.084
REMARK  Name = 
REMARK  6 active torsions:
REMARK  status: ('A' for Active; 'I' for Inactive)
REMARK    1  A    between atoms: C_1  and  N_2
REMARK    2  A    between atoms: N_2  and  C_3
REMARK    3  A    between atoms: C_4  and  C_6
REMARK    4  A    between atoms: C_11  and  C_12
REMARK    5  A    between atoms: N_14  and  C_15
REMARK    6  A    between atoms: N_22  and  C_23
REMARK                            x       y       z     vdW  Elec       q    Type
REMARK                         _______ _______ _______ _____ _____    ______ ____
ROOT
ATOM      1  C   UNL     1       2.628   6.449  18.395  0.00  0.00    +0.000 A 
ATOM      2  C   UNL     1       2.368   7.676  17.798  0.00  0.00    +0.000 A 
ATOM      3  C   UNL     1       1.825   8.546  18.760  0.00  0.00    +0.000 A 
ATOM      4  N   UNL     1       1.502   9.853  18.631  0.00  0.00    +0.000 NA
ATOM      5  C   UNL     1       0.972  10.423  19.742  0.00  0.00    +0.000 A 
ATOM      6  C   UNL     1       0.733   9.783  20.952  0.00  0.00    +0.000 A 
ATOM      7  C   UNL     1       1.079   8.427  21.057  0.00  0.00    +0.000 A 
ATOM      8  C   UNL     1       1.654   7.822  19.931  0.00  0.00    +0.000 A 
ATOM      9  N   UNL     1       2.147   6.553  19.696  0.00  0.00    +0.000 N 
ATOM     10  C   UNL     1       2.239   5.526  20.719  0.00  0.00    +0.000 C 
ENDROOT
BRANCH   1  14
ATOM     11  C   UNL     1       5.185   4.049  16.979  0.00  0.00    +0.000 C 
ATOM     12  N   UNL     1       4.618   5.228  17.610  0.00  0.00    +0.000 N 
ATOM     13  C   UNL     1       5.567   6.230  18.069  0.00  0.00    +0.000 C 
ATOM     14  C   UNL     1       3.232   5.252  17.819  0.00  0.00    +0.000 C 
ATOM     15  O   UNL     1       2.540   4.277  17.518  0.00  0.00    +0.000 OA
ENDBRANCH   1  14
BRANCH   6  16
ATOM     16  C   UNL     1       0.119  10.441  22.142  0.00  0.00    +0.000 C 
ATOM     17  O   UNL     1       0.389  10.015  23.267  0.00  0.00    +0.000 OA
ATOM     18  N   UNL     1      -0.748  11.502  21.951  0.00  0.00    +0.000 N 
ATOM     19  H   UNL     1      -0.841  11.943  21.050  0.00  0.00    +0.000 HD
BRANCH  18  20
ATOM     20  C   UNL     1      -1.354  12.175  23.087  0.00  0.00    +0.000 C 
ATOM     21  C   UNL     1      -1.044  13.668  23.126  0.00  0.00    +0.000 C 
ATOM     22  C   UNL     1      -2.108  14.236  24.058  0.00  0.00    +0.000 C 
ATOM     23  C   UNL     1      -3.321  13.318  23.917  0.00  0.00    +0.000 C 
ATOM     24  C   UNL     1      -2.879  12.147  23.044  0.00  0.00    +0.000 C 
ENDBRANCH  18  20
ENDBRANCH   6  16
TORSDOF 3
ENDMDL
MODEL 4
REMARK VINA RESULT:      -6.9      2.409      9.042
REMARK  Name = 
REMARK  6 active torsions:
REMARK  status: ('A' for Active; 'I' for Inactive)
REMARK    1  A    between atoms: C_1  and  N_2
REMARK    2  A    between atoms: N_2  and  C_3
REMARK    3  A    between atoms: C_4  and  C_6
REMARK    4  A    between atoms: C_11  and  C_12
REMARK    5  A    between atoms: N_14  and  C_15
REMARK    6  A    between atoms: N_22  and  C_23
REMARK                            x       y       z     vdW  Elec       q    Type
REMARK                         _______ _______ _______ _____ _____    ______ ____
ROOT
ATOM      1  C   UNL     1       2.835   6.514  18.586  0.00  0.00    +0.000 A 
ATOM      2  C   UNL     1       2.527   7.713  17.955  0.00  0.00    +0.000 A 
ATOM      3  C   UNL     1       1.892   8.564  18.878  0.00  0.00    +0.000 A 
ATOM      4  N   UNL     1       1.496   9.846  18.711  0.00  0.00    +0.000 NA
ATOM      5  C   UNL     1       0.886  10.401  19.788  0.00  0.00    +0.000 A 
ATOM      6  C   UNL     1       0.636   9.767  21.000  0.00  0.00    +0.000 A 
ATOM      7  C   UNL     1       1.059   8.437  21.144  0.00  0.00    +0.000 A 
ATOM      8  C   UNL     1       1.716   7.850  20.054  0.00  0.00    +0.000 A 
ATOM      9  N   UNL     1       2.295   6.610  19.864  0.00  0.00    +0.000 N 
ATOM     10  C   UNL     1       2.405   5.607  20.909  0.00  0.00    +0.000 C 
ENDROOT
BRANCH   1  14
ATOM     11  C   UNL     1       3.519   3.036  17.266  0.00  0.00    +0.000 C 
ATOM     12  N   UNL     1       2.792   4.203  17.732  0.00  0.00    +0.000 N 
ATOM     13  C   UNL     1       1.341   4.108  17.709  0.00  0.00    +0.000 C 
ATOM     14  C   UNL     1       3.534   5.347  18.058  0.00  0.00    +0.000 C 
ATOM     15  O   UNL     1       4.757   5.361  17.901  0.00  0.00    +0.000 OA
ENDBRANCH   1  14
BRANCH   6  16
ATOM     16  C   UNL     1      -0.066  10.405  22.150  0.00  0.00    +0.000 C 
ATOM     17  O   UNL     1       0.148   9.986  23.290  0.00  0.00    +0.000 OA
ATOM     18  N   UNL     1      -0.950  11.442  21.908  0.00  0.00    +0.000 N 
ATOM     19  H   UNL     1      -1.003  11.881  21.002  0.00  0.00    +0.000 HD
BRANCH  18  20
ATOM     20  C   UNL     1      -1.642  12.096  23.005  0.00  0.00    +0.000 C 
ATOM     21  C   UNL     1      -1.137  13.511  23.265  0.00  0.00    +0.000 C 
ATOM     22  C   UNL     1      -2.254  14.152  24.079  0.00  0.00    +0.000 C 
ATOM     23  C   UNL     1      -3.543  13.455  23.645  0.00  0.00    +0.000 C 
ATOM     24  C   UNL     1      -3.126  12.312  22.721  0.00  0.00    +0.000 C 
ENDBRANCH  18  20
ENDBRANCH   6  16
TORSDOF 3
ENDMDL
MODEL 5
REMARK VINA RESULT:      -6.8      2.263      8.107
REMARK  Name = 
REMARK  6 active torsions:
REMARK  status: ('A' for Active; 'I' for Inactive)
REMARK    1  A    between atoms: C_1  and  N_2
REMARK    2  A    between atoms: N_2  and  C_3
REMARK    3  A    between atoms: C_4  and  C_6
REMARK    4  A    between atoms: C_11  and  C_12
REMARK    5  A    between atoms: N_14  and  C_15
REMARK    6  A    between atoms: N_22  and  C_23
REMARK                            x       y       z     vdW  Elec       q    Type
REMARK                         _______ _______ _______ _____ _____    ______ ____
ROOT
ATOM      1  C   UNL     1       6.125   4.877  15.727  0.00  0.00    +0.000 A 
ATOM      2  C   UNL     1       6.122   3.937  16.751  0.00  0.00    +0.000 A 
ATOM      3  C   UNL     1       5.147   4.298  17.698  0.00  0.00    +0.000 A 
ATOM      4  N   UNL     1       4.756   3.626  18.805  0.00  0.00    +0.000 NA
ATOM      5  C   UNL     1       3.798   4.246  19.540  0.00  0.00    +0.000 A 
ATOM      6  C   UNL     1       3.223   5.479  19.257  0.00  0.00    +0.000 A 
ATOM      7  C   UNL     1       3.648   6.151  18.101  0.00  0.00    +0.000 A 
ATOM      8  C   UNL     1       4.616   5.519  17.310  0.00  0.00    +0.000 A 
ATOM      9  N   UNL     1       5.217   5.858  16.112  0.00  0.00    +0.000 N 
ATOM     10  C   UNL     1       4.849   7.026  15.332  0.00  0.00    +0.000 C 
ENDROOT
BRANCH   1  14
ATOM     11  C   UNL     1       7.309   4.200  12.199  0.00  0.00    +0.000 C 
ATOM     12  N   UNL     1       6.467   4.203  13.382  0.00  0.00    +0.000 N 
ATOM     13  C   UNL     1       5.168   3.563  13.248  0.00  0.00    +0.000 C 
ATOM     14  C   UNL     1       6.922   4.908  14.506  0.00  0.00    +0.000 C 
ATOM     15  O   UNL     1       7.981   5.539  14.457  0.00  0.00    +0.000 OA
ENDBRANCH   1  14
BRANCH   6  16
ATOM     16  C   UNL     1       2.192   6.139  20.110  0.00  0.00    +0.000 C 
ATOM     17  O   UNL     1       1.513   5.447  20.871  0.00  0.00    +0.000 OA
ATOM     18  N   UNL     1       2.017   7.508  20.015  0.00  0.00    +0.000 N 
ATOM     19  H   UNL     1       2.675   8.084  19.514  0.00  0.00    +0.000 HD
BRANCH  18  20
ATOM     20  C   UNL     1       1.032   8.186  20.840  0.00  0.00    +0.000 C 
ATOM     21  C   UNL     1       1.633   8.790  22.105  0.00  0.00    +0.000 C 
ATOM     22  C   UNL     1       0.591   9.809  22.552  0.00  0.00    +0.000 C 
ATOM     23  C   UNL     1      -0.111  10.276  21.278  0.00  0.00    +0.000 C 
ATOM     24  C   UNL     1       0.415   9.398  20.146  0.00  0.00    +0.000 C 
ENDBRANCH  18  20
ENDBRANCH   6  16
TORSDOF 3
ENDMDL
MODEL 6
REMARK VINA RESULT:      -6.8      1.306      1.616
REMARK  Name = 
REMARK  6 active torsions:
REMARK  status: ('A' for Active; 'I' for Inactive)
REMARK    1  A    between atoms: C_1  and  N_2
REMARK    2  A    between atoms: N_2  and  C_3
REMARK    3  A    between atoms: C_4  and  C_6
REMARK    4  A    between atoms: C_11  and  C_12
REMARK    5  A    between atoms: N_14  and  C_15
REMARK    6  A    between atoms: N_22  and  C_23
REMARK                            x       y       z     vdW  Elec       q    Type
REMARK                         _______ _______ _______ _____ _____    ______ ____
ROOT
ATOM      1  C   UNL     1       0.621  10.799  20.580  0.00  0.00    +0.000 A 
ATOM      2  C   UNL     1       0.457   9.655  21.353  0.00  0.00    +0.000 A 
ATOM      3  C   UNL     1       1.084   8.575  20.707  0.00  0.00    +0.000 A 
ATOM      4  N   UNL     1       1.235   7.303  21.142  0.00  0.00    +0.000 NA
ATOM      5  C   UNL     1       1.873   6.476  20.277  0.00  0.00    +0.000 A 
ATOM      6  C   UNL     1       2.351   6.823  19.019  0.00  0.00    +0.000 A 
ATOM      7  C   UNL     1       2.181   8.150  18.595  0.00  0.00    +0.000 A 
ATOM      8  C   UNL     1       1.550   9.031  19.482  0.00  0.00    +0.000 A 
ATOM      9  N   UNL     1       1.264  10.382  19.420  0.00  0.00    +0.000 N 
ATOM     10  C   UNL     1       1.687  11.242  18.329  0.00  0.00    +0.000 C 
ENDROOT
BRANCH   1  14
ATOM     11  C   UNL     1      -1.359  14.021  20.495  0.00  0.00    +0.000 C 
ATOM     12  N   UNL     1      -0.986  12.638  20.255  0.00  0.00    +0.000 N 
ATOM     13  C   UNL     1      -1.938  11.839  19.500  0.00  0.00    +0.000 C 
ATOM     14  C   UNL     1       0.191  12.166  20.854  0.00  0.00    +0.000 C 
ATOM     15  O   UNL     1       0.848  12.899  21.597  0.00  0.00    +0.000 OA
ENDBRANCH   1  14
BRANCH   6  16
ATOM     16  C   UNL     1       3.021   5.872  18.085  0.00  0.00    +0.000 C 
ATOM     17  O   UNL     1       2.411   4.868  17.714  0.00  0.00    +0.000 OA
ATOM     18  N   UNL     1       4.314   6.136  17.670  0.00  0.00    +0.000 N 
ATOM     19  H   UNL     1       4.748   7.028  17.847  0.00  0.00    +0.000 HD
BRANCH  18  20
ATOM     20  C   UNL     1       4.993   5.239  16.750  0.00  0.00    +0.000 C 
ATOM     21  C   UNL     1       5.334   5.901  15.420  0.00  0.00    +0.000 C 
ATOM     22  C   UNL     1       6.407   4.994  14.827  0.00  0.00    +0.000 C 
ATOM     23  C   UNL     1       7.132   4.368  16.018  0.00  0.00    +0.000 C 
ATOM     24  C   UNL     1       6.358   4.788  17.265  0.00  0.00    +0.000 C 
ENDBRANCH  18  20
ENDBRANCH   6  16
TORSDOF 3
ENDMDL
MODEL 7
REMARK VINA RESULT:      -6.7      2.540      8.496
REMARK  Name = 
REMARK  6 active torsions:
REMARK  status: ('A' for Active; 'I' for Inactive)
REMARK    1  A    between atoms: C_1  and  N_2
REMARK    2  A    between atoms: N_2  and  C_3
REMARK    3  A    between atoms: C_4  and  C_6
REMARK    4  A    between atoms: C_11  and  C_12
REMARK    5  A    between atoms: N_14  and  C_15
REMARK    6  A    between atoms: N_22  and  C_23
REMARK                            x       y       z     vdW  Elec       q    Type
REMARK                         _______ _______ _______ _____ _____    ______ ____
ROOT
ATOM      1  C   UNL     1       3.380   5.247  18.758  0.00  0.00    +0.000 A 
ATOM      2  C   UNL     1       3.454   6.127  17.685  0.00  0.00    +0.000 A 
ATOM      3  C   UNL     1       2.857   7.346  18.052  0.00  0.00    +0.000 A 
ATOM      4  N   UNL     1       2.780   8.496  17.345  0.00  0.00    +0.000 NA
ATOM      5  C   UNL     1       2.115   9.504  17.964  0.00  0.00    +0.000 A 
ATOM      6  C   UNL     1       1.519   9.438  19.217  0.00  0.00    +0.000 A 
ATOM      7  C   UNL     1       1.616   8.232  19.928  0.00  0.00    +0.000 A 
ATOM      8  C   UNL     1       2.321   7.184  19.322  0.00  0.00    +0.000 A 
ATOM      9  N   UNL     1       2.648   5.908  19.739  0.00  0.00    +0.000 N 
ATOM     10  C   UNL     1       2.350   5.396  21.064  0.00  0.00    +0.000 C 
ENDROOT
BRANCH   1  14
ATOM     11  C   UNL     1       3.570   1.469  18.781  0.00  0.00    +0.000 C 
ATOM     12  N   UNL     1       3.046   2.811  18.599  0.00  0.00    +0.000 N 
ATOM     13  C   UNL     1       1.708   2.907  18.035  0.00  0.00    +0.000 C 
ATOM     14  C   UNL     1       3.899   3.888  18.875  0.00  0.00    +0.000 C 
ATOM     15  O   UNL     1       5.069   3.686  19.211  0.00  0.00    +0.000 OA
ENDBRANCH   1  14
BRANCH   6  16
ATOM     16  C   UNL     1       0.770  10.563  19.849  0.00  0.00    +0.000 C 
ATOM     17  O   UNL     1       0.784  11.670  19.307  0.00  0.00    +0.000 OA
ATOM     18  N   UNL     1       0.091  10.338  21.033  0.00  0.00    +0.000 N 
ATOM     19  H   UNL     1      -0.048   9.404  21.385  0.00  0.00    +0.000 HD
BRANCH  18  20
ATOM     20  C   UNL     1      -0.660  11.406  21.670  0.00  0.00    +0.000 C 
ATOM     21  C   UNL     1      -1.895  11.818  20.875  0.00  0.00    +0.000 C 
ATOM     22  C   UNL     1      -2.751  12.563  21.894  0.00  0.00    +0.000 C 
ATOM     23  C   UNL     1      -2.410  11.953  23.253  0.00  0.00    +0.000 C 
ATOM     24  C   UNL     1      -1.246  10.994  23.017  0.00  0.00    +0.000 C 
ENDBRANCH  18  20
ENDBRANCH   6  16
TORSDOF 3
ENDMDL
MODEL 8
REMARK VINA RESULT:      -6.6      1.980      3.164
REMARK  Name = 
REMARK  6 active torsions:
REMARK  status: ('A' for Active; 'I' for Inactive)
REMARK    1  A    between atoms: C_1  and  N_2
REMARK    2  A    between atoms: N_2  and  C_3
REMARK    3  A    between atoms: C_4  and  C_6
REMARK    4  A    between atoms: C_11  and  C_12
REMARK    5  A    between atoms: N_14  and  C_15
REMARK    6  A    between atoms: N_22  and  C_23
REMARK                            x       y       z     vdW  Elec       q    Type
REMARK                         _______ _______ _______ _____ _____    ______ ____
ROOT
ATOM      1  C   UNL     1      -0.197  11.019  21.095  0.00  0.00    +0.000 A 
ATOM      2  C   UNL     1      -0.045  11.149  19.719  0.00  0.00    +0.000 A 
ATOM      3  C   UNL     1       0.680  10.047  19.234  0.00  0.00    +0.000 A 
ATOM      4  N   UNL     1       0.984   9.733  17.954  0.00  0.00    +0.000 NA
ATOM      5  C   UNL     1       1.723   8.606  17.802  0.00  0.00    +0.000 A 
ATOM      6  C   UNL     1       2.183   7.788  18.827  0.00  0.00    +0.000 A 
ATOM      7  C   UNL     1       1.852   8.139  20.145  0.00  0.00    +0.000 A 
ATOM      8  C   UNL     1       1.066   9.284  20.326  0.00  0.00    +0.000 A 
ATOM      9  N   UNL     1       0.525   9.884  21.448  0.00  0.00    +0.000 N 
ATOM     10  C   UNL     1       0.622   9.323  22.784  0.00  0.00    +0.000 C 
ENDROOT
BRANCH   1  14
ATOM     11  C   UNL     1      -1.088  13.968  23.289  0.00  0.00    +0.000 C 
ATOM     12  N   UNL     1      -0.391  13.153  22.309  0.00  0.00    +0.000 N 
ATOM     13  C   UNL     1       0.724  13.787  21.625  0.00  0.00    +0.000 C 
ATOM     14  C   UNL     1      -0.911  11.881  22.030  0.00  0.00    +0.000 C 
ATOM     15  O   UNL     1      -1.953  11.502  22.569  0.00  0.00    +0.000 OA
ENDBRANCH   1  14
BRANCH   6  16
ATOM     16  C   UNL     1       3.020   6.572  18.618  0.00  0.00    +0.000 C 
ATOM     17  O   UNL     1       2.670   5.508  19.134  0.00  0.00    +0.000 OA
ATOM     18  N   UNL     1       4.174   6.671  17.861  0.00  0.00    +0.000 N 
ATOM     19  H   UNL     1       4.370   7.495  17.315  0.00  0.00    +0.000 HD
BRANCH  18  20
ATOM     20  C   UNL     1       5.007   5.504  17.624  0.00  0.00    +0.000 C 
ATOM     21  C   UNL     1       5.234   5.228  16.142  0.00  0.00    +0.000 C 
ATOM     22  C   UNL     1       6.454   4.314  16.125  0.00  0.00    +0.000 C 
ATOM     23  C   UNL     1       7.270   4.681  17.363  0.00  0.00    +0.000 C 
ATOM     24  C   UNL     1       6.426   5.674  18.160  0.00  0.00    +0.000 C 
ENDBRANCH  18  20
ENDBRANCH   6  16
TORSDOF 3
ENDMDL
MODEL 9
REMARK VINA RESULT:      -6.6      3.644      4.941
REMARK  Name = 
REMARK  6 active torsions:
REMARK  status: ('A' for Active; 'I' for Inactive)
REMARK    1  A    between atoms: C_1  and  N_2
REMARK    2  A    between atoms: N_2  and  C_3
REMARK    3  A    between atoms: C_4  and  C_6
REMARK    4  A    between atoms: C_11  and  C_12
REMARK    5  A    between atoms: N_14  and  C_15
REMARK    6  A    between atoms: N_22  and  C_23
REMARK                            x       y       z     vdW  Elec       q    Type
REMARK                         _______ _______ _______ _____ _____    ______ ____
ROOT
ATOM      1  C   UNL     1      -0.295  12.105  21.398  0.00  0.00    +0.000 A 
ATOM      2  C   UNL     1       0.313  12.230  20.154  0.00  0.00    +0.000 A 
ATOM      3  C   UNL     1       0.833  10.980  19.774  0.00  0.00    +0.000 A 
ATOM      4  N   UNL     1       1.431  10.633  18.612  0.00  0.00    +0.000 NA
ATOM      5  C   UNL     1       1.852   9.344  18.549  0.00  0.00    +0.000 A 
ATOM      6  C   UNL     1       1.729   8.396  19.558  0.00  0.00    +0.000 A 
ATOM      7  C   UNL     1       1.104   8.786  20.752  0.00  0.00    +0.000 A 
ATOM      8  C   UNL     1       0.636  10.104  20.831  0.00  0.00    +0.000 A 
ATOM      9  N   UNL     1      -0.051  10.799  21.808  0.00  0.00    +0.000 N 
ATOM     10  C   UNL     1      -0.535  10.192  23.035  0.00  0.00    +0.000 C 
ENDROOT
BRANCH   1  14
ATOM     11  C   UNL     1      -3.021  14.427  22.616  0.00  0.00    +0.000 C 
ATOM     12  N   UNL     1      -2.350  13.382  21.864  0.00  0.00    +0.000 N 
ATOM     13  C   UNL     1      -3.173  12.638  20.924  0.00  0.00    +0.000 C 
ATOM     14  C   UNL     1      -1.012  13.108  22.179  0.00  0.00    +0.000 C 
ATOM     15  O   UNL     1      -0.454  13.709  23.101  0.00  0.00    +0.000 OA
ENDBRANCH   1  14
BRANCH   6  16
ATOM     16  C   UNL     1       2.234   6.996  19.458  0.00  0.00    +0.000 C 
ATOM     17  O   UNL     1       2.966   6.690  18.515  0.00  0.00    +0.000 OA
ATOM     18  N   UNL     1       1.856   6.075  20.418  0.00  0.00    +0.000 N 
ATOM     19  H   UNL     1       1.391   6.365  21.265  0.00  0.00    +0.000 HD
BRANCH  18  20
ATOM     20  C   UNL     1       2.338   4.706  20.360  0.00  0.00    +0.000 C 
ATOM     21  C   UNL     1       2.270   3.996  21.708  0.00  0.00    +0.000 C 
ATOM     22  C   UNL     1       2.357   2.518  21.346  0.00  0.00    +0.000 C 
ATOM     23  C   UNL     1       1.747   2.393  19.950  0.00  0.00    +0.000 C 
ATOM     24  C   UNL     1       1.481   3.816  19.465  0.00  0.00    +0.000 C 
ENDBRANCH  18  20
ENDBRANCH   6  16
TORSDOF 3
ENDMDL
