MODEL 1
REMARK VINA RESULT:      -9.6      0.000      0.000
REMARK  Name = 
REMARK  6 active torsions:
REMARK  status: ('A' for Active; 'I' for Inactive)
REMARK    1  A    between atoms: C_1  and  O_2
REMARK    2  A    between atoms: O_2  and  C_3
REMARK    3  A    between atoms: C_18  and  C_19
REMARK    4  A    between atoms: N_21  and  C_22
REMARK    5  A    between atoms: C_22  and  C_23
REMARK    6  A    between atoms: C_33  and  C_34
REMARK                            x       y       z     vdW  Elec       q    Type
REMARK                         _______ _______ _______ _____ _____    ______ ____
ROOT
ATOM      1  C   UNL     1       5.912   4.950  15.873  0.00  0.00    +0.000 A 
ATOM      2  C   UNL     1       5.384   6.237  15.844  0.00  0.00    +0.000 A 
ATOM      3  C   UNL     1       4.451   6.631  16.811  0.00  0.00    +0.000 A 
ATOM      4  C   UNL     1       4.028   5.758  17.828  0.00  0.00    +0.000 A 
ATOM      5  C   UNL     1       4.575   4.461  17.854  0.00  0.00    +0.000 A 
ATOM      6  C   UNL     1       5.507   4.071  16.877  0.00  0.00    +0.000 A 
ATOM      7  C   UNL     1       4.208   3.458  18.915  0.00  0.00    +0.000 C 
ATOM      8  C   UNL     1       3.191   3.902  19.969  0.00  0.00    +0.000 C 
ATOM      9  C   UNL     1       2.713   5.312  19.882  0.00  0.00    +0.000 A 
ATOM     10  C   UNL     1       1.855   5.818  20.828  0.00  0.00    +0.000 A 
ATOM     11  N   UNL     1       1.357   7.060  20.787  0.00  0.00    +0.000 NA
ATOM     12  C   UNL     1       1.723   7.836  19.746  0.00  0.00    +0.000 A 
ATOM     13  N   UNL     1       1.138   9.157  19.671  0.00  0.00    +0.000 N 
ATOM     14  N   UNL     1       1.312   9.960  18.582  0.00  0.00    +0.000 NA
ATOM     15  C   UNL     1       0.547  11.024  18.819  0.00  0.00    +0.000 A 
ATOM     16  C   UNL     1      -0.139  10.952  20.047  0.00  0.00    +0.000 A 
ATOM     17  C   UNL     1       0.327   9.779  20.629  0.00  0.00    +0.000 A 
ATOM     18  C   UNL     1       0.130   9.234  22.002  0.00  0.00    +0.000 C 
ATOM     19  N   UNL     1       2.569   7.431  18.773  0.00  0.00    +0.000 NA
ATOM     20  C   UNL     1       3.067   6.177  18.861  0.00  0.00    +0.000 A 
ENDROOT
BRANCH  16  21
ATOM     21  C   UNL     1      -1.055  11.946  20.581  0.00  0.00    +0.000 C 
ATOM     22  O   UNL     1      -2.139  12.175  20.067  0.00  0.00    +0.000 OA
ATOM     23  N   UNL     1      -0.599  12.555  21.731  0.00  0.00    +0.000 N 
ATOM     24  H   UNL     1       0.260  12.223  22.149  0.00  0.00    +0.000 HD
BRANCH  23  25
ATOM     25  C   UNL     1      -1.281  13.659  22.368  0.00  0.00    +0.000 C 
BRANCH  25  26
ATOM     26  C   UNL     1      -1.941  13.230  23.695  0.00  0.00    +0.000 C 
ATOM     27  C   UNL     1      -3.107  12.257  23.465  0.00  0.00    +0.000 C 
ATOM     28  C   UNL     1      -4.233  12.932  22.694  0.00  0.00    +0.000 C 
ATOM     29  C   UNL     1      -4.607  14.315  23.243  0.00  0.00    +0.000 C 
ATOM     30  N   UNL     1      -3.497  15.161  23.720  0.00  0.00    +0.000 NA
ATOM     31  C   UNL     1      -4.037  16.308  24.469  0.00  0.00    +0.000 C 
ATOM     32  C   UNL     1      -2.931  17.285  24.861  0.00  0.00    +0.000 C 
ATOM     33  C   UNL     1      -1.862  16.593  25.694  0.00  0.00    +0.000 C 
ATOM     34  C   UNL     1      -1.342  15.367  24.953  0.00  0.00    +0.000 C 
ATOM     35  C   UNL     1      -2.485  14.432  24.506  0.00  0.00    +0.000 C 
ENDBRANCH  25  26
ENDBRANCH  23  25
ENDBRANCH  16  21
BRANCH   1  37
ATOM     36  C   UNL     1       6.334   4.005  13.736  0.00  0.00    +0.000 C 
ATOM     37  O   UNL     1       6.825   4.432  14.999  0.00  0.00    +0.000 OA
ENDBRANCH   1  37
TORSDOF 4
ENDMDL
MODEL 2
REMARK VINA RESULT:      -9.4      1.151      1.558
REMARK  Name = 
REMARK  6 active torsions:
REMARK  status: ('A' for Active; 'I' for Inactive)
REMARK    1  A    between atoms: C_1  and  O_2
REMARK    2  A    between atoms: O_2  and  C_3
REMARK    3  A    between atoms: C_18  and  C_19
REMARK    4  A    between atoms: N_21  and  C_22
REMARK    5  A    between atoms: C_22  and  C_23
REMARK    6  A    between atoms: C_33  and  C_34
REMARK                            x       y       z     vdW  Elec       q    Type
REMARK                         _______ _______ _______ _____ _____    ______ ____
ROOT
ATOM      1  C   UNL     1       5.700   4.827  15.694  0.00  0.00    +0.000 A 
ATOM      2  C   UNL     1       5.278   6.151  15.746  0.00  0.00    +0.000 A 
ATOM      3  C   UNL     1       4.400   6.567  16.755  0.00  0.00    +0.000 A 
ATOM      4  C   UNL     1       3.928   5.677  17.736  0.00  0.00    +0.000 A 
ATOM      5  C   UNL     1       4.368   4.341  17.680  0.00  0.00    +0.000 A 
ATOM      6  C   UNL     1       5.244   3.930  16.661  0.00  0.00    +0.000 A 
ATOM      7  C   UNL     1       3.941   3.314  18.696  0.00  0.00    +0.000 C 
ATOM      8  C   UNL     1       2.986   3.781  19.796  0.00  0.00    +0.000 C 
ATOM      9  C   UNL     1       2.624   5.228  19.795  0.00  0.00    +0.000 A 
ATOM     10  C   UNL     1       1.829   5.750  20.788  0.00  0.00    +0.000 A 
ATOM     11  N   UNL     1       1.434   7.028  20.825  0.00  0.00    +0.000 NA
ATOM     12  C   UNL     1       1.841   7.827  19.817  0.00  0.00    +0.000 A 
ATOM     13  N   UNL     1       1.365   9.193  19.826  0.00  0.00    +0.000 N 
ATOM     14  N   UNL     1       1.582  10.038  18.776  0.00  0.00    +0.000 NA
ATOM     15  C   UNL     1       0.911  11.145  19.087  0.00  0.00    +0.000 A 
ATOM     16  C   UNL     1       0.247  11.062  20.326  0.00  0.00    +0.000 A 
ATOM     17  C   UNL     1       0.627   9.826  20.834  0.00  0.00    +0.000 A 
ATOM     18  C   UNL     1       0.415   9.224  22.182  0.00  0.00    +0.000 C 
ATOM     19  N   UNL     1       2.630   7.408  18.803  0.00  0.00    +0.000 NA
ATOM     20  C   UNL     1       3.026   6.115  18.813  0.00  0.00    +0.000 A 
ENDROOT
BRANCH  16  21
ATOM     21  C   UNL     1      -0.572  12.096  20.934  0.00  0.00    +0.000 C 
ATOM     22  O   UNL     1      -0.277  12.621  21.997  0.00  0.00    +0.000 OA
ATOM     23  N   UNL     1      -1.670  12.447  20.177  0.00  0.00    +0.000 N 
ATOM     24  H   UNL     1      -1.775  12.040  19.257  0.00  0.00    +0.000 HD
BRANCH  23  25
ATOM     25  C   UNL     1      -2.692  13.362  20.635  0.00  0.00    +0.000 C 
BRANCH  25  26
ATOM     26  C   UNL     1      -3.797  12.631  21.426  0.00  0.00    +0.000 C 
ATOM     27  C   UNL     1      -5.059  12.418  20.578  0.00  0.00    +0.000 C 
ATOM     28  C   UNL     1      -5.693  13.750  20.203  0.00  0.00    +0.000 C 
ATOM     29  C   UNL     1      -5.831  14.716  21.387  0.00  0.00    +0.000 C 
ATOM     30  N   UNL     1      -4.726  14.731  22.363  0.00  0.00    +0.000 NA
ATOM     31  C   UNL     1      -5.136  15.477  23.564  0.00  0.00    +0.000 C 
ATOM     32  C   UNL     1      -3.975  15.639  24.541  0.00  0.00    +0.000 C 
ATOM     33  C   UNL     1      -3.416  14.283  24.952  0.00  0.00    +0.000 C 
ATOM     34  C   UNL     1      -3.046  13.479  23.712  0.00  0.00    +0.000 C 
ATOM     35  C   UNL     1      -4.215  13.392  22.708  0.00  0.00    +0.000 C 
ENDBRANCH  25  26
ENDBRANCH  23  25
ENDBRANCH  16  21
BRANCH   1  37
ATOM     36  C   UNL     1       5.975   3.860  13.544  0.00  0.00    +0.000 C 
ATOM     37  O   UNL     1       6.548   4.284  14.772  0.00  0.00    +0.000 OA
ENDBRANCH   1  37
TORSDOF 4
ENDMDL
MODEL 3
REMARK VINA RESULT:      -9.4      2.262      4.271
REMARK  Name = 
REMARK  6 active torsions:
REMARK  status: ('A' for Active; 'I' for Inactive)
REMARK    1  A    between atoms: C_1  and  O_2
REMARK    2  A    between atoms: O_2  and  C_3
REMARK    3  A    between atoms: C_18  and  C_19
REMARK    4  A    between atoms: N_21  and  C_22
REMARK    5  A    between atoms: C_22  and  C_23
REMARK    6  A    between atoms: C_33  and  C_34
REMARK                            x       y       z     vdW  Elec       q    Type
REMARK                         _______ _______ _______ _____ _____    ______ ____
ROOT
ATOM      1  C   UNL     1       3.460   3.204  19.790  0.00  0.00    +0.000 A 
ATOM      2  C   UNL     1       2.653   3.779  20.766  0.00  0.00    +0.000 A 
ATOM      3  C   UNL     1       2.250   5.115  20.640  0.00  0.00    +0.000 A 
ATOM      4  C   UNL     1       2.634   5.903  19.542  0.00  0.00    +0.000 A 
ATOM      5  C   UNL     1       3.444   5.308  18.555  0.00  0.00    +0.000 A 
ATOM      6  C   UNL     1       3.850   3.970  18.691  0.00  0.00    +0.000 A 
ATOM      7  C   UNL     1       3.891   6.057  17.328  0.00  0.00    +0.000 C 
ATOM      8  C   UNL     1       3.440   7.513  17.200  0.00  0.00    +0.000 C 
ATOM      9  C   UNL     1       2.542   8.030  18.273  0.00  0.00    +0.000 A 
ATOM     10  C   UNL     1       2.030   9.304  18.202  0.00  0.00    +0.000 A 
ATOM     11  N   UNL     1       1.253   9.843  19.148  0.00  0.00    +0.000 NA
ATOM     12  C   UNL     1       0.977   9.080  20.227  0.00  0.00    +0.000 A 
ATOM     13  N   UNL     1       0.187   9.684  21.277  0.00  0.00    +0.000 N 
ATOM     14  N   UNL     1      -0.014   9.062  22.475  0.00  0.00    +0.000 NA
ATOM     15  C   UNL     1      -0.675   9.953  23.212  0.00  0.00    +0.000 A 
ATOM     16  C   UNL     1      -0.925  11.161  22.533  0.00  0.00    +0.000 A 
ATOM     17  C   UNL     1      -0.441  10.936  21.250  0.00  0.00    +0.000 A 
ATOM     18  C   UNL     1      -0.570  11.752  20.008  0.00  0.00    +0.000 C 
ATOM     19  N   UNL     1       1.427   7.815  20.381  0.00  0.00    +0.000 NA
ATOM     20  C   UNL     1       2.192   7.298  19.393  0.00  0.00    +0.000 A 
ENDROOT
BRANCH  16  21
ATOM     21  C   UNL     1      -1.611  12.324  23.069  0.00  0.00    +0.000 C 
ATOM     22  O   UNL     1      -1.008  13.283  23.526  0.00  0.00    +0.000 OA
ATOM     23  N   UNL     1      -2.984  12.251  22.967  0.00  0.00    +0.000 N 
ATOM     24  H   UNL     1      -3.393  11.469  22.473  0.00  0.00    +0.000 HD
BRANCH  23  25
ATOM     25  C   UNL     1      -3.877  13.231  23.543  0.00  0.00    +0.000 C 
BRANCH  25  26
ATOM     26  C   UNL     1      -4.367  14.244  22.487  0.00  0.00    +0.000 C 
ATOM     27  C   UNL     1      -4.755  15.588  23.121  0.00  0.00    +0.000 C 
ATOM     28  C   UNL     1      -5.945  15.423  24.056  0.00  0.00    +0.000 C 
ATOM     29  C   UNL     1      -7.094  14.609  23.446  0.00  0.00    +0.000 C 
ATOM     30  N   UNL     1      -6.716  13.458  22.605  0.00  0.00    +0.000 NA
ATOM     31  C   UNL     1      -7.898  12.971  21.875  0.00  0.00    +0.000 C 
ATOM     32  C   UNL     1      -7.585  11.694  21.100  0.00  0.00    +0.000 C 
ATOM     33  C   UNL     1      -6.440  11.917  20.122  0.00  0.00    +0.000 C 
ATOM     34  C   UNL     1      -5.232  12.480  20.859  0.00  0.00    +0.000 C 
ATOM     35  C   UNL     1      -5.592  13.729  21.692  0.00  0.00    +0.000 C 
ENDBRANCH  25  26
ENDBRANCH  23  25
ENDBRANCH  16  21
BRANCH   1  37
ATOM     36  C   UNL     1       4.903   1.587  20.758  0.00  0.00    +0.000 C 
ATOM     37  O   UNL     1       3.927   1.921  19.782  0.00  0.00    +0.000 OA
ENDBRANCH   1  37
TORSDOF 4
ENDMDL
MODEL 4
REMARK VINA RESULT:      -9.2      1.751      2.969
REMARK  Name = 
REMARK  6 active torsions:
REMARK  status: ('A' for Active; 'I' for Inactive)
REMARK    1  A    between atoms: C_1  and  O_2
REMARK    2  A    between atoms: O_2  and  C_3
REMARK    3  A    between atoms: C_18  and  C_19
REMARK    4  A    between atoms: N_21  and  C_22
REMARK    5  A    between atoms: C_22  and  C_23
REMARK    6  A    between atoms: C_33  and  C_34
REMARK                            x       y       z     vdW  Elec       q    Type
REMARK                         _______ _______ _______ _____ _____    ______ ____
ROOT
ATOM      1  C   UNL     1       5.490   5.624  15.717  0.00  0.00    +0.000 A 
ATOM      2  C   UNL     1       5.039   6.917  15.965  0.00  0.00    +0.000 A 
ATOM      3  C   UNL     1       4.151   7.156  17.021  0.00  0.00    +0.000 A 
ATOM      4  C   UNL     1       3.697   6.120  17.855  0.00  0.00    +0.000 A 
ATOM      5  C   UNL     1       4.166   4.817  17.601  0.00  0.00    +0.000 A 
ATOM      6  C   UNL     1       5.052   4.583  16.536  0.00  0.00    +0.000 A 
ATOM      7  C   UNL     1       3.761   3.640  18.449  0.00  0.00    +0.000 C 
ATOM      8  C   UNL     1       2.794   3.916  19.603  0.00  0.00    +0.000 C 
ATOM      9  C   UNL     1       2.400   5.338  19.817  0.00  0.00    +0.000 A 
ATOM     10  C   UNL     1       1.592   5.687  20.873  0.00  0.00    +0.000 A 
ATOM     11  N   UNL     1       1.169   6.937  21.100  0.00  0.00    +0.000 NA
ATOM     12  C   UNL     1       1.560   7.887  20.225  0.00  0.00    +0.000 A 
ATOM     13  N   UNL     1       1.054   9.226  20.437  0.00  0.00    +0.000 N 
ATOM     14  N   UNL     1       1.254  10.223  19.527  0.00  0.00    +0.000 NA
ATOM     15  C   UNL     1       0.558  11.256  19.998  0.00  0.00    +0.000 A 
ATOM     16  C   UNL     1      -0.105  10.974  21.208  0.00  0.00    +0.000 A 
ATOM     17  C   UNL     1       0.301   9.684  21.526  0.00  0.00    +0.000 A 
ATOM     18  C   UNL     1       0.100   8.882  22.767  0.00  0.00    +0.000 C 
ATOM     19  N   UNL     1       2.360   7.642  19.164  0.00  0.00    +0.000 NA
ATOM     20  C   UNL     1       2.784   6.371  18.981  0.00  0.00    +0.000 A 
ENDROOT
BRANCH  16  21
ATOM     21  C   UNL     1      -0.949  11.887  21.960  0.00  0.00    +0.000 C 
ATOM     22  O   UNL     1      -0.615  12.336  23.046  0.00  0.00    +0.000 OA
ATOM     23  N   UNL     1      -2.118  12.221  21.310  0.00  0.00    +0.000 N 
ATOM     24  H   UNL     1      -2.259  11.891  20.365  0.00  0.00    +0.000 HD
BRANCH  23  25
ATOM     25  C   UNL     1      -3.164  13.014  21.916  0.00  0.00    +0.000 C 
BRANCH  25  26
ATOM     26  C   UNL     1      -3.942  13.830  20.863  0.00  0.00    +0.000 C 
ATOM     27  C   UNL     1      -3.777  15.342  21.076  0.00  0.00    +0.000 C 
ATOM     28  C   UNL     1      -4.388  15.773  22.402  0.00  0.00    +0.000 C 
ATOM     29  C   UNL     1      -5.795  15.208  22.639  0.00  0.00    +0.000 C 
ATOM     30  N   UNL     1      -6.039  13.826  22.187  0.00  0.00    +0.000 NA
ATOM     31  C   UNL     1      -7.483  13.542  22.220  0.00  0.00    +0.000 C 
ATOM     32  C   UNL     1      -7.770  12.078  21.895  0.00  0.00    +0.000 C 
ATOM     33  C   UNL     1      -7.210  11.704  20.529  0.00  0.00    +0.000 C 
ATOM     34  C   UNL     1      -5.728  12.053  20.464  0.00  0.00    +0.000 C 
ATOM     35  C   UNL     1      -5.459  13.518  20.868  0.00  0.00    +0.000 C 
ENDBRANCH  25  26
ENDBRANCH  23  25
ENDBRANCH  16  21
BRANCH   1  37
ATOM     36  C   UNL     1       6.205   3.926  14.221  0.00  0.00    +0.000 C 
ATOM     37  O   UNL     1       6.351   5.245  14.728  0.00  0.00    +0.000 OA
ENDBRANCH   1  37
TORSDOF 4
ENDMDL
MODEL 5
REMARK VINA RESULT:      -9.0      2.525     11.849
REMARK  Name = 
REMARK  6 active torsions:
REMARK  status: ('A' for Active; 'I' for Inactive)
REMARK    1  A    between atoms: C_1  and  O_2
REMARK    2  A    between atoms: O_2  and  C_3
REMARK    3  A    between atoms: C_18  and  C_19
REMARK    4  A    between atoms: N_21  and  C_22
REMARK    5  A    between atoms: C_22  and  C_23
REMARK    6  A    between atoms: C_33  and  C_34
REMARK                            x       y       z     vdW  Elec       q    Type
REMARK                         _______ _______ _______ _____ _____    ______ ____
ROOT
ATOM      1  C   UNL     1      -4.272  15.744  24.157  0.00  0.00    +0.000 A 
ATOM      2  C   UNL     1      -3.010  15.184  23.983  0.00  0.00    +0.000 A 
ATOM      3  C   UNL     1      -2.783  14.287  22.931  0.00  0.00    +0.000 A 
ATOM      4  C   UNL     1      -3.801  13.932  22.030  0.00  0.00    +0.000 A 
ATOM      5  C   UNL     1      -5.072  14.510  22.210  0.00  0.00    +0.000 A 
ATOM      6  C   UNL     1      -5.294  15.405  23.270  0.00  0.00    +0.000 A 
ATOM      7  C   UNL     1      -6.224  14.216  21.286  0.00  0.00    +0.000 C 
ATOM      8  C   UNL     1      -5.962  13.238  20.138  0.00  0.00    +0.000 C 
ATOM      9  C   UNL     1      -4.569  12.724  20.006  0.00  0.00    +0.000 A 
ATOM     10  C   UNL     1      -4.225  11.897  18.963  0.00  0.00    +0.000 A 
ATOM     11  N   UNL     1      -3.006  11.369  18.807  0.00  0.00    +0.000 NA
ATOM     12  C   UNL     1      -2.081  11.668  19.744  0.00  0.00    +0.000 A 
ATOM     13  N   UNL     1      -0.781  11.049  19.607  0.00  0.00    +0.000 N 
ATOM     14  N   UNL     1       0.171  11.154  20.580  0.00  0.00    +0.000 NA
ATOM     15  C   UNL     1       1.168  10.375  20.163  0.00  0.00    +0.000 A 
ATOM     16  C   UNL     1       0.905   9.748  18.930  0.00  0.00    +0.000 A 
ATOM     17  C   UNL     1      -0.323  10.268  18.539  0.00  0.00    +0.000 A 
ATOM     18  C   UNL     1      -1.060  10.147  17.249  0.00  0.00    +0.000 C 
ATOM     19  N   UNL     1      -2.321  12.478  20.798  0.00  0.00    +0.000 NA
ATOM     20  C   UNL     1      -3.560  13.010  20.909  0.00  0.00    +0.000 A 
ENDROOT
BRANCH  16  21
ATOM     21  C   UNL     1       1.787   8.834  18.224  0.00  0.00    +0.000 C 
ATOM     22  O   UNL     1       2.231   9.085  17.114  0.00  0.00    +0.000 OA
ATOM     23  N   UNL     1       2.099   7.701  18.944  0.00  0.00    +0.000 N 
ATOM     24  H   UNL     1       1.776   7.629  19.900  0.00  0.00    +0.000 HD
BRANCH  23  25
ATOM     25  C   UNL     1       2.857   6.597  18.398  0.00  0.00    +0.000 C 
BRANCH  25  26
ATOM     26  C   UNL     1       3.502   5.744  19.511  0.00  0.00    +0.000 C 
ATOM     27  C   UNL     1       5.000   5.519  19.261  0.00  0.00    +0.000 C 
ATOM     28  C   UNL     1       5.223   4.704  17.995  0.00  0.00    +0.000 C 
ATOM     29  C   UNL     1       4.330   3.460  17.903  0.00  0.00    +0.000 C 
ATOM     30  N   UNL     1       2.947   3.599  18.397  0.00  0.00    +0.000 NA
ATOM     31  C   UNL     1       2.326   2.269  18.508  0.00  0.00    +0.000 C 
ATOM     32  C   UNL     1       0.849   2.375  18.881  0.00  0.00    +0.000 C 
ATOM     33  C   UNL     1       0.670   3.131  20.190  0.00  0.00    +0.000 C 
ATOM     34  C   UNL     1       1.365   4.485  20.105  0.00  0.00    +0.000 C 
ATOM     35  C   UNL     1       2.836   4.354  19.657  0.00  0.00    +0.000 C 
ENDBRANCH  25  26
ENDBRANCH  23  25
ENDBRANCH  16  21
BRANCH   1  37
ATOM     36  C   UNL     1      -3.932  17.861  25.176  0.00  0.00    +0.000 C 
ATOM     37  O   UNL     1      -4.636  16.627  25.132  0.00  0.00    +0.000 OA
ENDBRANCH   1  37
TORSDOF 4
ENDMDL
MODEL 6
REMARK VINA RESULT:      -8.9      2.183      3.994
REMARK  Name = 
REMARK  6 active torsions:
REMARK  status: ('A' for Active; 'I' for Inactive)
REMARK    1  A    between atoms: C_1  and  O_2
REMARK    2  A    between atoms: O_2  and  C_3
REMARK    3  A    between atoms: C_18  and  C_19
REMARK    4  A    between atoms: N_21  and  C_22
REMARK    5  A    between atoms: C_22  and  C_23
REMARK    6  A    between atoms: C_33  and  C_34
REMARK                            x       y       z     vdW  Elec       q    Type
REMARK                         _______ _______ _______ _____ _____    ______ ____
ROOT
ATOM      1  C   UNL     1       3.151   3.295  19.813  0.00  0.00    +0.000 A 
ATOM      2  C   UNL     1       2.351   3.890  20.783  0.00  0.00    +0.000 A 
ATOM      3  C   UNL     1       2.004   5.242  20.670  0.00  0.00    +0.000 A 
ATOM      4  C   UNL     1       2.440   6.028  19.590  0.00  0.00    +0.000 A 
ATOM      5  C   UNL     1       3.242   5.415  18.609  0.00  0.00    +0.000 A 
ATOM      6  C   UNL     1       3.590   4.059  18.732  0.00  0.00    +0.000 A 
ATOM      7  C   UNL     1       3.740   6.161  17.400  0.00  0.00    +0.000 C 
ATOM      8  C   UNL     1       3.351   7.636  17.285  0.00  0.00    +0.000 C 
ATOM      9  C   UNL     1       2.456   8.175  18.350  0.00  0.00    +0.000 A 
ATOM     10  C   UNL     1       1.998   9.469  18.289  0.00  0.00    +0.000 A 
ATOM     11  N   UNL     1       1.227  10.027  19.230  0.00  0.00    +0.000 NA
ATOM     12  C   UNL     1       0.902   9.261  20.293  0.00  0.00    +0.000 A 
ATOM     13  N   UNL     1       0.118   9.883  21.337  0.00  0.00    +0.000 N 
ATOM     14  N   UNL     1      -0.128   9.253  22.524  0.00  0.00    +0.000 NA
ATOM     15  C   UNL     1      -0.765  10.160  23.262  0.00  0.00    +0.000 A 
ATOM     16  C   UNL     1      -0.953  11.387  22.596  0.00  0.00    +0.000 A 
ATOM     17  C   UNL     1      -0.457  11.159  21.318  0.00  0.00    +0.000 A 
ATOM     18  C   UNL     1      -0.531  11.997  20.087  0.00  0.00    +0.000 C 
ATOM     19  N   UNL     1       1.296   7.977  20.436  0.00  0.00    +0.000 NA
ATOM     20  C   UNL     1       2.057   7.443  19.454  0.00  0.00    +0.000 A 
ENDROOT
BRANCH  16  21
ATOM     21  C   UNL     1      -1.601  12.569  23.138  0.00  0.00    +0.000 C 
ATOM     22  O   UNL     1      -0.997  13.394  23.806  0.00  0.00    +0.000 OA
ATOM     23  N   UNL     1      -2.929  12.682  22.784  0.00  0.00    +0.000 N 
ATOM     24  H   UNL     1      -3.317  12.011  22.135  0.00  0.00    +0.000 HD
BRANCH  23  25
ATOM     25  C   UNL     1      -3.805  13.708  23.306  0.00  0.00    +0.000 C 
BRANCH  25  26
ATOM     26  C   UNL     1      -3.657  15.032  22.528  0.00  0.00    +0.000 C 
ATOM     27  C   UNL     1      -2.966  16.114  23.371  0.00  0.00    +0.000 C 
ATOM     28  C   UNL     1      -3.816  16.488  24.577  0.00  0.00    +0.000 C 
ATOM     29  C   UNL     1      -5.290  16.739  24.233  0.00  0.00    +0.000 C 
ATOM     30  N   UNL     1      -5.892  15.860  23.214  0.00  0.00    +0.000 NA
ATOM     31  C   UNL     1      -7.192  16.406  22.795  0.00  0.00    +0.000 C 
ATOM     32  C   UNL     1      -7.916  15.455  21.845  0.00  0.00    +0.000 C 
ATOM     33  C   UNL     1      -7.067  15.164  20.615  0.00  0.00    +0.000 C 
ATOM     34  C   UNL     1      -5.695  14.656  21.041  0.00  0.00    +0.000 C 
ATOM     35  C   UNL     1      -5.017  15.601  22.056  0.00  0.00    +0.000 C 
ENDBRANCH  25  26
ENDBRANCH  23  25
ENDBRANCH  16  21
BRANCH   1  37
ATOM     36  C   UNL     1       3.679   1.375  18.520  0.00  0.00    +0.000 C 
ATOM     37  O   UNL     1       3.565   1.994  19.794  0.00  0.00    +0.000 OA
ENDBRANCH   1  37
TORSDOF 4
ENDMDL
MODEL 7
REMARK VINA RESULT:      -8.9      2.452      4.207
REMARK  Name = 
REMARK  6 active torsions:
REMARK  status: ('A' for Active; 'I' for Inactive)
REMARK    1  A    between atoms: C_1  and  O_2
REMARK    2  A    between atoms: O_2  and  C_3
REMARK    3  A    between atoms: C_18  and  C_19
REMARK    4  A    between atoms: N_21  and  C_22
REMARK    5  A    between atoms: C_22  and  C_23
REMARK    6  A    between atoms: C_33  and  C_34
REMARK                            x       y       z     vdW  Elec       q    Type
REMARK                         _______ _______ _______ _____ _____    ______ ____
ROOT
ATOM      1  C   UNL     1       2.951   3.627  20.065  0.00  0.00    +0.000 A 
ATOM      2  C   UNL     1       2.120   4.278  20.971  0.00  0.00    +0.000 A 
ATOM      3  C   UNL     1       1.804   5.630  20.782  0.00  0.00    +0.000 A 
ATOM      4  C   UNL     1       2.301   6.359  19.688  0.00  0.00    +0.000 A 
ATOM      5  C   UNL     1       3.134   5.688  18.772  0.00  0.00    +0.000 A 
ATOM      6  C   UNL     1       3.452   4.334  18.972  0.00  0.00    +0.000 A 
ATOM      7  C   UNL     1       3.699   6.370  17.555  0.00  0.00    +0.000 C 
ATOM      8  C   UNL     1       3.342   7.845  17.356  0.00  0.00    +0.000 C 
ATOM      9  C   UNL     1       2.412   8.446  18.355  0.00  0.00    +0.000 A 
ATOM     10  C   UNL     1       1.980   9.743  18.215  0.00  0.00    +0.000 A 
ATOM     11  N   UNL     1       1.178  10.355  19.094  0.00  0.00    +0.000 NA
ATOM     12  C   UNL     1       0.793   9.645  20.175  0.00  0.00    +0.000 A 
ATOM     13  N   UNL     1      -0.025  10.326  21.154  0.00  0.00    +0.000 N 
ATOM     14  N   UNL     1      -0.335   9.756  22.355  0.00  0.00    +0.000 NA
ATOM     15  C   UNL     1      -0.988  10.705  23.023  0.00  0.00    +0.000 A 
ATOM     16  C   UNL     1      -1.124  11.903  22.295  0.00  0.00    +0.000 A 
ATOM     17  C   UNL     1      -0.576  11.610  21.052  0.00  0.00    +0.000 A 
ATOM     18  C   UNL     1      -0.580  12.391  19.781  0.00  0.00    +0.000 C 
ATOM     19  N   UNL     1       1.157   8.362  20.394  0.00  0.00    +0.000 NA
ATOM     20  C   UNL     1       1.950   7.771  19.471  0.00  0.00    +0.000 A 
ENDROOT
BRANCH  16  21
ATOM     21  C   UNL     1      -1.773  13.119  22.752  0.00  0.00    +0.000 C 
ATOM     22  O   UNL     1      -1.448  13.682  23.787  0.00  0.00    +0.000 OA
ATOM     23  N   UNL     1      -2.742  13.587  21.890  0.00  0.00    +0.000 N 
ATOM     24  H   UNL     1      -2.867  13.120  21.001  0.00  0.00    +0.000 HD
BRANCH  23  25
ATOM     25  C   UNL     1      -3.602  14.708  22.194  0.00  0.00    +0.000 C 
BRANCH  25  26
ATOM     26  C   UNL     1      -4.820  14.764  21.248  0.00  0.00    +0.000 C 
ATOM     27  C   UNL     1      -5.022  16.169  20.662  0.00  0.00    +0.000 C 
ATOM     28  C   UNL     1      -5.359  17.171  21.757  0.00  0.00    +0.000 C 
ATOM     29  C   UNL     1      -6.446  16.680  22.722  0.00  0.00    +0.000 C 
ATOM     30  N   UNL     1      -6.414  15.251  23.084  0.00  0.00    +0.000 NA
ATOM     31  C   UNL     1      -7.666  14.886  23.767  0.00  0.00    +0.000 C 
ATOM     32  C   UNL     1      -7.619  13.451  24.285  0.00  0.00    +0.000 C 
ATOM     33  C   UNL     1      -7.355  12.471  23.151  0.00  0.00    +0.000 C 
ATOM     34  C   UNL     1      -6.094  12.877  22.398  0.00  0.00    +0.000 C 
ATOM     35  C   UNL     1      -6.138  14.353  21.949  0.00  0.00    +0.000 C 
ENDBRANCH  25  26
ENDBRANCH  23  25
ENDBRANCH  16  21
BRANCH   1  37
ATOM     36  C   UNL     1       3.649   1.686  18.890  0.00  0.00    +0.000 C 
ATOM     37  O   UNL     1       3.343   2.320  20.124  0.00  0.00    +0.000 OA
ENDBRANCH   1  37
TORSDOF 4
ENDMDL
MODEL 8
REMARK VINA RESULT:      -8.9      2.009      3.288
REMARK  Name = 
REMARK  6 active torsions:
REMARK  status: ('A' for Active; 'I' for Inactive)
REMARK    1  A    between atoms: C_1  and  O_2
REMARK    2  A    between atoms: O_2  and  C_3
REMARK    3  A    between atoms: C_18  and  C_19
REMARK    4  A    between atoms: N_21  and  C_22
REMARK    5  A    between atoms: C_22  and  C_23
REMARK    6  A    between atoms: C_33  and  C_34
REMARK                            x       y       z     vdW  Elec       q    Type
REMARK                         _______ _______ _______ _____ _____    ______ ____
ROOT
ATOM      1  C   UNL     1       3.322   3.144  20.073  0.00  0.00    +0.000 A 
ATOM      2  C   UNL     1       2.519   3.811  20.993  0.00  0.00    +0.000 A 
ATOM      3  C   UNL     1       2.183   5.154  20.781  0.00  0.00    +0.000 A 
ATOM      4  C   UNL     1       2.632   5.859  19.651  0.00  0.00    +0.000 A 
ATOM      5  C   UNL     1       3.436   5.172  18.722  0.00  0.00    +0.000 A 
ATOM      6  C   UNL     1       3.774   3.826  18.944  0.00  0.00    +0.000 A 
ATOM      7  C   UNL     1       3.948   5.828  17.467  0.00  0.00    +0.000 C 
ATOM      8  C   UNL     1       3.570   7.294  17.245  0.00  0.00    +0.000 C 
ATOM      9  C   UNL     1       2.672   7.912  18.262  0.00  0.00    +0.000 A 
ATOM     10  C   UNL     1       2.223   9.202  18.106  0.00  0.00    +0.000 A 
ATOM     11  N   UNL     1       1.449   9.829  18.999  0.00  0.00    +0.000 NA
ATOM     12  C   UNL     1       1.111   9.143  20.111  0.00  0.00    +0.000 A 
ATOM     13  N   UNL     1       0.324   9.843  21.103  0.00  0.00    +0.000 N 
ATOM     14  N   UNL     1       0.065   9.301  22.329  0.00  0.00    +0.000 NA
ATOM     15  C   UNL     1      -0.571  10.262  22.997  0.00  0.00    +0.000 A 
ATOM     16  C   UNL     1      -0.746  11.439  22.244  0.00  0.00    +0.000 A 
ATOM     17  C   UNL     1      -0.242  11.118  20.989  0.00  0.00    +0.000 A 
ATOM     18  C   UNL     1      -0.302  11.867  19.701  0.00  0.00    +0.000 C 
ATOM     19  N   UNL     1       1.496   7.870  20.349  0.00  0.00    +0.000 NA
ATOM     20  C   UNL     1       2.259   7.263  19.412  0.00  0.00    +0.000 A 
ENDROOT
BRANCH  16  21
ATOM     21  C   UNL     1      -1.389  12.661  22.695  0.00  0.00    +0.000 C 
ATOM     22  O   UNL     1      -0.832  13.454  23.439  0.00  0.00    +0.000 OA
ATOM     23  N   UNL     1      -2.649  12.849  22.168  0.00  0.00    +0.000 N 
ATOM     24  H   UNL     1      -2.986  12.198  21.471  0.00  0.00    +0.000 HD
BRANCH  23  25
ATOM     25  C   UNL     1      -3.525  13.928  22.568  0.00  0.00    +0.000 C 
BRANCH  25  26
ATOM     26  C   UNL     1      -3.945  13.800  24.047  0.00  0.00    +0.000 C 
ATOM     27  C   UNL     1      -5.259  13.020  24.201  0.00  0.00    +0.000 C 
ATOM     28  C   UNL     1      -6.415  13.769  23.552  0.00  0.00    +0.000 C 
ATOM     29  C   UNL     1      -6.466  15.256  23.925  0.00  0.00    +0.000 C 
ATOM     30  N   UNL     1      -5.172  15.955  24.041  0.00  0.00    +0.000 NA
ATOM     31  C   UNL     1      -5.374  17.267  24.677  0.00  0.00    +0.000 C 
ATOM     32  C   UNL     1      -4.084  18.083  24.690  0.00  0.00    +0.000 C 
ATOM     33  C   UNL     1      -2.973  17.335  25.412  0.00  0.00    +0.000 C 
ATOM     34  C   UNL     1      -2.799  15.950  24.801  0.00  0.00    +0.000 C 
ATOM     35  C   UNL     1      -4.132  15.174  24.734  0.00  0.00    +0.000 C 
ENDBRANCH  25  26
ENDBRANCH  23  25
ENDBRANCH  16  21
BRANCH   1  37
ATOM     36  C   UNL     1       3.970   1.172  18.921  0.00  0.00    +0.000 C 
ATOM     37  O   UNL     1       3.727   1.842  20.150  0.00  0.00    +0.000 OA
ENDBRANCH   1  37
TORSDOF 4
ENDMDL
MODEL 9
REMARK VINA RESULT:      -8.9      2.032      3.615
REMARK  Name = 
REMARK  6 active torsions:
REMARK  status: ('A' for Active; 'I' for Inactive)
REMARK    1  A    between atoms: C_1  and  O_2
REMARK    2  A    between atoms: O_2  and  C_3
REMARK    3  A    between atoms: C_18  and  C_19
REMARK    4  A    between atoms: N_21  and  C_22
REMARK    5  A    between atoms: C_22  and  C_23
REMARK    6  A    between atoms: C_33  and  C_34
REMARK                            x       y       z     vdW  Elec       q    Type
REMARK                         _______ _______ _______ _____ _____    ______ ____
ROOT
ATOM      1  C   UNL     1       3.425   3.313  19.610  0.00  0.00    +0.000 A 
ATOM      2  C   UNL     1       2.597   3.858  20.587  0.00  0.00    +0.000 A 
ATOM      3  C   UNL     1       2.203   5.199  20.499  0.00  0.00    +0.000 A 
ATOM      4  C   UNL     1       2.617   6.023  19.439  0.00  0.00    +0.000 A 
ATOM      5  C   UNL     1       3.447   5.460  18.451  0.00  0.00    +0.000 A 
ATOM      6  C   UNL     1       3.844   4.115  18.549  0.00  0.00    +0.000 A 
ATOM      7  C   UNL     1       3.927   6.249  17.262  0.00  0.00    +0.000 C 
ATOM      8  C   UNL     1       3.485   7.712  17.175  0.00  0.00    +0.000 C 
ATOM      9  C   UNL     1       2.564   8.195  18.244  0.00  0.00    +0.000 A 
ATOM     10  C   UNL     1       2.059   9.473  18.207  0.00  0.00    +0.000 A 
ATOM     11  N   UNL     1       1.262   9.982  19.153  0.00  0.00    +0.000 NA
ATOM     12  C   UNL     1       0.957   9.183  20.197  0.00  0.00    +0.000 A 
ATOM     13  N   UNL     1       0.145   9.754  21.249  0.00  0.00    +0.000 N 
ATOM     14  N   UNL     1      -0.087   9.090  22.419  0.00  0.00    +0.000 NA
ATOM     15  C   UNL     1      -0.762   9.958  23.172  0.00  0.00    +0.000 A 
ATOM     16  C   UNL     1      -0.990  11.190  22.530  0.00  0.00    +0.000 A 
ATOM     17  C   UNL     1      -0.477  11.008  21.252  0.00  0.00    +0.000 A 
ATOM     18  C   UNL     1      -0.573  11.868  20.037  0.00  0.00    +0.000 C 
ATOM     19  N   UNL     1       1.397   7.911  20.317  0.00  0.00    +0.000 NA
ATOM     20  C   UNL     1       2.184   7.425  19.329  0.00  0.00    +0.000 A 
ENDROOT
BRANCH  16  21
ATOM     21  C   UNL     1      -1.684  12.337  23.091  0.00  0.00    +0.000 C 
ATOM     22  O   UNL     1      -2.819  12.258  23.537  0.00  0.00    +0.000 OA
ATOM     23  N   UNL     1      -0.924  13.487  23.110  0.00  0.00    +0.000 N 
ATOM     24  H   UNL     1       0.045  13.434  22.824  0.00  0.00    +0.000 HD
BRANCH  23  25
ATOM     25  C   UNL     1      -1.445  14.777  23.507  0.00  0.00    +0.000 C 
BRANCH  25  26
ATOM     26  C   UNL     1      -2.247  15.441  22.369  0.00  0.00    +0.000 C 
ATOM     27  C   UNL     1      -1.356  16.322  21.481  0.00  0.00    +0.000 C 
ATOM     28  C   UNL     1      -0.794  17.496  22.271  0.00  0.00    +0.000 C 
ATOM     29  C   UNL     1      -1.850  18.231  23.108  0.00  0.00    +0.000 C 
ATOM     30  N   UNL     1      -2.881  17.398  23.754  0.00  0.00    +0.000 NA
ATOM     31  C   UNL     1      -3.962  18.256  24.264  0.00  0.00    +0.000 C 
ATOM     32  C   UNL     1      -4.982  17.450  25.065  0.00  0.00    +0.000 C 
ATOM     33  C   UNL     1      -5.577  16.333  24.219  0.00  0.00    +0.000 C 
ATOM     34  C   UNL     1      -4.461  15.475  23.635  0.00  0.00    +0.000 C 
ATOM     35  C   UNL     1      -3.406  16.323  22.893  0.00  0.00    +0.000 C 
ENDBRANCH  25  26
ENDBRANCH  23  25
ENDBRANCH  16  21
BRANCH   1  37
ATOM     36  C   UNL     1       3.710   1.324  18.346  0.00  0.00    +0.000 C 
ATOM     37  O   UNL     1       3.887   2.029  19.567  0.00  0.00    +0.000 OA
ENDBRANCH   1  37
TORSDOF 4
ENDMDL
