MODEL 1
REMARK VINA RESULT:      -5.1      0.000      0.000
REMARK  Name = 
REMARK  11 active torsions:
REMARK  status: ('A' for Active; 'I' for Inactive)
REMARK    1  A    between atoms: C_2  and  C_3
REMARK    2  A    between atoms: C_2  and  C_4
REMARK    3  A    between atoms: C_7  and  C_8
REMARK    4  A    between atoms: C_9  and  O_10
REMARK    5  A    between atoms: O_10  and  C_11
REMARK    6  A    between atoms: C_11  and  C_12
REMARK    7  A    between atoms: C_16  and  C_17
REMARK    8  A    between atoms: C_22  and  C_23
REMARK    9  A    between atoms: C_24  and  O_25
REMARK   10  A    between atoms: O_25  and  C_26
REMARK   11  A    between atoms: C_26  and  C_27
REMARK                            x       y       z     vdW  Elec       q    Type
REMARK                         _______ _______ _______ _____ _____    ______ ____
ROOT
ATOM      1  C   UNL     1      -3.264  13.860  21.768  0.00  0.00    +0.000 C 
ATOM      2  C   UNL     1      -2.888  13.520  20.270  0.00  0.00    +0.000 C 
ATOM      3  C   UNL     1      -2.952  11.993  19.914  0.00  0.00    +0.000 C 
ATOM      4  C   UNL     1      -1.805  11.276  19.106  0.00  0.00    +0.000 C 
ATOM      5  C   UNL     1      -1.622  11.893  17.708  0.00  0.00    +0.000 C 
ATOM      6  C   UNL     1      -0.391  10.980  19.806  0.00  0.00    +0.000 C 
ATOM      7  C   UNL     1       0.552  12.209  19.569  0.00  0.00    +0.000 C 
ATOM      8  C   UNL     1       1.693  12.661  20.504  0.00  0.00    +0.000 C 
ATOM      9  C   UNL     1       2.089  14.203  20.353  0.00  0.00    +0.000 C 
ATOM     10  C   UNL     1       1.543  14.875  19.077  0.00  0.00    +0.000 C 
ATOM     11  C   UNL     1       1.900  15.015  21.671  0.00  0.00    +0.000 C 
ATOM     12  C   UNL     1       1.474  16.490  21.611  0.00  0.00    +0.000 C 
ATOM     13  O   UNL     1       2.075  17.296  20.898  0.00  0.00    +0.000 OA
ATOM     14  C   UNL     1       0.350  16.985  22.535  0.00  0.00    +0.000 C 
ATOM     15  C   UNL     1      -1.118  16.911  22.002  0.00  0.00    +0.000 C 
ATOM     16  C   UNL     1      -1.160  16.477  20.550  0.00  0.00    +0.000 C 
ATOM     17  C   UNL     1      -2.120  16.136  22.931  0.00  0.00    +0.000 C 
ATOM     18  C   UNL     1      -3.309  15.370  22.221  0.00  0.00    +0.000 C 
ENDROOT
BRANCH   1  20
ATOM     19  C   UNL     1      -1.150  12.928  22.713  0.00  0.00    +0.000 C 
ATOM     20  C   UNL     1      -2.482  13.056  22.774  0.00  0.00    +0.000 C 
ATOM     21  C   UNL     1      -3.310  12.353  23.783  0.00  0.00    +0.000 C 
ENDBRANCH   1  20
BRANCH   6  22
ATOM     22  O   UNL     1      -0.468  10.590  21.192  0.00  0.00    +0.000 OA
BRANCH  22  23
ATOM     23  C   UNL     1       0.235   9.513  21.642  0.00  0.00    +0.000 C 
ATOM     24  C   UNL     1       0.148   9.344  23.136  0.00  0.00    +0.000 C 
ATOM     25  O   UNL     1       0.891   8.759  20.930  0.00  0.00    +0.000 OA
ENDBRANCH  22  23
ENDBRANCH   6  22
BRANCH  17  26
ATOM     26  O   UNL     1      -1.328  15.317  23.815  0.00  0.00    +0.000 OA
BRANCH  26  27
ATOM     27  C   UNL     1      -1.239  15.498  25.150  0.00  0.00    +0.000 C 
ATOM     28  C   UNL     1      -2.629  15.425  25.742  0.00  0.00    +0.000 C 
ATOM     29  O   UNL     1      -0.215  15.694  25.781  0.00  0.00    +0.000 OA
ENDBRANCH  26  27
ENDBRANCH  17  26
TORSDOF 5
ENDMDL
MODEL 2
REMARK VINA RESULT:      -5.1      6.544      9.950
REMARK  Name = 
REMARK  11 active torsions:
REMARK  status: ('A' for Active; 'I' for Inactive)
REMARK    1  A    between atoms: C_2  and  C_3
REMARK    2  A    between atoms: C_2  and  C_4
REMARK    3  A    between atoms: C_7  and  C_8
REMARK    4  A    between atoms: C_9  and  O_10
REMARK    5  A    between atoms: O_10  and  C_11
REMARK    6  A    between atoms: C_11  and  C_12
REMARK    7  A    between atoms: C_16  and  C_17
REMARK    8  A    between atoms: C_22  and  C_23
REMARK    9  A    between atoms: C_24  and  O_25
REMARK   10  A    between atoms: O_25  and  C_26
REMARK   11  A    between atoms: C_26  and  C_27
REMARK                            x       y       z     vdW  Elec       q    Type
REMARK                         _______ _______ _______ _____ _____    ______ ____
ROOT
ATOM      1  C   UNL     1       9.824  14.492  21.864  0.00  0.00    +0.000 C 
ATOM      2  C   UNL     1       9.125  15.333  23.007  0.00  0.00    +0.000 C 
ATOM      3  C   UNL     1       8.811  14.522  24.313  0.00  0.00    +0.000 C 
ATOM      4  C   UNL     1       7.416  14.617  25.039  0.00  0.00    +0.000 C 
ATOM      5  C   UNL     1       7.117  16.052  25.510  0.00  0.00    +0.000 C 
ATOM      6  C   UNL     1       6.119  13.931  24.387  0.00  0.00    +0.000 C 
ATOM      7  C   UNL     1       5.421  14.973  23.447  0.00  0.00    +0.000 C 
ATOM      8  C   UNL     1       4.583  14.636  22.197  0.00  0.00    +0.000 C 
ATOM      9  C   UNL     1       4.489  15.826  21.133  0.00  0.00    +0.000 C 
ATOM     10  C   UNL     1       4.924  17.200  21.681  0.00  0.00    +0.000 C 
ATOM     11  C   UNL     1       5.073  15.447  19.737  0.00  0.00    +0.000 C 
ATOM     12  C   UNL     1       5.774  16.512  18.881  0.00  0.00    +0.000 C 
ATOM     13  O   UNL     1       5.233  17.595  18.646  0.00  0.00    +0.000 OA
ATOM     14  C   UNL     1       7.122  16.179  18.222  0.00  0.00    +0.000 C 
ATOM     15  C   UNL     1       8.424  16.487  19.031  0.00  0.00    +0.000 C 
ATOM     16  C   UNL     1       8.116  17.223  20.320  0.00  0.00    +0.000 C 
ATOM     17  C   UNL     1       9.396  15.265  19.208  0.00  0.00    +0.000 C 
ATOM     18  C   UNL     1      10.257  15.221  20.535  0.00  0.00    +0.000 C 
ENDROOT
BRANCH   1  20
ATOM     19  C   UNL     1       7.756  13.181  21.378  0.00  0.00    +0.000 C 
ATOM     20  C   UNL     1       9.087  13.223  21.525  0.00  0.00    +0.000 C 
ATOM     21  C   UNL     1       9.940  12.012  21.452  0.00  0.00    +0.000 C 
ENDBRANCH   1  20
BRANCH   6  22
ATOM     22  O   UNL     1       6.362  12.665  23.740  0.00  0.00    +0.000 OA
BRANCH  22  23
ATOM     23  C   UNL     1       6.841  11.610  24.457  0.00  0.00    +0.000 C 
ATOM     24  C   UNL     1       5.903  11.180  25.555  0.00  0.00    +0.000 C 
ATOM     25  O   UNL     1       7.923  11.064  24.262  0.00  0.00    +0.000 OA
ENDBRANCH  22  23
ENDBRANCH   6  22
BRANCH  17  26
ATOM     26  O   UNL     1       8.624  14.073  18.959  0.00  0.00    +0.000 OA
BRANCH  26  27
ATOM     27  C   UNL     1       8.790  13.264  17.890  0.00  0.00    +0.000 C 
ATOM     28  C   UNL     1      10.272  13.101  17.632  0.00  0.00    +0.000 C 
ATOM     29  O   UNL     1       7.901  12.751  17.233  0.00  0.00    +0.000 OA
ENDBRANCH  26  27
ENDBRANCH  17  26
TORSDOF 5
ENDMDL
MODEL 3
REMARK VINA RESULT:      -4.9      1.121      1.358
REMARK  Name = 
REMARK  11 active torsions:
REMARK  status: ('A' for Active; 'I' for Inactive)
REMARK    1  A    between atoms: C_2  and  C_3
REMARK    2  A    between atoms: C_2  and  C_4
REMARK    3  A    between atoms: C_7  and  C_8
REMARK    4  A    between atoms: C_9  and  O_10
REMARK    5  A    between atoms: O_10  and  C_11
REMARK    6  A    between atoms: C_11  and  C_12
REMARK    7  A    between atoms: C_16  and  C_17
REMARK    8  A    between atoms: C_22  and  C_23
REMARK    9  A    between atoms: C_24  and  O_25
REMARK   10  A    between atoms: O_25  and  C_26
REMARK   11  A    between atoms: C_26  and  C_27
REMARK                            x       y       z     vdW  Elec       q    Type
REMARK                         _______ _______ _______ _____ _____    ______ ____
ROOT
ATOM      1  C   UNL     1      -3.270  13.412  21.560  0.00  0.00    +0.000 C 
ATOM      2  C   UNL     1      -2.485  13.117  20.219  0.00  0.00    +0.000 C 
ATOM      3  C   UNL     1      -1.936  11.652  20.094  0.00  0.00    +0.000 C 
ATOM      4  C   UNL     1      -0.466  11.349  19.617  0.00  0.00    +0.000 C 
ATOM      5  C   UNL     1      -0.210  11.877  18.193  0.00  0.00    +0.000 C 
ATOM      6  C   UNL     1       0.776  11.654  20.588  0.00  0.00    +0.000 C 
ATOM      7  C   UNL     1       1.261  13.122  20.333  0.00  0.00    +0.000 C 
ATOM      8  C   UNL     1       1.943  14.037  21.371  0.00  0.00    +0.000 C 
ATOM      9  C   UNL     1       1.803  15.599  21.058  0.00  0.00    +0.000 C 
ATOM     10  C   UNL     1       1.349  15.917  19.619  0.00  0.00    +0.000 C 
ATOM     11  C   UNL     1       1.063  16.385  22.184  0.00  0.00    +0.000 C 
ATOM     12  C   UNL     1       0.176  17.587  21.826  0.00  0.00    +0.000 C 
ATOM     13  O   UNL     1       0.600  18.500  21.113  0.00  0.00    +0.000 OA
ATOM     14  C   UNL     1      -1.221  17.703  22.455  0.00  0.00    +0.000 C 
ATOM     15  C   UNL     1      -2.419  17.048  21.693  0.00  0.00    +0.000 C 
ATOM     16  C   UNL     1      -1.993  16.516  20.340  0.00  0.00    +0.000 C 
ATOM     17  C   UNL     1      -3.267  16.033  22.543  0.00  0.00    +0.000 C 
ATOM     18  C   UNL     1      -3.933  14.828  21.762  0.00  0.00    +0.000 C 
ENDROOT
BRANCH   1  20
ATOM     19  C   UNL     1      -1.208  13.367  22.967  0.00  0.00    +0.000 C 
ATOM     20  C   UNL     1      -2.496  13.037  22.797  0.00  0.00    +0.000 C 
ATOM     21  C   UNL     1      -3.246  12.204  23.768  0.00  0.00    +0.000 C 
ENDBRANCH   1  20
BRANCH   6  22
ATOM     22  O   UNL     1       0.539  11.374  21.983  0.00  0.00    +0.000 OA
BRANCH  22  23
ATOM     23  C   UNL     1       0.631  10.098  22.451  0.00  0.00    +0.000 C 
ATOM     24  C   UNL     1      -0.667   9.596  23.027  0.00  0.00    +0.000 C 
ATOM     25  O   UNL     1       1.652   9.417  22.433  0.00  0.00    +0.000 OA
ENDBRANCH  22  23
ENDBRANCH   6  22
BRANCH  17  26
ATOM     26  O   UNL     1      -2.452  15.639  23.664  0.00  0.00    +0.000 OA
BRANCH  26  27
ATOM     27  C   UNL     1      -2.765  15.873  24.956  0.00  0.00    +0.000 C 
ATOM     28  C   UNL     1      -4.127  16.530  25.013  0.00  0.00    +0.000 C 
ATOM     29  O   UNL     1      -2.072  15.609  25.923  0.00  0.00    +0.000 OA
ENDBRANCH  26  27
ENDBRANCH  17  26
TORSDOF 5
ENDMDL
MODEL 4
REMARK VINA RESULT:      -4.9      1.082      1.154
REMARK  Name = 
REMARK  11 active torsions:
REMARK  status: ('A' for Active; 'I' for Inactive)
REMARK    1  A    between atoms: C_2  and  C_3
REMARK    2  A    between atoms: C_2  and  C_4
REMARK    3  A    between atoms: C_7  and  C_8
REMARK    4  A    between atoms: C_9  and  O_10
REMARK    5  A    between atoms: O_10  and  C_11
REMARK    6  A    between atoms: C_11  and  C_12
REMARK    7  A    between atoms: C_16  and  C_17
REMARK    8  A    between atoms: C_22  and  C_23
REMARK    9  A    between atoms: C_24  and  O_25
REMARK   10  A    between atoms: O_25  and  C_26
REMARK   11  A    between atoms: C_26  and  C_27
REMARK                            x       y       z     vdW  Elec       q    Type
REMARK                         _______ _______ _______ _____ _____    ______ ____
ROOT
ATOM      1  C   UNL     1      -2.867  14.833  22.004  0.00  0.00    +0.000 C 
ATOM      2  C   UNL     1      -2.617  14.214  20.570  0.00  0.00    +0.000 C 
ATOM      3  C   UNL     1      -2.928  12.680  20.460  0.00  0.00    +0.000 C 
ATOM      4  C   UNL     1      -1.941  11.677  19.750  0.00  0.00    +0.000 C 
ATOM      5  C   UNL     1      -1.732  12.039  18.268  0.00  0.00    +0.000 C 
ATOM      6  C   UNL     1      -0.558  11.272  20.457  0.00  0.00    +0.000 C 
ATOM      7  C   UNL     1       0.549  12.288  20.009  0.00  0.00    +0.000 C 
ATOM      8  C   UNL     1       1.787  12.692  20.837  0.00  0.00    +0.000 C 
ATOM      9  C   UNL     1       2.405  14.111  20.437  0.00  0.00    +0.000 C 
ATOM     10  C   UNL     1       1.909  14.659  19.083  0.00  0.00    +0.000 C 
ATOM     11  C   UNL     1       2.402  15.134  21.615  0.00  0.00    +0.000 C 
ATOM     12  C   UNL     1       2.202  16.631  21.333  0.00  0.00    +0.000 C 
ATOM     13  O   UNL     1       2.885  17.215  20.488  0.00  0.00    +0.000 OA
ATOM     14  C   UNL     1       1.210  17.431  22.192  0.00  0.00    +0.000 C 
ATOM     15  C   UNL     1      -0.275  17.508  21.709  0.00  0.00    +0.000 C 
ATOM     16  C   UNL     1      -0.449  16.870  20.344  0.00  0.00    +0.000 C 
ATOM     17  C   UNL     1      -1.339  17.050  22.770  0.00  0.00    +0.000 C 
ATOM     18  C   UNL     1      -2.662  16.382  22.215  0.00  0.00    +0.000 C 
ENDROOT
BRANCH   1  20
ATOM     19  C   UNL     1      -0.889  13.697  23.020  0.00  0.00    +0.000 C 
ATOM     20  C   UNL     1      -2.171  14.078  23.107  0.00  0.00    +0.000 C 
ATOM     21  C   UNL     1      -3.039  13.718  24.255  0.00  0.00    +0.000 C 
ENDBRANCH   1  20
BRANCH   6  22
ATOM     22  O   UNL     1      -0.630  11.114  21.889  0.00  0.00    +0.000 OA
BRANCH  22  23
ATOM     23  C   UNL     1      -0.194   9.964  22.474  0.00  0.00    +0.000 C 
ATOM     24  C   UNL     1      -0.247   8.781  21.542  0.00  0.00    +0.000 C 
ATOM     25  O   UNL     1       0.187   9.871  23.637  0.00  0.00    +0.000 OA
ENDBRANCH  22  23
ENDBRANCH   6  22
BRANCH  17  26
ATOM     26  O   UNL     1      -0.641  16.261  23.754  0.00  0.00    +0.000 OA
BRANCH  26  27
ATOM     27  C   UNL     1      -0.466  16.625  25.042  0.00  0.00    +0.000 C 
ATOM     28  C   UNL     1      -1.783  17.139  25.583  0.00  0.00    +0.000 C 
ATOM     29  O   UNL     1       0.575  16.560  25.673  0.00  0.00    +0.000 OA
ENDBRANCH  26  27
ENDBRANCH  17  26
TORSDOF 5
ENDMDL
MODEL 5
REMARK VINA RESULT:      -4.9      1.674      5.939
REMARK  Name = 
REMARK  11 active torsions:
REMARK  status: ('A' for Active; 'I' for Inactive)
REMARK    1  A    between atoms: C_2  and  C_3
REMARK    2  A    between atoms: C_2  and  C_4
REMARK    3  A    between atoms: C_7  and  C_8
REMARK    4  A    between atoms: C_9  and  O_10
REMARK    5  A    between atoms: O_10  and  C_11
REMARK    6  A    between atoms: C_11  and  C_12
REMARK    7  A    between atoms: C_16  and  C_17
REMARK    8  A    between atoms: C_22  and  C_23
REMARK    9  A    between atoms: C_24  and  O_25
REMARK   10  A    between atoms: O_25  and  C_26
REMARK   11  A    between atoms: C_26  and  C_27
REMARK                            x       y       z     vdW  Elec       q    Type
REMARK                         _______ _______ _______ _____ _____    ______ ____
ROOT
ATOM      1  C   UNL     1      -0.158  13.777  18.913  0.00  0.00    +0.000 C 
ATOM      2  C   UNL     1      -0.595  15.297  18.906  0.00  0.00    +0.000 C 
ATOM      3  C   UNL     1       0.560  16.305  18.575  0.00  0.00    +0.000 C 
ATOM      4  C   UNL     1       0.791  17.616  19.418  0.00  0.00    +0.000 C 
ATOM      5  C   UNL     1      -0.433  18.549  19.365  0.00  0.00    +0.000 C 
ATOM      6  C   UNL     1       1.395  17.523  20.902  0.00  0.00    +0.000 C 
ATOM      7  C   UNL     1       0.209  17.378  21.917  0.00  0.00    +0.000 C 
ATOM      8  C   UNL     1       0.275  16.663  23.282  0.00  0.00    +0.000 C 
ATOM      9  C   UNL     1      -1.142  16.159  23.826  0.00  0.00    +0.000 C 
ATOM     10  C   UNL     1      -2.354  16.779  23.102  0.00  0.00    +0.000 C 
ATOM     11  C   UNL     1      -1.204  14.614  24.033  0.00  0.00    +0.000 C 
ATOM     12  C   UNL     1      -2.519  13.858  23.792  0.00  0.00    +0.000 C 
ATOM     13  O   UNL     1      -3.570  14.230  24.318  0.00  0.00    +0.000 OA
ATOM     14  C   UNL     1      -2.499  12.560  22.969  0.00  0.00    +0.000 C 
ATOM     15  C   UNL     1      -2.698  12.675  21.423  0.00  0.00    +0.000 C 
ATOM     16  C   UNL     1      -3.032  14.095  21.010  0.00  0.00    +0.000 C 
ATOM     17  C   UNL     1      -1.569  12.005  20.560  0.00  0.00    +0.000 C 
ATOM     18  C   UNL     1      -1.252  12.668  19.157  0.00  0.00    +0.000 C 
ENDROOT
BRANCH   1  20
ATOM     19  C   UNL     1       1.116  13.945  21.054  0.00  0.00    +0.000 C 
ATOM     20  C   UNL     1       1.037  13.507  19.790  0.00  0.00    +0.000 C 
ATOM     21  C   UNL     1       2.150  12.794  19.117  0.00  0.00    +0.000 C 
ENDBRANCH   1  20
BRANCH   6  22
ATOM     22  O   UNL     1       2.414  16.519  21.082  0.00  0.00    +0.000 OA
BRANCH  22  23
ATOM     23  C   UNL     1       3.658  16.703  20.557  0.00  0.00    +0.000 C 
ATOM     24  C   UNL     1       4.458  15.429  20.495  0.00  0.00    +0.000 C 
ATOM     25  O   UNL     1       4.108  17.783  20.185  0.00  0.00    +0.000 OA
ENDBRANCH  22  23
ENDBRANCH   6  22
BRANCH  17  26
ATOM     26  O   UNL     1      -0.421  11.849  21.417  0.00  0.00    +0.000 OA
BRANCH  26  27
ATOM     27  C   UNL     1       0.042  10.662  21.865  0.00  0.00    +0.000 C 
ATOM     28  C   UNL     1       0.304   9.764  20.676  0.00  0.00    +0.000 C 
ATOM     29  O   UNL     1       0.218  10.353  23.031  0.00  0.00    +0.000 OA
ENDBRANCH  26  27
ENDBRANCH  17  26
TORSDOF 5
ENDMDL
MODEL 6
REMARK VINA RESULT:      -4.9      6.802      9.556
REMARK  Name = 
REMARK  11 active torsions:
REMARK  status: ('A' for Active; 'I' for Inactive)
REMARK    1  A    between atoms: C_2  and  C_3
REMARK    2  A    between atoms: C_2  and  C_4
REMARK    3  A    between atoms: C_7  and  C_8
REMARK    4  A    between atoms: C_9  and  O_10
REMARK    5  A    between atoms: O_10  and  C_11
REMARK    6  A    between atoms: C_11  and  C_12
REMARK    7  A    between atoms: C_16  and  C_17
REMARK    8  A    between atoms: C_22  and  C_23
REMARK    9  A    between atoms: C_24  and  O_25
REMARK   10  A    between atoms: O_25  and  C_26
REMARK   11  A    between atoms: C_26  and  C_27
REMARK                            x       y       z     vdW  Elec       q    Type
REMARK                         _______ _______ _______ _____ _____    ______ ____
ROOT
ATOM      1  C   UNL     1       6.651  16.783  18.726  0.00  0.00    +0.000 C 
ATOM      2  C   UNL     1       8.193  17.125  18.657  0.00  0.00    +0.000 C 
ATOM      3  C   UNL     1       8.988  16.334  17.561  0.00  0.00    +0.000 C 
ATOM      4  C   UNL     1      10.375  15.651  17.864  0.00  0.00    +0.000 C 
ATOM      5  C   UNL     1      11.432  16.682  18.301  0.00  0.00    +0.000 C 
ATOM      6  C   UNL     1      10.440  14.325  18.766  0.00  0.00    +0.000 C 
ATOM      7  C   UNL     1      10.601  14.748  20.267  0.00  0.00    +0.000 C 
ATOM      8  C   UNL     1      10.105  13.944  21.486  0.00  0.00    +0.000 C 
ATOM      9  C   UNL     1       9.870  14.827  22.799  0.00  0.00    +0.000 C 
ATOM     10  C   UNL     1      10.514  16.226  22.744  0.00  0.00    +0.000 C 
ATOM     11  C   UNL     1       8.396  14.788  23.307  0.00  0.00    +0.000 C 
ATOM     12  C   UNL     1       7.779  16.026  23.974  0.00  0.00    +0.000 C 
ATOM     13  O   UNL     1       8.354  16.601  24.901  0.00  0.00    +0.000 OA
ATOM     14  C   UNL     1       6.377  16.489  23.548  0.00  0.00    +0.000 C 
ATOM     15  C   UNL     1       6.273  17.514  22.372  0.00  0.00    +0.000 C 
ATOM     16  C   UNL     1       7.642  17.998  21.935  0.00  0.00    +0.000 C 
ATOM     17  C   UNL     1       5.344  17.066  21.186  0.00  0.00    +0.000 C 
ATOM     18  C   UNL     1       5.736  17.573  19.739  0.00  0.00    +0.000 C 
ENDROOT
BRANCH   1  20
ATOM     19  C   UNL     1       7.013  14.524  19.727  0.00  0.00    +0.000 C 
ATOM     20  C   UNL     1       6.375  15.306  18.846  0.00  0.00    +0.000 C 
ATOM     21  C   UNL     1       5.406  14.775  17.856  0.00  0.00    +0.000 C 
ENDBRANCH   1  20
BRANCH   6  22
ATOM     22  O   UNL     1       9.358  13.394  18.558  0.00  0.00    +0.000 OA
BRANCH  22  23
ATOM     23  C   UNL     1       9.621  12.109  18.190  0.00  0.00    +0.000 C 
ATOM     24  C   UNL     1      11.086  11.864  17.938  0.00  0.00    +0.000 C 
ATOM     25  O   UNL     1       8.773  11.232  18.054  0.00  0.00    +0.000 OA
ENDBRANCH  22  23
ENDBRANCH   6  22
BRANCH  17  26
ATOM     26  O   UNL     1       5.182  15.638  21.293  0.00  0.00    +0.000 OA
BRANCH  26  27
ATOM     27  C   UNL     1       4.028  15.023  21.628  0.00  0.00    +0.000 C 
ATOM     28  C   UNL     1       2.975  15.374  20.599  0.00  0.00    +0.000 C 
ATOM     29  O   UNL     1       3.850  14.307  22.599  0.00  0.00    +0.000 OA
ENDBRANCH  26  27
ENDBRANCH  17  26
TORSDOF 5
ENDMDL
MODEL 7
REMARK VINA RESULT:      -4.8      2.880      6.322
REMARK  Name = 
REMARK  11 active torsions:
REMARK  status: ('A' for Active; 'I' for Inactive)
REMARK    1  A    between atoms: C_2  and  C_3
REMARK    2  A    between atoms: C_2  and  C_4
REMARK    3  A    between atoms: C_7  and  C_8
REMARK    4  A    between atoms: C_9  and  O_10
REMARK    5  A    between atoms: O_10  and  C_11
REMARK    6  A    between atoms: C_11  and  C_12
REMARK    7  A    between atoms: C_16  and  C_17
REMARK    8  A    between atoms: C_22  and  C_23
REMARK    9  A    between atoms: C_24  and  O_25
REMARK   10  A    between atoms: O_25  and  C_26
REMARK   11  A    between atoms: C_26  and  C_27
REMARK                            x       y       z     vdW  Elec       q    Type
REMARK                         _______ _______ _______ _____ _____    ______ ____
ROOT
ATOM      1  C   UNL     1      -1.679  13.915  21.362  0.00  0.00    +0.000 C 
ATOM      2  C   UNL     1      -2.727  14.664  20.444  0.00  0.00    +0.000 C 
ATOM      3  C   UNL     1      -3.987  15.208  21.203  0.00  0.00    +0.000 C 
ATOM      4  C   UNL     1      -5.448  15.004  20.650  0.00  0.00    +0.000 C 
ATOM      5  C   UNL     1      -5.632  15.665  19.272  0.00  0.00    +0.000 C 
ATOM      6  C   UNL     1      -6.133  13.553  20.701  0.00  0.00    +0.000 C 
ATOM      7  C   UNL     1      -5.791  12.792  19.374  0.00  0.00    +0.000 C 
ATOM      8  C   UNL     1      -5.676  11.261  19.220  0.00  0.00    +0.000 C 
ATOM      9  C   UNL     1      -4.779  10.796  17.980  0.00  0.00    +0.000 C 
ATOM     10  C   UNL     1      -4.492  11.909  16.953  0.00  0.00    +0.000 C 
ATOM     11  C   UNL     1      -3.544   9.942  18.405  0.00  0.00    +0.000 C 
ATOM     12  C   UNL     1      -2.232  10.040  17.612  0.00  0.00    +0.000 C 
ATOM     13  O   UNL     1      -2.221   9.915  16.385  0.00  0.00    +0.000 OA
ATOM     14  C   UNL     1      -0.905  10.191  18.371  0.00  0.00    +0.000 C 
ATOM     15  C   UNL     1      -0.405  11.639  18.686  0.00  0.00    +0.000 C 
ATOM     16  C   UNL     1      -1.287  12.685  18.032  0.00  0.00    +0.000 C 
ATOM     17  C   UNL     1      -0.098  11.917  20.202  0.00  0.00    +0.000 C 
ATOM     18  C   UNL     1      -0.336  13.393  20.721  0.00  0.00    +0.000 C 
ENDROOT
BRANCH   1  20
ATOM     19  C   UNL     1      -3.174  11.944  21.699  0.00  0.00    +0.000 C 
ATOM     20  C   UNL     1      -2.296  12.824  22.198  0.00  0.00    +0.000 C 
ATOM     21  C   UNL     1      -1.919  12.855  23.632  0.00  0.00    +0.000 C 
ENDBRANCH   1  20
BRANCH   6  22
ATOM     22  O   UNL     1      -5.837  12.782  21.883  0.00  0.00    +0.000 OA
BRANCH  22  23
ATOM     23  C   UNL     1      -6.787  12.609  22.844  0.00  0.00    +0.000 C 
ATOM     24  C   UNL     1      -6.860  13.766  23.806  0.00  0.00    +0.000 C 
ATOM     25  O   UNL     1      -7.506  11.618  22.948  0.00  0.00    +0.000 OA
ENDBRANCH  22  23
ENDBRANCH   6  22
BRANCH  17  26
ATOM     26  O   UNL     1      -0.780  10.900  20.963  0.00  0.00    +0.000 OA
BRANCH  26  27
ATOM     27  C   UNL     1      -0.192  10.122  21.897  0.00  0.00    +0.000 C 
ATOM     28  C   UNL     1      -0.575   8.681  21.637  0.00  0.00    +0.000 C 
ATOM     29  O   UNL     1       0.524  10.506  22.805  0.00  0.00    +0.000 OA
ENDBRANCH  26  27
ENDBRANCH  17  26
TORSDOF 5
ENDMDL
MODEL 8
REMARK VINA RESULT:      -4.8      1.106      1.253
REMARK  Name = 
REMARK  11 active torsions:
REMARK  status: ('A' for Active; 'I' for Inactive)
REMARK    1  A    between atoms: C_2  and  C_3
REMARK    2  A    between atoms: C_2  and  C_4
REMARK    3  A    between atoms: C_7  and  C_8
REMARK    4  A    between atoms: C_9  and  O_10
REMARK    5  A    between atoms: O_10  and  C_11
REMARK    6  A    between atoms: C_11  and  C_12
REMARK    7  A    between atoms: C_16  and  C_17
REMARK    8  A    between atoms: C_22  and  C_23
REMARK    9  A    between atoms: C_24  and  O_25
REMARK   10  A    between atoms: O_25  and  C_26
REMARK   11  A    between atoms: C_26  and  C_27
REMARK                            x       y       z     vdW  Elec       q    Type
REMARK                         _______ _______ _______ _____ _____    ______ ____
ROOT
ATOM      1  C   UNL     1      -3.003  13.762  21.470  0.00  0.00    +0.000 C 
ATOM      2  C   UNL     1      -2.413  13.161  20.132  0.00  0.00    +0.000 C 
ATOM      3  C   UNL     1      -2.198  11.607  20.156  0.00  0.00    +0.000 C 
ATOM      4  C   UNL     1      -0.869  10.939  19.633  0.00  0.00    +0.000 C 
ATOM      5  C   UNL     1      -0.629  11.243  18.143  0.00  0.00    +0.000 C 
ATOM      6  C   UNL     1       0.486  11.067  20.485  0.00  0.00    +0.000 C 
ATOM      7  C   UNL     1       1.246  12.358  20.023  0.00  0.00    +0.000 C 
ATOM      8  C   UNL     1       2.190  13.207  20.899  0.00  0.00    +0.000 C 
ATOM      9  C   UNL     1       2.357  14.719  20.405  0.00  0.00    +0.000 C 
ATOM     10  C   UNL     1       1.860  14.973  18.968  0.00  0.00    +0.000 C 
ATOM     11  C   UNL     1       1.896  15.764  21.467  0.00  0.00    +0.000 C 
ATOM     12  C   UNL     1       1.256  17.085  21.018  0.00  0.00    +0.000 C 
ATOM     13  O   UNL     1       1.800  17.801  20.174  0.00  0.00    +0.000 OA
ATOM     14  C   UNL     1      -0.028  17.571  21.709  0.00  0.00    +0.000 C 
ATOM     15  C   UNL     1      -1.397  17.117  21.105  0.00  0.00    +0.000 C 
ATOM     16  C   UNL     1      -1.207  16.362  19.804  0.00  0.00    +0.000 C 
ATOM     17  C   UNL     1      -2.365  16.409  22.121  0.00  0.00    +0.000 C 
ATOM     18  C   UNL     1      -3.333  15.303  21.535  0.00  0.00    +0.000 C 
ENDROOT
BRANCH   1  20
ATOM     19  C   UNL     1      -0.888  13.447  22.759  0.00  0.00    +0.000 C 
ATOM     20  C   UNL     1      -2.224  13.362  22.696  0.00  0.00    +0.000 C 
ATOM     21  C   UNL     1      -3.044  12.789  23.791  0.00  0.00    +0.000 C 
ENDBRANCH   1  20
BRANCH   6  22
ATOM     22  O   UNL     1       0.314  10.997  21.915  0.00  0.00    +0.000 OA
BRANCH  22  23
ATOM     23  C   UNL     1       0.562   9.834  22.578  0.00  0.00    +0.000 C 
ATOM     24  C   UNL     1       1.124   8.761  21.682  0.00  0.00    +0.000 C 
ATOM     25  O   UNL     1       0.342   9.648  23.772  0.00  0.00    +0.000 OA
ENDBRANCH  22  23
ENDBRANCH   6  22
BRANCH  17  26
ATOM     26  O   UNL     1      -1.560  15.969  23.233  0.00  0.00    +0.000 OA
BRANCH  26  27
ATOM     27  C   UNL     1      -1.819  16.258  24.526  0.00  0.00    +0.000 C 
ATOM     28  C   UNL     1      -0.516  16.606  25.214  0.00  0.00    +0.000 C 
ATOM     29  O   UNL     1      -2.913  16.240  25.061  0.00  0.00    +0.000 OA
ENDBRANCH  26  27
ENDBRANCH  17  26
TORSDOF 5
ENDMDL
MODEL 9
REMARK VINA RESULT:      -4.7      6.876      9.702
REMARK  Name = 
REMARK  11 active torsions:
REMARK  status: ('A' for Active; 'I' for Inactive)
REMARK    1  A    between atoms: C_2  and  C_3
REMARK    2  A    between atoms: C_2  and  C_4
REMARK    3  A    between atoms: C_7  and  C_8
REMARK    4  A    between atoms: C_9  and  O_10
REMARK    5  A    between atoms: O_10  and  C_11
REMARK    6  A    between atoms: C_11  and  C_12
REMARK    7  A    between atoms: C_16  and  C_17
REMARK    8  A    between atoms: C_22  and  C_23
REMARK    9  A    between atoms: C_24  and  O_25
REMARK   10  A    between atoms: O_25  and  C_26
REMARK   11  A    between atoms: C_26  and  C_27
REMARK                            x       y       z     vdW  Elec       q    Type
REMARK                         _______ _______ _______ _____ _____    ______ ____
ROOT
ATOM      1  C   UNL     1       6.707  16.826  18.701  0.00  0.00    +0.000 C 
ATOM      2  C   UNL     1       8.213  17.301  18.793  0.00  0.00    +0.000 C 
ATOM      3  C   UNL     1       9.154  16.700  17.691  0.00  0.00    +0.000 C 
ATOM      4  C   UNL     1      10.572  16.106  18.037  0.00  0.00    +0.000 C 
ATOM      5  C   UNL     1      11.496  17.170  18.660  0.00  0.00    +0.000 C 
ATOM      6  C   UNL     1      10.692  14.702  18.805  0.00  0.00    +0.000 C 
ATOM      7  C   UNL     1      10.705  14.975  20.349  0.00  0.00    +0.000 C 
ATOM      8  C   UNL     1      10.197  14.008  21.437  0.00  0.00    +0.000 C 
ATOM      9  C   UNL     1       9.788  14.723  22.808  0.00  0.00    +0.000 C 
ATOM     10  C   UNL     1      10.304  16.169  22.945  0.00  0.00    +0.000 C 
ATOM     11  C   UNL     1       8.290  14.507  23.188  0.00  0.00    +0.000 C 
ATOM     12  C   UNL     1       7.517  15.612  23.922  0.00  0.00    +0.000 C 
ATOM     13  O   UNL     1       7.968  16.131  24.945  0.00  0.00    +0.000 OA
ATOM     14  C   UNL     1       6.113  16.000  23.432  0.00  0.00    +0.000 C 
ATOM     15  C   UNL     1       6.002  17.131  22.358  0.00  0.00    +0.000 C 
ATOM     16  C   UNL     1       7.348  17.771  22.085  0.00  0.00    +0.000 C 
ATOM     17  C   UNL     1       5.205  16.736  21.062  0.00  0.00    +0.000 C 
ATOM     18  C   UNL     1       5.654  17.426  19.710  0.00  0.00    +0.000 C 
ENDROOT
BRANCH   1  20
ATOM     19  C   UNL     1       5.766  14.712  17.763  0.00  0.00    +0.000 C 
ATOM     20  C   UNL     1       6.560  15.327  18.650  0.00  0.00    +0.000 C 
ATOM     21  C   UNL     1       7.294  14.596  19.711  0.00  0.00    +0.000 C 
ENDBRANCH   1  20
BRANCH   6  22
ATOM     22  O   UNL     1       9.718  13.712  18.418  0.00  0.00    +0.000 OA
BRANCH  22  23
ATOM     23  C   UNL     1      10.123  12.507  17.928  0.00  0.00    +0.000 C 
ATOM     24  C   UNL     1       9.145  11.400  18.223  0.00  0.00    +0.000 C 
ATOM     25  O   UNL     1      11.175  12.314  17.325  0.00  0.00    +0.000 OA
ENDBRANCH  22  23
ENDBRANCH   6  22
BRANCH  17  26
ATOM     26  O   UNL     1       5.167  15.297  21.013  0.00  0.00    +0.000 OA
BRANCH  26  27
ATOM     27  C   UNL     1       4.053  14.555  21.191  0.00  0.00    +0.000 C 
ATOM     28  C   UNL     1       2.985  15.050  20.240  0.00  0.00    +0.000 C 
ATOM     29  O   UNL     1       3.917  13.641  21.986  0.00  0.00    +0.000 OA
ENDBRANCH  26  27
ENDBRANCH  17  26
TORSDOF 5
ENDMDL
