MODEL 1
REMARK VINA RESULT:      -8.5      0.000      0.000
REMARK  Name = 
REMARK  10 active torsions:
REMARK  status: ('A' for Active; 'I' for Inactive)
REMARK    1  A    between atoms: C_1  and  C_2
REMARK    2  A    between atoms: C_2  and  C_3
REMARK    3  A    between atoms: C_3  and  C_4
REMARK    4  A    between atoms: C_4  and  C_5
REMARK    5  A    between atoms: C_5  and  O_6
REMARK    6  A    between atoms: O_6  and  C_7
REMARK    7  A    between atoms: C_7  and  C_9
REMARK    8  A    between atoms: C_20  and  C_21
REMARK    9  A    between atoms: C_29  and  N_30
REMARK   10  A    between atoms: C_31  and  C_32
REMARK                            x       y       z     vdW  Elec       q    Type
REMARK                         _______ _______ _______ _____ _____    ______ ____
ROOT
ATOM      1  C   UNL     1       1.225  10.587  18.541  0.00  0.00    +0.000 A 
ATOM      2  C   UNL     1       2.029  11.720  18.471  0.00  0.00    +0.000 A 
ATOM      3  C   UNL     1       1.375  12.965  18.537  0.00  0.00    +0.000 A 
ATOM      4  C   UNL     1      -0.013  12.977  18.652  0.00  0.00    +0.000 A 
ATOM      5  N   UNL     1      -0.408  14.293  18.705  0.00  0.00    +0.000 N 
ATOM      6  C   UNL     1       0.671  15.134  18.630  0.00  0.00    +0.000 A 
ATOM      7  C   UNL     1       0.717  16.531  18.665  0.00  0.00    +0.000 A 
ATOM      8  C   UNL     1       1.969  17.135  18.544  0.00  0.00    +0.000 A 
ATOM      9  C   UNL     1       3.122  16.369  18.385  0.00  0.00    +0.000 A 
ATOM     10  C   UNL     1       3.055  14.969  18.358  0.00  0.00    +0.000 A 
ATOM     11  C   UNL     1       1.805  14.333  18.495  0.00  0.00    +0.000 A 
ATOM     12  C   UNL     1      -0.784  11.815  18.686  0.00  0.00    +0.000 A 
ATOM     13  N   UNL     1      -0.129  10.623  18.640  0.00  0.00    +0.000 NA
ATOM     14  H   UNL     1      -1.378  14.582  18.784  0.00  0.00    +0.000 HD
ENDROOT
BRANCH  12  15
ATOM     15  C   UNL     1      -2.256  11.807  18.725  0.00  0.00    +0.000 A 
ATOM     16  C   UNL     1      -2.995  11.263  17.675  0.00  0.00    +0.000 A 
ATOM     17  C   UNL     1      -4.382  11.303  17.723  0.00  0.00    +0.000 A 
ATOM     18  C   UNL     1      -5.006  11.885  18.823  0.00  0.00    +0.000 A 
ATOM     19  C   UNL     1      -4.229  12.406  19.836  0.00  0.00    +0.000 A 
ATOM     20  N   UNL     1      -2.864  12.376  19.811  0.00  0.00    +0.000 NA
ATOM     21  C   UNL     1      -4.865  13.040  21.028  0.00  0.00    +0.000 C 
ATOM     22  O   UNL     1      -4.205  13.525  21.945  0.00  0.00    +0.000 OA
ATOM     23  C   UNL     1      -6.369  13.068  21.091  0.00  0.00    +0.000 C 
ATOM     24  C   UNL     1      -7.076  12.542  20.082  0.00  0.00    +0.000 C 
ATOM     25  C   UNL     1      -6.462  11.937  18.896  0.00  0.00    +0.000 C 
ATOM     26  O   UNL     1      -7.158  11.483  17.992  0.00  0.00    +0.000 OA
BRANCH  23  27
ATOM     27  N   UNL     1      -6.929  13.652  22.221  0.00  0.00    +0.000 N 
ATOM     28  C   UNL     1      -7.340  13.010  23.377  0.00  0.00    +0.000 C 
ATOM     29  C   UNL     1      -7.917  13.908  24.438  0.00  0.00    +0.000 C 
ATOM     30  O   UNL     1      -7.268  11.802  23.582  0.00  0.00    +0.000 OA
ATOM     31  H   UNL     1      -7.038  14.665  22.162  0.00  0.00    +0.000 HD
ENDBRANCH  23  27
ENDBRANCH  12  15
BRANCH   1  32
ATOM     32  C   UNL     1       1.846   9.231  18.368  0.00  0.00    +0.000 C 
ATOM     33  O   UNL     1       2.302   8.809  17.316  0.00  0.00    +0.000 OA
BRANCH  32  34
ATOM     34  O   UNL     1       1.696   8.504  19.509  0.00  0.00    +0.000 OA
BRANCH  34  35
ATOM     35  C   UNL     1       2.361   7.236  19.497  0.00  0.00    +0.000 C 
BRANCH  35  36
ATOM     36  C   UNL     1       1.742   6.244  20.475  0.00  0.00    +0.000 C 
BRANCH  36  37
ATOM     37  C   UNL     1       2.101   4.810  20.069  0.00  0.00    +0.000 C 
BRANCH  37  39
ATOM     38  C   UNL     1       1.301   2.832  21.409  0.00  0.00    +0.000 C 
ATOM     39  C   UNL     1       2.366   3.911  21.275  0.00  0.00    +0.000 C 
ENDBRANCH  37  39
ENDBRANCH  36  37
ENDBRANCH  35  36
ENDBRANCH  34  35
ENDBRANCH  32  34
ENDBRANCH   1  32
TORSDOF 8
ENDMDL
MODEL 2
REMARK VINA RESULT:      -8.2      4.204      8.285
REMARK  Name = 
REMARK  10 active torsions:
REMARK  status: ('A' for Active; 'I' for Inactive)
REMARK    1  A    between atoms: C_1  and  C_2
REMARK    2  A    between atoms: C_2  and  C_3
REMARK    3  A    between atoms: C_3  and  C_4
REMARK    4  A    between atoms: C_4  and  C_5
REMARK    5  A    between atoms: C_5  and  O_6
REMARK    6  A    between atoms: O_6  and  C_7
REMARK    7  A    between atoms: C_7  and  C_9
REMARK    8  A    between atoms: C_20  and  C_21
REMARK    9  A    between atoms: C_29  and  N_30
REMARK   10  A    between atoms: C_31  and  C_32
REMARK                            x       y       z     vdW  Elec       q    Type
REMARK                         _______ _______ _______ _____ _____    ______ ____
ROOT
ATOM      1  C   UNL     1       5.129   5.861  17.399  0.00  0.00    +0.000 A 
ATOM      2  C   UNL     1       4.861   4.714  18.140  0.00  0.00    +0.000 A 
ATOM      3  C   UNL     1       3.741   4.757  18.991  0.00  0.00    +0.000 A 
ATOM      4  C   UNL     1       2.996   5.932  19.044  0.00  0.00    +0.000 A 
ATOM      5  N   UNL     1       1.964   5.724  19.928  0.00  0.00    +0.000 N 
ATOM      6  C   UNL     1       2.012   4.459  20.450  0.00  0.00    +0.000 A 
ATOM      7  C   UNL     1       1.153   3.837  21.362  0.00  0.00    +0.000 A 
ATOM      8  C   UNL     1       1.457   2.529  21.741  0.00  0.00    +0.000 A 
ATOM      9  C   UNL     1       2.581   1.879  21.235  0.00  0.00    +0.000 A 
ATOM     10  C   UNL     1       3.426   2.518  20.317  0.00  0.00    +0.000 A 
ATOM     11  C   UNL     1       3.133   3.833  19.904  0.00  0.00    +0.000 A 
ATOM     12  C   UNL     1       3.319   7.073  18.307  0.00  0.00    +0.000 A 
ATOM     13  N   UNL     1       4.395   7.002  17.477  0.00  0.00    +0.000 NA
ATOM     14  H   UNL     1       1.272   6.431  20.155  0.00  0.00    +0.000 HD
ENDROOT
BRANCH  12  15
ATOM     15  C   UNL     1       2.593   8.350  18.409  0.00  0.00    +0.000 A 
ATOM     16  C   UNL     1       2.869   9.399  17.533  0.00  0.00    +0.000 A 
ATOM     17  C   UNL     1       2.194  10.604  17.677  0.00  0.00    +0.000 A 
ATOM     18  C   UNL     1       1.254  10.738  18.696  0.00  0.00    +0.000 A 
ATOM     19  C   UNL     1       1.018   9.668  19.533  0.00  0.00    +0.000 A 
ATOM     20  N   UNL     1       1.667   8.474  19.408  0.00  0.00    +0.000 NA
ATOM     21  C   UNL     1       0.019   9.778  20.636  0.00  0.00    +0.000 C 
ATOM     22  O   UNL     1      -0.211   8.850  21.410  0.00  0.00    +0.000 OA
ATOM     23  C   UNL     1      -0.726  11.078  20.783  0.00  0.00    +0.000 C 
ATOM     24  C   UNL     1      -0.462  12.084  19.938  0.00  0.00    +0.000 C 
ATOM     25  C   UNL     1       0.533  11.994  18.865  0.00  0.00    +0.000 C 
ATOM     26  O   UNL     1       0.748  12.953  18.128  0.00  0.00    +0.000 OA
BRANCH  23  27
ATOM     27  N   UNL     1      -1.660  11.141  21.811  0.00  0.00    +0.000 N 
ATOM     28  C   UNL     1      -1.742  12.098  22.808  0.00  0.00    +0.000 C 
ATOM     29  C   UNL     1      -2.863  11.902  23.793  0.00  0.00    +0.000 C 
ATOM     30  O   UNL     1      -0.986  13.057  22.936  0.00  0.00    +0.000 OA
ATOM     31  H   UNL     1      -2.345  10.385  21.805  0.00  0.00    +0.000 HD
ENDBRANCH  23  27
ENDBRANCH  12  15
BRANCH   1  32
ATOM     32  C   UNL     1       6.368   5.921  16.555  0.00  0.00    +0.000 C 
ATOM     33  O   UNL     1       7.036   6.928  16.378  0.00  0.00    +0.000 OA
BRANCH  32  34
ATOM     34  O   UNL     1       6.550   4.734  15.913  0.00  0.00    +0.000 OA
BRANCH  34  35
ATOM     35  C   UNL     1       6.733   4.846  14.497  0.00  0.00    +0.000 C 
BRANCH  35  36
ATOM     36  C   UNL     1       5.718   4.023  13.712  0.00  0.00    +0.000 C 
BRANCH  36  37
ATOM     37  C   UNL     1       6.369   3.456  12.444  0.00  0.00    +0.000 C 
BRANCH  37  39
ATOM     38  C   UNL     1       4.140   3.238  11.289  0.00  0.00    +0.000 C 
ATOM     39  C   UNL     1       5.431   2.530  11.672  0.00  0.00    +0.000 C 
ENDBRANCH  37  39
ENDBRANCH  36  37
ENDBRANCH  35  36
ENDBRANCH  34  35
ENDBRANCH  32  34
ENDBRANCH   1  32
TORSDOF 8
ENDMDL
MODEL 3
REMARK VINA RESULT:      -8.1      3.802      7.966
REMARK  Name = 
REMARK  10 active torsions:
REMARK  status: ('A' for Active; 'I' for Inactive)
REMARK    1  A    between atoms: C_1  and  C_2
REMARK    2  A    between atoms: C_2  and  C_3
REMARK    3  A    between atoms: C_3  and  C_4
REMARK    4  A    between atoms: C_4  and  C_5
REMARK    5  A    between atoms: C_5  and  O_6
REMARK    6  A    between atoms: O_6  and  C_7
REMARK    7  A    between atoms: C_7  and  C_9
REMARK    8  A    between atoms: C_20  and  C_21
REMARK    9  A    between atoms: C_29  and  N_30
REMARK   10  A    between atoms: C_31  and  C_32
REMARK                            x       y       z     vdW  Elec       q    Type
REMARK                         _______ _______ _______ _____ _____    ______ ____
ROOT
ATOM      1  C   UNL     1       4.711   6.205  16.909  0.00  0.00    +0.000 A 
ATOM      2  C   UNL     1       4.453   5.031  17.608  0.00  0.00    +0.000 A 
ATOM      3  C   UNL     1       3.412   5.074  18.555  0.00  0.00    +0.000 A 
ATOM      4  C   UNL     1       2.731   6.275  18.735  0.00  0.00    +0.000 A 
ATOM      5  N   UNL     1       1.768   6.061  19.694  0.00  0.00    +0.000 N 
ATOM      6  C   UNL     1       1.801   4.767  20.142  0.00  0.00    +0.000 A 
ATOM      7  C   UNL     1       0.994   4.132  21.091  0.00  0.00    +0.000 A 
ATOM      8  C   UNL     1       1.267   2.793  21.374  0.00  0.00    +0.000 A 
ATOM      9  C   UNL     1       2.311   2.126  20.738  0.00  0.00    +0.000 A 
ATOM     10  C   UNL     1       3.105   2.779  19.784  0.00  0.00    +0.000 A 
ATOM     11  C   UNL     1       2.840   4.126  19.468  0.00  0.00    +0.000 A 
ATOM     12  C   UNL     1       3.043   7.440  18.033  0.00  0.00    +0.000 A 
ATOM     13  N   UNL     1       4.041   7.370  17.110  0.00  0.00    +0.000 NA
ATOM     14  H   UNL     1       1.133   6.783  20.017  0.00  0.00    +0.000 HD
ENDROOT
BRANCH  12  15
ATOM     15  C   UNL     1       2.391   8.739  18.265  0.00  0.00    +0.000 A 
ATOM     16  C   UNL     1       2.752   9.862  17.522  0.00  0.00    +0.000 A 
ATOM     17  C   UNL     1       2.145  11.082  17.788  0.00  0.00    +0.000 A 
ATOM     18  C   UNL     1       1.185  11.156  18.794  0.00  0.00    +0.000 A 
ATOM     19  C   UNL     1       0.862  10.015  19.497  0.00  0.00    +0.000 A 
ATOM     20  N   UNL     1       1.444   8.805  19.251  0.00  0.00    +0.000 NA
ATOM     21  C   UNL     1      -0.161  10.060  20.583  0.00  0.00    +0.000 C 
ATOM     22  O   UNL     1      -0.467   9.065  21.240  0.00  0.00    +0.000 OA
ATOM     23  C   UNL     1      -0.834  11.377  20.862  0.00  0.00    +0.000 C 
ATOM     24  C   UNL     1      -0.486  12.455  20.145  0.00  0.00    +0.000 C 
ATOM     25  C   UNL     1       0.533  12.427  19.090  0.00  0.00    +0.000 C 
ATOM     26  O   UNL     1       0.824  13.448  18.474  0.00  0.00    +0.000 OA
BRANCH  23  27
ATOM     27  N   UNL     1      -1.792  11.381  21.869  0.00  0.00    +0.000 N 
ATOM     28  C   UNL     1      -1.887  12.266  22.929  0.00  0.00    +0.000 C 
ATOM     29  C   UNL     1      -3.035  12.016  23.870  0.00  0.00    +0.000 C 
ATOM     30  O   UNL     1      -1.124  13.204  23.141  0.00  0.00    +0.000 OA
ATOM     31  H   UNL     1      -2.485  10.636  21.793  0.00  0.00    +0.000 HD
ENDBRANCH  23  27
ENDBRANCH  12  15
BRANCH   1  32
ATOM     32  C   UNL     1       5.876   6.259  15.964  0.00  0.00    +0.000 C 
ATOM     33  O   UNL     1       5.940   5.644  14.910  0.00  0.00    +0.000 OA
BRANCH  32  34
ATOM     34  O   UNL     1       6.891   6.976  16.519  0.00  0.00    +0.000 OA
BRANCH  34  35
ATOM     35  C   UNL     1       7.510   6.352  17.649  0.00  0.00    +0.000 C 
BRANCH  35  36
ATOM     36  C   UNL     1       8.135   7.363  18.604  0.00  0.00    +0.000 C 
BRANCH  36  37
ATOM     37  C   UNL     1       8.239   8.734  17.923  0.00  0.00    +0.000 C 
BRANCH  37  39
ATOM     38  C   UNL     1       8.923  11.145  18.181  0.00  0.00    +0.000 C 
ATOM     39  C   UNL     1       9.025   9.741  18.760  0.00  0.00    +0.000 C 
ENDBRANCH  37  39
ENDBRANCH  36  37
ENDBRANCH  35  36
ENDBRANCH  34  35
ENDBRANCH  32  34
ENDBRANCH   1  32
TORSDOF 8
ENDMDL
MODEL 4
REMARK VINA RESULT:      -8.0      2.480      8.513
REMARK  Name = 
REMARK  10 active torsions:
REMARK  status: ('A' for Active; 'I' for Inactive)
REMARK    1  A    between atoms: C_1  and  C_2
REMARK    2  A    between atoms: C_2  and  C_3
REMARK    3  A    between atoms: C_3  and  C_4
REMARK    4  A    between atoms: C_4  and  C_5
REMARK    5  A    between atoms: C_5  and  O_6
REMARK    6  A    between atoms: O_6  and  C_7
REMARK    7  A    between atoms: C_7  and  C_9
REMARK    8  A    between atoms: C_20  and  C_21
REMARK    9  A    between atoms: C_29  and  N_30
REMARK   10  A    between atoms: C_31  and  C_32
REMARK                            x       y       z     vdW  Elec       q    Type
REMARK                         _______ _______ _______ _____ _____    ______ ____
ROOT
ATOM      1  C   UNL     1      -1.603  13.037  20.208  0.00  0.00    +0.000 A 
ATOM      2  C   UNL     1      -0.855  14.129  19.778  0.00  0.00    +0.000 A 
ATOM      3  C   UNL     1       0.457  13.865  19.344  0.00  0.00    +0.000 A 
ATOM      4  C   UNL     1       0.917  12.552  19.387  0.00  0.00    +0.000 A 
ATOM      5  N   UNL     1       2.207  12.553  18.910  0.00  0.00    +0.000 N 
ATOM      6  C   UNL     1       2.600  13.818  18.560  0.00  0.00    +0.000 A 
ATOM      7  C   UNL     1       3.814  14.257  18.023  0.00  0.00    +0.000 A 
ATOM      8  C   UNL     1       3.951  15.624  17.780  0.00  0.00    +0.000 A 
ATOM      9  C   UNL     1       2.918  16.511  18.074  0.00  0.00    +0.000 A 
ATOM     10  C   UNL     1       1.706  16.050  18.608  0.00  0.00    +0.000 A 
ATOM     11  C   UNL     1       1.535  14.671  18.847  0.00  0.00    +0.000 A 
ATOM     12  C   UNL     1       0.143  11.489  19.855  0.00  0.00    +0.000 A 
ATOM     13  N   UNL     1      -1.129  11.764  20.253  0.00  0.00    +0.000 NA
ATOM     14  H   UNL     1       2.777  11.716  18.840  0.00  0.00    +0.000 HD
ENDROOT
BRANCH  12  15
ATOM     15  C   UNL     1       0.637  10.108  19.984  0.00  0.00    +0.000 A 
ATOM     16  C   UNL     1       0.347   9.350  21.118  0.00  0.00    +0.000 A 
ATOM     17  C   UNL     1       0.857   8.063  21.228  0.00  0.00    +0.000 A 
ATOM     18  C   UNL     1       1.647   7.556  20.200  0.00  0.00    +0.000 A 
ATOM     19  C   UNL     1       1.901   8.347  19.099  0.00  0.00    +0.000 A 
ATOM     20  N   UNL     1       1.408   9.613  18.969  0.00  0.00    +0.000 NA
ATOM     21  C   UNL     1       2.746   7.836  17.979  0.00  0.00    +0.000 C 
ATOM     22  O   UNL     1       3.003   8.516  16.987  0.00  0.00    +0.000 OA
ATOM     23  C   UNL     1       3.285   6.435  18.088  0.00  0.00    +0.000 C 
ATOM     24  C   UNL     1       3.003   5.707  19.178  0.00  0.00    +0.000 C 
ATOM     25  C   UNL     1       2.192   6.206  20.293  0.00  0.00    +0.000 C 
ATOM     26  O   UNL     1       1.977   5.503  21.276  0.00  0.00    +0.000 OA
BRANCH  23  27
ATOM     27  N   UNL     1       4.055   5.985  17.022  0.00  0.00    +0.000 N 
ATOM     28  C   UNL     1       5.258   5.304  17.089  0.00  0.00    +0.000 C 
ATOM     29  C   UNL     1       5.868   4.949  15.760  0.00  0.00    +0.000 C 
ATOM     30  O   UNL     1       5.837   4.985  18.124  0.00  0.00    +0.000 OA
ATOM     31  H   UNL     1       3.667   6.198  16.103  0.00  0.00    +0.000 HD
ENDBRANCH  23  27
ENDBRANCH  12  15
BRANCH   1  32
ATOM     32  C   UNL     1      -2.971  13.260  20.785  0.00  0.00    +0.000 C 
ATOM     33  O   UNL     1      -3.260  14.172  21.544  0.00  0.00    +0.000 OA
BRANCH  32  34
ATOM     34  O   UNL     1      -3.790  12.226  20.449  0.00  0.00    +0.000 OA
BRANCH  34  35
ATOM     35  C   UNL     1      -4.794  12.553  19.483  0.00  0.00    +0.000 C 
BRANCH  35  36
ATOM     36  C   UNL     1      -4.982  11.452  18.444  0.00  0.00    +0.000 C 
BRANCH  36  37
ATOM     37  C   UNL     1      -3.783  11.421  17.488  0.00  0.00    +0.000 C 
BRANCH  37  39
ATOM     38  C   UNL     1      -1.805   9.894  17.161  0.00  0.00    +0.000 C 
ATOM     39  C   UNL     1      -3.323   9.998  17.176  0.00  0.00    +0.000 C 
ENDBRANCH  37  39
ENDBRANCH  36  37
ENDBRANCH  35  36
ENDBRANCH  34  35
ENDBRANCH  32  34
ENDBRANCH   1  32
TORSDOF 8
ENDMDL
MODEL 5
REMARK VINA RESULT:      -8.0      4.080      7.841
REMARK  Name = 
REMARK  10 active torsions:
REMARK  status: ('A' for Active; 'I' for Inactive)
REMARK    1  A    between atoms: C_1  and  C_2
REMARK    2  A    between atoms: C_2  and  C_3
REMARK    3  A    between atoms: C_3  and  C_4
REMARK    4  A    between atoms: C_4  and  C_5
REMARK    5  A    between atoms: C_5  and  O_6
REMARK    6  A    between atoms: O_6  and  C_7
REMARK    7  A    between atoms: C_7  and  C_9
REMARK    8  A    between atoms: C_20  and  C_21
REMARK    9  A    between atoms: C_29  and  N_30
REMARK   10  A    between atoms: C_31  and  C_32
REMARK                            x       y       z     vdW  Elec       q    Type
REMARK                         _______ _______ _______ _____ _____    ______ ____
ROOT
ATOM      1  C   UNL     1       4.840   6.625  17.674  0.00  0.00    +0.000 A 
ATOM      2  C   UNL     1       4.819   5.436  18.397  0.00  0.00    +0.000 A 
ATOM      3  C   UNL     1       3.668   5.183  19.166  0.00  0.00    +0.000 A 
ATOM      4  C   UNL     1       2.649   6.132  19.162  0.00  0.00    +0.000 A 
ATOM      5  N   UNL     1       1.643   5.658  19.972  0.00  0.00    +0.000 N 
ATOM      6  C   UNL     1       1.973   4.437  20.500  0.00  0.00    +0.000 A 
ATOM      7  C   UNL     1       1.237   3.606  21.350  0.00  0.00    +0.000 A 
ATOM      8  C   UNL     1       1.834   2.411  21.754  0.00  0.00    +0.000 A 
ATOM      9  C   UNL     1       3.118   2.073  21.331  0.00  0.00    +0.000 A 
ATOM     10  C   UNL     1       3.837   2.918  20.474  0.00  0.00    +0.000 A 
ATOM     11  C   UNL     1       3.250   4.122  20.037  0.00  0.00    +0.000 A 
ATOM     12  C   UNL     1       2.724   7.328  18.447  0.00  0.00    +0.000 A 
ATOM     13  N   UNL     1       3.838   7.542  17.696  0.00  0.00    +0.000 NA
ATOM     14  H   UNL     1       0.781   6.164  20.146  0.00  0.00    +0.000 HD
ENDROOT
BRANCH  12  15
ATOM     15  C   UNL     1       1.695   8.379  18.493  0.00  0.00    +0.000 A 
ATOM     16  C   UNL     1       0.966   8.715  17.352  0.00  0.00    +0.000 A 
ATOM     17  C   UNL     1       0.027   9.736  17.418  0.00  0.00    +0.000 A 
ATOM     18  C   UNL     1      -0.167  10.403  18.625  0.00  0.00    +0.000 A 
ATOM     19  C   UNL     1       0.578  10.030  19.723  0.00  0.00    +0.000 A 
ATOM     20  N   UNL     1       1.504   9.028  19.682  0.00  0.00    +0.000 NA
ATOM     21  C   UNL     1       0.398  10.726  21.031  0.00  0.00    +0.000 C 
ATOM     22  O   UNL     1       1.052  10.429  22.029  0.00  0.00    +0.000 OA
ATOM     23  C   UNL     1      -0.632  11.821  21.108  0.00  0.00    +0.000 C 
ATOM     24  C   UNL     1      -1.333  12.140  20.012  0.00  0.00    +0.000 C 
ATOM     25  C   UNL     1      -1.149  11.478  18.717  0.00  0.00    +0.000 C 
ATOM     26  O   UNL     1      -1.807  11.820  17.738  0.00  0.00    +0.000 OA
BRANCH  23  27
ATOM     27  N   UNL     1      -0.785  12.438  22.345  0.00  0.00    +0.000 N 
ATOM     28  C   UNL     1      -1.005  13.783  22.586  0.00  0.00    +0.000 C 
ATOM     29  C   UNL     1      -1.126  14.162  24.038  0.00  0.00    +0.000 C 
ATOM     30  O   UNL     1      -1.103  14.652  21.725  0.00  0.00    +0.000 OA
ATOM     31  H   UNL     1      -0.721  11.804  23.142  0.00  0.00    +0.000 HD
ENDBRANCH  23  27
ENDBRANCH  12  15
BRANCH   1  32
ATOM     32  C   UNL     1       6.080   7.007  16.920  0.00  0.00    +0.000 C 
ATOM     33  O   UNL     1       6.869   7.869  17.278  0.00  0.00    +0.000 OA
BRANCH  32  34
ATOM     34  O   UNL     1       6.114   6.357  15.724  0.00  0.00    +0.000 OA
BRANCH  34  35
ATOM     35  C   UNL     1       7.108   5.331  15.634  0.00  0.00    +0.000 C 
BRANCH  35  36
ATOM     36  C   UNL     1       6.575   4.059  14.984  0.00  0.00    +0.000 C 
BRANCH  36  37
ATOM     37  C   UNL     1       5.234   4.343  14.296  0.00  0.00    +0.000 C 
BRANCH  37  39
ATOM     38  C   UNL     1       6.570   3.532  12.319  0.00  0.00    +0.000 C 
ATOM     39  C   UNL     1       5.176   3.780  12.877  0.00  0.00    +0.000 C 
ENDBRANCH  37  39
ENDBRANCH  36  37
ENDBRANCH  35  36
ENDBRANCH  34  35
ENDBRANCH  32  34
ENDBRANCH   1  32
TORSDOF 8
ENDMDL
MODEL 6
REMARK VINA RESULT:      -7.9      2.693      8.808
REMARK  Name = 
REMARK  10 active torsions:
REMARK  status: ('A' for Active; 'I' for Inactive)
REMARK    1  A    between atoms: C_1  and  C_2
REMARK    2  A    between atoms: C_2  and  C_3
REMARK    3  A    between atoms: C_3  and  C_4
REMARK    4  A    between atoms: C_4  and  C_5
REMARK    5  A    between atoms: C_5  and  O_6
REMARK    6  A    between atoms: O_6  and  C_7
REMARK    7  A    between atoms: C_7  and  C_9
REMARK    8  A    between atoms: C_20  and  C_21
REMARK    9  A    between atoms: C_29  and  N_30
REMARK   10  A    between atoms: C_31  and  C_32
REMARK                            x       y       z     vdW  Elec       q    Type
REMARK                         _______ _______ _______ _____ _____    ______ ____
ROOT
ATOM      1  C   UNL     1      -1.793  12.430  19.554  0.00  0.00    +0.000 A 
ATOM      2  C   UNL     1      -1.087  13.593  19.265  0.00  0.00    +0.000 A 
ATOM      3  C   UNL     1       0.299  13.458  19.063  0.00  0.00    +0.000 A 
ATOM      4  C   UNL     1       0.864  12.191  19.178  0.00  0.00    +0.000 A 
ATOM      5  N   UNL     1       2.211  12.318  18.932  0.00  0.00    +0.000 N 
ATOM      6  C   UNL     1       2.540  13.620  18.661  0.00  0.00    +0.000 A 
ATOM      7  C   UNL     1       3.782  14.178  18.343  0.00  0.00    +0.000 A 
ATOM      8  C   UNL     1       3.832  15.557  18.134  0.00  0.00    +0.000 A 
ATOM      9  C   UNL     1       2.686  16.341  18.249  0.00  0.00    +0.000 A 
ATOM     10  C   UNL     1       1.448  15.761  18.563  0.00  0.00    +0.000 A 
ATOM     11  C   UNL     1       1.367  14.368  18.763  0.00  0.00    +0.000 A 
ATOM     12  C   UNL     1       0.123  11.053  19.501  0.00  0.00    +0.000 A 
ATOM     13  N   UNL     1      -1.218  11.204  19.674  0.00  0.00    +0.000 NA
ATOM     14  H   UNL     1       2.859  11.538  18.958  0.00  0.00    +0.000 HD
ENDROOT
BRANCH  12  15
ATOM     15  C   UNL     1       0.712   9.720  19.708  0.00  0.00    +0.000 A 
ATOM     16  C   UNL     1       0.468   9.005  20.880  0.00  0.00    +0.000 A 
ATOM     17  C   UNL     1       1.067   7.766  21.061  0.00  0.00    +0.000 A 
ATOM     18  C   UNL     1       1.900   7.263  20.066  0.00  0.00    +0.000 A 
ATOM     19  C   UNL     1       2.106   8.009  18.925  0.00  0.00    +0.000 A 
ATOM     20  N   UNL     1       1.526   9.228  18.724  0.00  0.00    +0.000 NA
ATOM     21  C   UNL     1       2.995   7.500  17.839  0.00  0.00    +0.000 C 
ATOM     22  O   UNL     1       3.212   8.143  16.813  0.00  0.00    +0.000 OA
ATOM     23  C   UNL     1       3.632   6.149  18.026  0.00  0.00    +0.000 C 
ATOM     24  C   UNL     1       3.393   5.463  19.152  0.00  0.00    +0.000 C 
ATOM     25  C   UNL     1       2.539   5.962  20.234  0.00  0.00    +0.000 C 
ATOM     26  O   UNL     1       2.366   5.299  21.253  0.00  0.00    +0.000 OA
BRANCH  23  27
ATOM     27  N   UNL     1       4.441   5.699  16.990  0.00  0.00    +0.000 N 
ATOM     28  C   UNL     1       5.816   5.823  16.889  0.00  0.00    +0.000 C 
ATOM     29  C   UNL     1       6.422   5.240  15.641  0.00  0.00    +0.000 C 
ATOM     30  O   UNL     1       6.543   6.358  17.721  0.00  0.00    +0.000 OA
ATOM     31  H   UNL     1       3.938   5.234  16.234  0.00  0.00    +0.000 HD
ENDBRANCH  23  27
ENDBRANCH  12  15
BRANCH   1  32
ATOM     32  C   UNL     1      -3.254  12.517  19.887  0.00  0.00    +0.000 C 
ATOM     33  O   UNL     1      -4.139  11.945  19.269  0.00  0.00    +0.000 OA
BRANCH  32  34
ATOM     34  O   UNL     1      -3.450  13.429  20.878  0.00  0.00    +0.000 OA
BRANCH  34  35
ATOM     35  C   UNL     1      -4.205  12.942  21.993  0.00  0.00    +0.000 C 
BRANCH  35  36
ATOM     36  C   UNL     1      -3.314  12.414  23.112  0.00  0.00    +0.000 C 
BRANCH  36  37
ATOM     37  C   UNL     1      -2.321  13.497  23.550  0.00  0.00    +0.000 C 
BRANCH  37  39
ATOM     38  C   UNL     1      -0.242  14.555  22.595  0.00  0.00    +0.000 C 
ATOM     39  C   UNL     1      -0.915  13.253  23.006  0.00  0.00    +0.000 C 
ENDBRANCH  37  39
ENDBRANCH  36  37
ENDBRANCH  35  36
ENDBRANCH  34  35
ENDBRANCH  32  34
ENDBRANCH   1  32
TORSDOF 8
ENDMDL
MODEL 7
REMARK VINA RESULT:      -7.9      0.973      1.082
REMARK  Name = 
REMARK  10 active torsions:
REMARK  status: ('A' for Active; 'I' for Inactive)
REMARK    1  A    between atoms: C_1  and  C_2
REMARK    2  A    between atoms: C_2  and  C_3
REMARK    3  A    between atoms: C_3  and  C_4
REMARK    4  A    between atoms: C_4  and  C_5
REMARK    5  A    between atoms: C_5  and  O_6
REMARK    6  A    between atoms: O_6  and  C_7
REMARK    7  A    between atoms: C_7  and  C_9
REMARK    8  A    between atoms: C_20  and  C_21
REMARK    9  A    between atoms: C_29  and  N_30
REMARK   10  A    between atoms: C_31  and  C_32
REMARK                            x       y       z     vdW  Elec       q    Type
REMARK                         _______ _______ _______ _____ _____    ______ ____
ROOT
ATOM      1  C   UNL     1       1.176  10.524  18.520  0.00  0.00    +0.000 A 
ATOM      2  C   UNL     1       1.992  11.649  18.458  0.00  0.00    +0.000 A 
ATOM      3  C   UNL     1       1.351  12.900  18.525  0.00  0.00    +0.000 A 
ATOM      4  C   UNL     1      -0.037  12.927  18.632  0.00  0.00    +0.000 A 
ATOM      5  N   UNL     1      -0.419  14.248  18.687  0.00  0.00    +0.000 N 
ATOM      6  C   UNL     1       0.670  15.077  18.621  0.00  0.00    +0.000 A 
ATOM      7  C   UNL     1       0.730  16.473  18.660  0.00  0.00    +0.000 A 
ATOM      8  C   UNL     1       1.989  17.064  18.549  0.00  0.00    +0.000 A 
ATOM      9  C   UNL     1       3.135  16.287  18.393  0.00  0.00    +0.000 A 
ATOM     10  C   UNL     1       3.053  14.888  18.362  0.00  0.00    +0.000 A 
ATOM     11  C   UNL     1       1.796  14.264  18.489  0.00  0.00    +0.000 A 
ATOM     12  C   UNL     1      -0.822  11.774  18.658  0.00  0.00    +0.000 A 
ATOM     13  N   UNL     1      -0.179  10.575  18.611  0.00  0.00    +0.000 NA
ATOM     14  H   UNL     1      -1.386  14.546  18.762  0.00  0.00    +0.000 HD
ENDROOT
BRANCH  12  15
ATOM     15  C   UNL     1      -2.294  11.781  18.690  0.00  0.00    +0.000 A 
ATOM     16  C   UNL     1      -3.032  11.174  17.674  0.00  0.00    +0.000 A 
ATOM     17  C   UNL     1      -4.419  11.229  17.712  0.00  0.00    +0.000 A 
ATOM     18  C   UNL     1      -5.043  11.890  18.766  0.00  0.00    +0.000 A 
ATOM     19  C   UNL     1      -4.266  12.472  19.746  0.00  0.00    +0.000 A 
ATOM     20  N   UNL     1      -2.902  12.428  19.730  0.00  0.00    +0.000 NA
ATOM     21  C   UNL     1      -4.903  13.190  20.889  0.00  0.00    +0.000 C 
ATOM     22  O   UNL     1      -4.243  13.731  21.775  0.00  0.00    +0.000 OA
ATOM     23  C   UNL     1      -6.406  13.236  20.941  0.00  0.00    +0.000 C 
ATOM     24  C   UNL     1      -7.114  12.649  19.965  0.00  0.00    +0.000 C 
ATOM     25  C   UNL     1      -6.499  11.959  18.827  0.00  0.00    +0.000 C 
ATOM     26  O   UNL     1      -7.194  11.452  17.952  0.00  0.00    +0.000 OA
BRANCH  23  27
ATOM     27  N   UNL     1      -6.967  13.900  22.026  0.00  0.00    +0.000 N 
ATOM     28  C   UNL     1      -7.338  15.232  22.089  0.00  0.00    +0.000 C 
ATOM     29  C   UNL     1      -7.917  15.673  23.407  0.00  0.00    +0.000 C 
ATOM     30  O   UNL     1      -7.229  16.044  21.175  0.00  0.00    +0.000 OA
ATOM     31  H   UNL     1      -7.104  13.316  22.851  0.00  0.00    +0.000 HD
ENDBRANCH  23  27
ENDBRANCH  12  15
BRANCH   1  32
ATOM     32  C   UNL     1       1.783   9.163  18.346  0.00  0.00    +0.000 C 
ATOM     33  O   UNL     1       2.265   8.749  17.302  0.00  0.00    +0.000 OA
BRANCH  32  34
ATOM     34  O   UNL     1       1.587   8.421  19.471  0.00  0.00    +0.000 OA
BRANCH  34  35
ATOM     35  C   UNL     1       2.390   7.238  19.549  0.00  0.00    +0.000 C 
BRANCH  35  36
ATOM     36  C   UNL     1       1.753   6.159  20.417  0.00  0.00    +0.000 C 
BRANCH  36  37
ATOM     37  C   UNL     1       2.128   4.769  19.888  0.00  0.00    +0.000 C 
BRANCH  37  39
ATOM     38  C   UNL     1       0.853   2.742  19.103  0.00  0.00    +0.000 C 
ATOM     39  C   UNL     1       1.094   3.707  20.255  0.00  0.00    +0.000 C 
ENDBRANCH  37  39
ENDBRANCH  36  37
ENDBRANCH  35  36
ENDBRANCH  34  35
ENDBRANCH  32  34
ENDBRANCH   1  32
TORSDOF 8
ENDMDL
MODEL 8
REMARK VINA RESULT:      -7.9      2.552      8.825
REMARK  Name = 
REMARK  10 active torsions:
REMARK  status: ('A' for Active; 'I' for Inactive)
REMARK    1  A    between atoms: C_1  and  C_2
REMARK    2  A    between atoms: C_2  and  C_3
REMARK    3  A    between atoms: C_3  and  C_4
REMARK    4  A    between atoms: C_4  and  C_5
REMARK    5  A    between atoms: C_5  and  O_6
REMARK    6  A    between atoms: O_6  and  C_7
REMARK    7  A    between atoms: C_7  and  C_9
REMARK    8  A    between atoms: C_20  and  C_21
REMARK    9  A    between atoms: C_29  and  N_30
REMARK   10  A    between atoms: C_31  and  C_32
REMARK                            x       y       z     vdW  Elec       q    Type
REMARK                         _______ _______ _______ _____ _____    ______ ____
ROOT
ATOM      1  C   UNL     1      -1.637  12.938  20.151  0.00  0.00    +0.000 A 
ATOM      2  C   UNL     1      -0.901  14.036  19.719  0.00  0.00    +0.000 A 
ATOM      3  C   UNL     1       0.416  13.786  19.291  0.00  0.00    +0.000 A 
ATOM      4  C   UNL     1       0.891  12.478  19.341  0.00  0.00    +0.000 A 
ATOM      5  N   UNL     1       2.183  12.492  18.869  0.00  0.00    +0.000 N 
ATOM      6  C   UNL     1       2.563  13.760  18.515  0.00  0.00    +0.000 A 
ATOM      7  C   UNL     1       3.773  14.211  17.979  0.00  0.00    +0.000 A 
ATOM      8  C   UNL     1       3.895  15.578  17.731  0.00  0.00    +0.000 A 
ATOM      9  C   UNL     1       2.851  16.455  18.017  0.00  0.00    +0.000 A 
ATOM     10  C   UNL     1       1.642  15.981  18.548  0.00  0.00    +0.000 A 
ATOM     11  C   UNL     1       1.487  14.602  18.793  0.00  0.00    +0.000 A 
ATOM     12  C   UNL     1       0.129  11.409  19.812  0.00  0.00    +0.000 A 
ATOM     13  N   UNL     1      -1.148  11.671  20.204  0.00  0.00    +0.000 NA
ATOM     14  H   UNL     1       2.763  11.662  18.806  0.00  0.00    +0.000 HD
ENDROOT
BRANCH  12  15
ATOM     15  C   UNL     1       0.637  10.034  19.950  0.00  0.00    +0.000 A 
ATOM     16  C   UNL     1       0.362   9.282  21.091  0.00  0.00    +0.000 A 
ATOM     17  C   UNL     1       0.886   8.002  21.209  0.00  0.00    +0.000 A 
ATOM     18  C   UNL     1       1.676   7.496  20.180  0.00  0.00    +0.000 A 
ATOM     19  C   UNL     1       1.916   8.280  19.072  0.00  0.00    +0.000 A 
ATOM     20  N   UNL     1       1.409   9.540  18.934  0.00  0.00    +0.000 NA
ATOM     21  C   UNL     1       2.761   7.769  17.952  0.00  0.00    +0.000 C 
ATOM     22  O   UNL     1       3.005   8.444  16.953  0.00  0.00    +0.000 OA
ATOM     23  C   UNL     1       3.315   6.375  18.070  0.00  0.00    +0.000 C 
ATOM     24  C   UNL     1       3.047   5.653  19.166  0.00  0.00    +0.000 C 
ATOM     25  C   UNL     1       2.236   6.152  20.282  0.00  0.00    +0.000 C 
ATOM     26  O   UNL     1       2.034   5.455  21.271  0.00  0.00    +0.000 OA
BRANCH  23  27
ATOM     27  N   UNL     1       4.085   5.925  17.003  0.00  0.00    +0.000 N 
ATOM     28  C   UNL     1       5.457   6.032  16.859  0.00  0.00    +0.000 C 
ATOM     29  C   UNL     1       6.015   5.454  15.586  0.00  0.00    +0.000 C 
ATOM     30  O   UNL     1       6.218   6.551  17.671  0.00  0.00    +0.000 OA
ATOM     31  H   UNL     1       3.551   5.472  16.260  0.00  0.00    +0.000 HD
ENDBRANCH  23  27
ENDBRANCH  12  15
BRANCH   1  32
ATOM     32  C   UNL     1      -3.009  13.148  20.722  0.00  0.00    +0.000 C 
ATOM     33  O   UNL     1      -4.043  12.775  20.190  0.00  0.00    +0.000 OA
BRANCH  32  34
ATOM     34  O   UNL     1      -2.934  13.930  21.834  0.00  0.00    +0.000 OA
BRANCH  34  35
ATOM     35  C   UNL     1      -2.358  13.286  22.975  0.00  0.00    +0.000 C 
BRANCH  35  36
ATOM     36  C   UNL     1      -3.240  12.167  23.518  0.00  0.00    +0.000 C 
BRANCH  36  37
ATOM     37  C   UNL     1      -4.220  12.726  24.557  0.00  0.00    +0.000 C 
BRANCH  37  39
ATOM     38  C   UNL     1      -6.100  14.212  23.777  0.00  0.00    +0.000 C 
ATOM     39  C   UNL     1      -5.654  12.780  24.034  0.00  0.00    +0.000 C 
ENDBRANCH  37  39
ENDBRANCH  36  37
ENDBRANCH  35  36
ENDBRANCH  34  35
ENDBRANCH  32  34
ENDBRANCH   1  32
TORSDOF 8
ENDMDL
MODEL 9
REMARK VINA RESULT:      -7.8      3.586      6.978
REMARK  Name = 
REMARK  10 active torsions:
REMARK  status: ('A' for Active; 'I' for Inactive)
REMARK    1  A    between atoms: C_1  and  C_2
REMARK    2  A    between atoms: C_2  and  C_3
REMARK    3  A    between atoms: C_3  and  C_4
REMARK    4  A    between atoms: C_4  and  C_5
REMARK    5  A    between atoms: C_5  and  O_6
REMARK    6  A    between atoms: O_6  and  C_7
REMARK    7  A    between atoms: C_7  and  C_9
REMARK    8  A    between atoms: C_20  and  C_21
REMARK    9  A    between atoms: C_29  and  N_30
REMARK   10  A    between atoms: C_31  and  C_32
REMARK                            x       y       z     vdW  Elec       q    Type
REMARK                         _______ _______ _______ _____ _____    ______ ____
ROOT
ATOM      1  C   UNL     1       2.541   4.695  20.552  0.00  0.00    +0.000 A 
ATOM      2  C   UNL     1       3.649   4.319  19.800  0.00  0.00    +0.000 A 
ATOM      3  C   UNL     1       4.181   5.287  18.928  0.00  0.00    +0.000 A 
ATOM      4  C   UNL     1       3.563   6.533  18.867  0.00  0.00    +0.000 A 
ATOM      5  N   UNL     1       4.264   7.294  17.961  0.00  0.00    +0.000 N 
ATOM      6  C   UNL     1       5.313   6.589  17.434  0.00  0.00    +0.000 A 
ATOM      7  C   UNL     1       6.276   6.988  16.502  0.00  0.00    +0.000 A 
ATOM      8  C   UNL     1       7.230   6.043  16.122  0.00  0.00    +0.000 A 
ATOM      9  C   UNL     1       7.210   4.753  16.647  0.00  0.00    +0.000 A 
ATOM     10  C   UNL     1       6.239   4.375  17.584  0.00  0.00    +0.000 A 
ATOM     11  C   UNL     1       5.273   5.314  17.998  0.00  0.00    +0.000 A 
ATOM     12  C   UNL     1       2.431   6.859  19.616  0.00  0.00    +0.000 A 
ATOM     13  N   UNL     1       1.946   5.914  20.466  0.00  0.00    +0.000 NA
ATOM     14  H   UNL     1       4.015   8.250  17.725  0.00  0.00    +0.000 HD
ENDROOT
BRANCH  12  15
ATOM     15  C   UNL     1       1.715   8.141  19.506  0.00  0.00    +0.000 A 
ATOM     16  C   UNL     1       1.776   8.894  18.334  0.00  0.00    +0.000 A 
ATOM     17  C   UNL     1       1.120  10.116  18.273  0.00  0.00    +0.000 A 
ATOM     18  C   UNL     1       0.412  10.563  19.387  0.00  0.00    +0.000 A 
ATOM     19  C   UNL     1       0.382   9.777  20.519  0.00  0.00    +0.000 A 
ATOM     20  N   UNL     1       1.017   8.572  20.601  0.00  0.00    +0.000 NA
ATOM     21  C   UNL     1      -0.365  10.227  21.731  0.00  0.00    +0.000 C 
ATOM     22  O   UNL     1      -0.405   9.559  22.763  0.00  0.00    +0.000 OA
ATOM     23  C   UNL     1      -1.092  11.543  21.661  0.00  0.00    +0.000 C 
ATOM     24  C   UNL     1      -1.034  12.264  20.533  0.00  0.00    +0.000 C 
ATOM     25  C   UNL     1      -0.286  11.843  19.345  0.00  0.00    +0.000 C 
ATOM     26  O   UNL     1      -0.252  12.550  18.342  0.00  0.00    +0.000 OA
BRANCH  23  27
ATOM     27  N   UNL     1      -1.789  11.925  22.801  0.00  0.00    +0.000 N 
ATOM     28  C   UNL     1      -3.111  12.327  22.877  0.00  0.00    +0.000 C 
ATOM     29  C   UNL     1      -3.593  12.687  24.256  0.00  0.00    +0.000 C 
ATOM     30  O   UNL     1      -3.885  12.406  21.927  0.00  0.00    +0.000 OA
ATOM     31  H   UNL     1      -1.239  11.897  23.660  0.00  0.00    +0.000 HD
ENDBRANCH  23  27
ENDBRANCH  12  15
BRANCH   1  32
ATOM     32  C   UNL     1       1.858   3.679  21.420  0.00  0.00    +0.000 C 
ATOM     33  O   UNL     1       2.322   3.237  22.461  0.00  0.00    +0.000 OA
BRANCH  32  34
ATOM     34  O   UNL     1       0.729   3.229  20.808  0.00  0.00    +0.000 OA
BRANCH  34  35
ATOM     35  C   UNL     1       0.775   3.263  19.377  0.00  0.00    +0.000 C 
BRANCH  35  36
ATOM     36  C   UNL     1       1.337   1.976  18.783  0.00  0.00    +0.000 C 
BRANCH  36  37
ATOM     37  C   UNL     1       2.280   2.302  17.618  0.00  0.00    +0.000 C 
BRANCH  37  39
ATOM     38  C   UNL     1       3.929   1.134  19.124  0.00  0.00    +0.000 C 
ATOM     39  C   UNL     1       3.588   1.517  17.691  0.00  0.00    +0.000 C 
ENDBRANCH  37  39
ENDBRANCH  36  37
ENDBRANCH  35  36
ENDBRANCH  34  35
ENDBRANCH  32  34
ENDBRANCH   1  32
TORSDOF 8
ENDMDL
