MODEL 1
REMARK VINA RESULT:      -7.2      0.000      0.000
REMARK  Name = 
REMARK  8 active torsions:
REMARK  status: ('A' for Active; 'I' for Inactive)
REMARK    1  A    between atoms: C_1  and  C_2
REMARK    2  A    between atoms: C_2  and  C_3
REMARK    3  A    between atoms: C_2  and  C_4
REMARK    4  A    between atoms: C_8  and  C_9
REMARK    5  A    between atoms: C_9  and  C_10
REMARK    6  A    between atoms: C_9  and  C_11
REMARK    7  A    between atoms: C_12  and  N_13
REMARK    8  A    between atoms: C_14  and  C_16
REMARK                            x       y       z     vdW  Elec       q    Type
REMARK                         _______ _______ _______ _____ _____    ______ ____
ROOT
ATOM      1  N   UNL     1      -3.204  12.206  20.288  0.00  0.00    +0.000 N 
ATOM      2  C   UNL     1      -2.400  13.353  20.472  0.00  0.00    +0.000 C 
ATOM      3  O   UNL     1      -2.744  14.478  20.092  0.00  0.00    +0.000 OA
ATOM      4  H   UNL     1      -2.662  11.359  20.318  0.00  0.00    +0.000 HD
ENDROOT
BRANCH   2   5
ATOM      5  C   UNL     1      -1.008  13.148  21.236  0.00  0.00    +0.000 C 
ATOM      6  C   UNL     1      -0.262  11.909  20.734  0.00  0.00    +0.000 A 
ATOM      7  C   UNL     1       0.295  11.975  19.434  0.00  0.00    +0.000 A 
ATOM      8  C   UNL     1       0.837  10.852  18.801  0.00  0.00    +0.000 A 
ATOM      9  C   UNL     1       0.909   9.650  19.479  0.00  0.00    +0.000 A 
ATOM     10  C   UNL     1       0.428   9.578  20.776  0.00  0.00    +0.000 A 
ATOM     11  C   UNL     1      -0.205  10.675  21.408  0.00  0.00    +0.000 A 
ATOM     12  C   UNL     1      -0.745  10.323  22.777  0.00  0.00    +0.000 C 
ATOM     13  O   UNL     1      -1.846  10.955  23.387  0.00  0.00    +0.000 OA
ATOM     14  C   UNL     1      -2.129  12.261  23.232  0.00  0.00    +0.000 A 
ATOM     15  C   UNL     1      -3.276  12.654  23.897  0.00  0.00    +0.000 A 
ATOM     16  C   UNL     1      -3.273  13.884  24.521  0.00  0.00    +0.000 A 
ATOM     17  C   UNL     1      -2.134  14.684  24.435  0.00  0.00    +0.000 A 
ATOM     18  C   UNL     1      -1.149  14.389  23.482  0.00  0.00    +0.000 A 
ATOM     19  C   UNL     1      -1.260  13.207  22.740  0.00  0.00    +0.000 A 
ENDBRANCH   2   5
BRANCH   1  25
ATOM     20  C   UNL     1      -4.074  11.733  17.990  0.00  0.00    +0.000 A 
ATOM     21  C   UNL     1      -5.147  11.845  17.079  0.00  0.00    +0.000 A 
ATOM     22  C   UNL     1      -6.372  12.365  17.455  0.00  0.00    +0.000 A 
ATOM     23  C   UNL     1      -6.589  12.758  18.769  0.00  0.00    +0.000 A 
ATOM     24  C   UNL     1      -5.581  12.645  19.749  0.00  0.00    +0.000 A 
ATOM     25  C   UNL     1      -4.265  12.099  19.355  0.00  0.00    +0.000 A 
BRANCH  20  27
ATOM     26  C   UNL     1      -2.430   9.749  17.811  0.00  0.00    +0.000 C 
ATOM     27  C   UNL     1      -2.764  11.192  17.370  0.00  0.00    +0.000 C 
ATOM     28  C   UNL     1      -2.793  11.135  15.818  0.00  0.00    +0.000 C 
ENDBRANCH  20  27
BRANCH  24  29
ATOM     29  C   UNL     1      -5.960  13.131  21.156  0.00  0.00    +0.000 C 
ATOM     30  C   UNL     1      -6.070  14.665  21.251  0.00  0.00    +0.000 C 
ATOM     31  C   UNL     1      -7.272  12.501  21.647  0.00  0.00    +0.000 C 
ENDBRANCH  24  29
ENDBRANCH   1  25
TORSDOF 4
ENDMDL
MODEL 2
REMARK VINA RESULT:      -6.9      0.455      3.161
REMARK  Name = 
REMARK  8 active torsions:
REMARK  status: ('A' for Active; 'I' for Inactive)
REMARK    1  A    between atoms: C_1  and  C_2
REMARK    2  A    between atoms: C_2  and  C_3
REMARK    3  A    between atoms: C_2  and  C_4
REMARK    4  A    between atoms: C_8  and  C_9
REMARK    5  A    between atoms: C_9  and  C_10
REMARK    6  A    between atoms: C_9  and  C_11
REMARK    7  A    between atoms: C_12  and  N_13
REMARK    8  A    between atoms: C_14  and  C_16
REMARK                            x       y       z     vdW  Elec       q    Type
REMARK                         _______ _______ _______ _____ _____    ______ ____
ROOT
ATOM      1  N   UNL     1      -3.468  12.395  20.379  0.00  0.00    +0.000 N 
ATOM      2  C   UNL     1      -2.709  13.553  20.661  0.00  0.00    +0.000 C 
ATOM      3  O   UNL     1      -3.125  14.694  20.431  0.00  0.00    +0.000 OA
ATOM      4  H   UNL     1      -2.885  11.580  20.285  0.00  0.00    +0.000 HD
ENDROOT
BRANCH   2   5
ATOM      5  C   UNL     1      -1.273  13.335  21.331  0.00  0.00    +0.000 C 
ATOM      6  C   UNL     1      -0.551  12.119  20.745  0.00  0.00    +0.000 A 
ATOM      7  C   UNL     1      -0.074  12.232  19.416  0.00  0.00    +0.000 A 
ATOM      8  C   UNL     1       0.435  11.134  18.716  0.00  0.00    +0.000 A 
ATOM      9  C   UNL     1       0.555   9.911  19.348  0.00  0.00    +0.000 A 
ATOM     10  C   UNL     1       0.155   9.793  20.669  0.00  0.00    +0.000 A 
ATOM     11  C   UNL     1      -0.446  10.864  21.374  0.00  0.00    +0.000 A 
ATOM     12  C   UNL     1      -0.899  10.464  22.760  0.00  0.00    +0.000 C 
ATOM     13  O   UNL     1      -1.965  11.066  23.457  0.00  0.00    +0.000 OA
ATOM     14  C   UNL     1      -2.265  12.374  23.362  0.00  0.00    +0.000 A 
ATOM     15  C   UNL     1      -3.372  12.736  24.107  0.00  0.00    +0.000 A 
ATOM     16  C   UNL     1      -3.337  13.946  24.771  0.00  0.00    +0.000 A 
ATOM     17  C   UNL     1      -2.211  14.757  24.642  0.00  0.00    +0.000 A 
ATOM     18  C   UNL     1      -1.284  14.501  23.622  0.00  0.00    +0.000 A 
ATOM     19  C   UNL     1      -1.433  13.343  22.850  0.00  0.00    +0.000 A 
ENDBRANCH   2   5
BRANCH   1  25
ATOM     20  C   UNL     1      -5.895  12.707  19.860  0.00  0.00    +0.000 A 
ATOM     21  C   UNL     1      -6.968  12.435  18.983  0.00  0.00    +0.000 A 
ATOM     22  C   UNL     1      -6.782  11.758  17.791  0.00  0.00    +0.000 A 
ATOM     23  C   UNL     1      -5.508  11.360  17.406  0.00  0.00    +0.000 A 
ATOM     24  C   UNL     1      -4.378  11.626  18.209  0.00  0.00    +0.000 A 
ATOM     25  C   UNL     1      -4.568  12.341  19.489  0.00  0.00    +0.000 A 
BRANCH  20  27
ATOM     26  C   UNL     1      -7.139  14.695  20.943  0.00  0.00    +0.000 C 
ATOM     27  C   UNL     1      -6.309  13.412  21.174  0.00  0.00    +0.000 C 
ATOM     28  C   UNL     1      -7.193  12.530  22.097  0.00  0.00    +0.000 C 
ENDBRANCH  20  27
BRANCH  24  29
ATOM     29  C   UNL     1      -3.037  11.116  17.663  0.00  0.00    +0.000 C 
ATOM     30  C   UNL     1      -2.835   9.604  17.883  0.00  0.00    +0.000 C 
ATOM     31  C   UNL     1      -2.866  11.433  16.169  0.00  0.00    +0.000 C 
ENDBRANCH  24  29
ENDBRANCH   1  25
TORSDOF 4
ENDMDL
MODEL 3
REMARK VINA RESULT:      -6.8      1.725      3.852
REMARK  Name = 
REMARK  8 active torsions:
REMARK  status: ('A' for Active; 'I' for Inactive)
REMARK    1  A    between atoms: C_1  and  C_2
REMARK    2  A    between atoms: C_2  and  C_3
REMARK    3  A    between atoms: C_2  and  C_4
REMARK    4  A    between atoms: C_8  and  C_9
REMARK    5  A    between atoms: C_9  and  C_10
REMARK    6  A    between atoms: C_9  and  C_11
REMARK    7  A    between atoms: C_12  and  N_13
REMARK    8  A    between atoms: C_14  and  C_16
REMARK                            x       y       z     vdW  Elec       q    Type
REMARK                         _______ _______ _______ _____ _____    ______ ____
ROOT
ATOM      1  N   UNL     1      -1.836  11.826  18.604  0.00  0.00    +0.000 N 
ATOM      2  C   UNL     1      -1.237  10.754  19.302  0.00  0.00    +0.000 C 
ATOM      3  O   UNL     1      -1.823   9.687  19.515  0.00  0.00    +0.000 OA
ATOM      4  H   UNL     1      -1.395  12.705  18.818  0.00  0.00    +0.000 HD
ENDROOT
BRANCH   2   5
ATOM      5  C   UNL     1       0.272  10.960  19.793  0.00  0.00    +0.000 C 
ATOM      6  C   UNL     1       1.135   9.728  19.506  0.00  0.00    +0.000 A 
ATOM      7  C   UNL     1       1.458   9.470  18.152  0.00  0.00    +0.000 A 
ATOM      8  C   UNL     1       2.082   8.284  17.752  0.00  0.00    +0.000 A 
ATOM      9  C   UNL     1       2.471   7.358  18.701  0.00  0.00    +0.000 A 
ATOM     10  C   UNL     1       2.223   7.619  20.039  0.00  0.00    +0.000 A 
ATOM     11  C   UNL     1       1.515   8.769  20.464  0.00  0.00    +0.000 A 
ATOM     12  C   UNL     1       1.270   8.781  21.957  0.00  0.00    +0.000 C 
ATOM     13  O   UNL     1       0.187   9.426  22.583  0.00  0.00    +0.000 OA
ATOM     14  C   UNL     1      -0.343  10.581  22.140  0.00  0.00    +0.000 A 
ATOM     15  C   UNL     1      -1.421  11.011  22.892  0.00  0.00    +0.000 A 
ATOM     16  C   UNL     1      -1.534  12.364  23.144  0.00  0.00    +0.000 A 
ATOM     17  C   UNL     1      -0.583  13.234  22.615  0.00  0.00    +0.000 A 
ATOM     18  C   UNL     1       0.275  12.789  21.598  0.00  0.00    +0.000 A 
ATOM     19  C   UNL     1       0.256  11.435  21.244  0.00  0.00    +0.000 A 
ENDBRANCH   2   5
BRANCH   1  25
ATOM     20  C   UNL     1      -4.119  12.436  19.427  0.00  0.00    +0.000 A 
ATOM     21  C   UNL     1      -5.513  12.380  19.213  0.00  0.00    +0.000 A 
ATOM     22  C   UNL     1      -6.054  11.841  18.060  0.00  0.00    +0.000 A 
ATOM     23  C   UNL     1      -5.220  11.371  17.053  0.00  0.00    +0.000 A 
ATOM     24  C   UNL     1      -3.816  11.424  17.173  0.00  0.00    +0.000 A 
ATOM     25  C   UNL     1      -3.228  11.990  18.406  0.00  0.00    +0.000 A 
BRANCH  20  27
ATOM     26  C   UNL     1      -3.433  14.531  20.772  0.00  0.00    +0.000 C 
ATOM     27  C   UNL     1      -3.707  13.010  20.803  0.00  0.00    +0.000 C 
ATOM     28  C   UNL     1      -4.791  12.825  21.899  0.00  0.00    +0.000 C 
ENDBRANCH  20  27
BRANCH  24  29
ATOM     29  C   UNL     1      -3.023  10.856  15.986  0.00  0.00    +0.000 C 
ATOM     30  C   UNL     1      -2.367   9.498  16.298  0.00  0.00    +0.000 C 
ATOM     31  C   UNL     1      -3.893  10.717  14.728  0.00  0.00    +0.000 C 
ENDBRANCH  24  29
ENDBRANCH   1  25
TORSDOF 4
ENDMDL
MODEL 4
REMARK VINA RESULT:      -6.5      1.898      6.233
REMARK  Name = 
REMARK  8 active torsions:
REMARK  status: ('A' for Active; 'I' for Inactive)
REMARK    1  A    between atoms: C_1  and  C_2
REMARK    2  A    between atoms: C_2  and  C_3
REMARK    3  A    between atoms: C_2  and  C_4
REMARK    4  A    between atoms: C_8  and  C_9
REMARK    5  A    between atoms: C_9  and  C_10
REMARK    6  A    between atoms: C_9  and  C_11
REMARK    7  A    between atoms: C_12  and  N_13
REMARK    8  A    between atoms: C_14  and  C_16
REMARK                            x       y       z     vdW  Elec       q    Type
REMARK                         _______ _______ _______ _____ _____    ______ ____
ROOT
ATOM      1  N   UNL     1      -2.915  13.374  19.724  0.00  0.00    +0.000 N 
ATOM      2  C   UNL     1      -4.013  13.216  20.598  0.00  0.00    +0.000 C 
ATOM      3  O   UNL     1      -4.003  12.420  21.544  0.00  0.00    +0.000 OA
ATOM      4  H   UNL     1      -3.194  13.766  18.840  0.00  0.00    +0.000 HD
ENDROOT
BRANCH   2   5
ATOM      5  C   UNL     1      -5.290  14.145  20.337  0.00  0.00    +0.000 C 
ATOM      6  C   UNL     1      -5.695  14.920  21.593  0.00  0.00    +0.000 A 
ATOM      7  C   UNL     1      -4.836  15.968  22.007  0.00  0.00    +0.000 A 
ATOM      8  C   UNL     1      -5.003  16.623  23.231  0.00  0.00    +0.000 A 
ATOM      9  C   UNL     1      -6.078  16.304  24.041  0.00  0.00    +0.000 A 
ATOM     10  C   UNL     1      -6.967  15.327  23.625  0.00  0.00    +0.000 A 
ATOM     11  C   UNL     1      -6.773  14.587  22.434  0.00  0.00    +0.000 A 
ATOM     12  C   UNL     1      -7.811  13.502  22.249  0.00  0.00    +0.000 C 
ATOM     13  O   UNL     1      -7.598  12.307  21.536  0.00  0.00    +0.000 OA
ATOM     14  C   UNL     1      -6.821  12.227  20.440  0.00  0.00    +0.000 A 
ATOM     15  C   UNL     1      -6.731  10.947  19.925  0.00  0.00    +0.000 A 
ATOM     16  C   UNL     1      -6.738  10.800  18.553  0.00  0.00    +0.000 A 
ATOM     17  C   UNL     1      -6.807  11.937  17.750  0.00  0.00    +0.000 A 
ATOM     18  C   UNL     1      -6.555  13.198  18.310  0.00  0.00    +0.000 A 
ATOM     19  C   UNL     1      -6.389  13.300  19.696  0.00  0.00    +0.000 A 
ENDBRANCH   2   5
BRANCH   1  25
ATOM     20  C   UNL     1      -1.979  11.272  18.741  0.00  0.00    +0.000 A 
ATOM     21  C   UNL     1      -0.970  10.285  18.786  0.00  0.00    +0.000 A 
ATOM     22  C   UNL     1       0.104  10.379  19.653  0.00  0.00    +0.000 A 
ATOM     23  C   UNL     1       0.235  11.485  20.484  0.00  0.00    +0.000 A 
ATOM     24  C   UNL     1      -0.711  12.531  20.474  0.00  0.00    +0.000 A 
ATOM     25  C   UNL     1      -1.867  12.436  19.558  0.00  0.00    +0.000 A 
BRANCH  20  27
ATOM     26  C   UNL     1      -2.794  11.306  16.290  0.00  0.00    +0.000 C 
ATOM     27  C   UNL     1      -3.132  10.960  17.758  0.00  0.00    +0.000 C 
ATOM     28  C   UNL     1      -3.531   9.459  17.729  0.00  0.00    +0.000 C 
ENDBRANCH  20  27
BRANCH  24  29
ATOM     29  C   UNL     1      -0.443  13.682  21.456  0.00  0.00    +0.000 C 
ATOM     30  C   UNL     1      -0.941  13.382  22.882  0.00  0.00    +0.000 C 
ATOM     31  C   UNL     1       1.046  14.055  21.511  0.00  0.00    +0.000 C 
ENDBRANCH  24  29
ENDBRANCH   1  25
TORSDOF 4
ENDMDL
MODEL 5
REMARK VINA RESULT:      -6.4      2.087      6.196
REMARK  Name = 
REMARK  8 active torsions:
REMARK  status: ('A' for Active; 'I' for Inactive)
REMARK    1  A    between atoms: C_1  and  C_2
REMARK    2  A    between atoms: C_2  and  C_3
REMARK    3  A    between atoms: C_2  and  C_4
REMARK    4  A    between atoms: C_8  and  C_9
REMARK    5  A    between atoms: C_9  and  C_10
REMARK    6  A    between atoms: C_9  and  C_11
REMARK    7  A    between atoms: C_12  and  N_13
REMARK    8  A    between atoms: C_14  and  C_16
REMARK                            x       y       z     vdW  Elec       q    Type
REMARK                         _______ _______ _______ _____ _____    ______ ____
ROOT
ATOM      1  N   UNL     1      -4.581  13.342  20.085  0.00  0.00    +0.000 N 
ATOM      2  C   UNL     1      -5.781  12.976  20.736  0.00  0.00    +0.000 C 
ATOM      3  O   UNL     1      -5.865  11.987  21.472  0.00  0.00    +0.000 OA
ATOM      4  H   UNL     1      -4.754  13.920  19.280  0.00  0.00    +0.000 HD
ENDROOT
BRANCH   2   5
ATOM      5  C   UNL     1      -7.049  13.925  20.508  0.00  0.00    +0.000 C 
ATOM      6  C   UNL     1      -7.130  14.428  19.064  0.00  0.00    +0.000 A 
ATOM      7  C   UNL     1      -7.478  13.481  18.071  0.00  0.00    +0.000 A 
ATOM      8  C   UNL     1      -7.406  13.777  16.706  0.00  0.00    +0.000 A 
ATOM      9  C   UNL     1      -7.060  15.051  16.297  0.00  0.00    +0.000 A 
ATOM     10  C   UNL     1      -6.778  16.012  17.253  0.00  0.00    +0.000 A 
ATOM     11  C   UNL     1      -6.756  15.716  18.637  0.00  0.00    +0.000 A 
ATOM     12  C   UNL     1      -6.314  16.895  19.476  0.00  0.00    +0.000 C 
ATOM     13  O   UNL     1      -5.675  16.790  20.727  0.00  0.00    +0.000 OA
ATOM     14  C   UNL     1      -5.947  15.818  21.617  0.00  0.00    +0.000 A 
ATOM     15  C   UNL     1      -5.174  15.894  22.761  0.00  0.00    +0.000 A 
ATOM     16  C   UNL     1      -5.780  15.618  23.970  0.00  0.00    +0.000 A 
ATOM     17  C   UNL     1      -7.125  15.252  23.986  0.00  0.00    +0.000 A 
ATOM     18  C   UNL     1      -7.753  14.867  22.793  0.00  0.00    +0.000 A 
ATOM     19  C   UNL     1      -7.055  15.004  21.588  0.00  0.00    +0.000 A 
ENDBRANCH   2   5
BRANCH   1  25
ATOM     20  C   UNL     1      -2.285  12.520  20.642  0.00  0.00    +0.000 A 
ATOM     21  C   UNL     1      -1.159  11.770  20.235  0.00  0.00    +0.000 A 
ATOM     22  C   UNL     1      -1.155  11.040  19.061  0.00  0.00    +0.000 A 
ATOM     23  C   UNL     1      -2.291  10.996  18.263  0.00  0.00    +0.000 A 
ATOM     24  C   UNL     1      -3.468  11.688  18.617  0.00  0.00    +0.000 A 
ATOM     25  C   UNL     1      -3.480  12.479  19.865  0.00  0.00    +0.000 A 
BRANCH  20  27
ATOM     26  C   UNL     1      -2.838  12.734  23.156  0.00  0.00    +0.000 C 
ATOM     27  C   UNL     1      -2.077  13.325  21.947  0.00  0.00    +0.000 C 
ATOM     28  C   UNL     1      -0.595  13.388  22.405  0.00  0.00    +0.000 C 
ENDBRANCH  20  27
BRANCH  24  29
ATOM     29  C   UNL     1      -4.640  11.558  17.632  0.00  0.00    +0.000 C 
ATOM     30  C   UNL     1      -4.187  11.195  16.205  0.00  0.00    +0.000 C 
ATOM     31  C   UNL     1      -5.678  10.530  18.107  0.00  0.00    +0.000 C 
ENDBRANCH  24  29
ENDBRANCH   1  25
TORSDOF 4
ENDMDL
MODEL 6
REMARK VINA RESULT:      -6.3      1.416      3.642
REMARK  Name = 
REMARK  8 active torsions:
REMARK  status: ('A' for Active; 'I' for Inactive)
REMARK    1  A    between atoms: C_1  and  C_2
REMARK    2  A    between atoms: C_2  and  C_3
REMARK    3  A    between atoms: C_2  and  C_4
REMARK    4  A    between atoms: C_8  and  C_9
REMARK    5  A    between atoms: C_9  and  C_10
REMARK    6  A    between atoms: C_9  and  C_11
REMARK    7  A    between atoms: C_12  and  N_13
REMARK    8  A    between atoms: C_14  and  C_16
REMARK                            x       y       z     vdW  Elec       q    Type
REMARK                         _______ _______ _______ _____ _____    ______ ____
ROOT
ATOM      1  N   UNL     1      -3.781  12.780  21.026  0.00  0.00    +0.000 N 
ATOM      2  C   UNL     1      -3.090  13.984  20.763  0.00  0.00    +0.000 C 
ATOM      3  O   UNL     1      -3.649  15.087  20.762  0.00  0.00    +0.000 OA
ATOM      4  H   UNL     1      -3.297  11.981  20.651  0.00  0.00    +0.000 HD
ENDROOT
BRANCH   2   5
ATOM      5  C   UNL     1      -1.517  13.875  20.490  0.00  0.00    +0.000 C 
ATOM      6  C   UNL     1      -1.147  12.545  19.829  0.00  0.00    +0.000 A 
ATOM      7  C   UNL     1      -1.540  12.365  18.480  0.00  0.00    +0.000 A 
ATOM      8  C   UNL     1      -1.420  11.132  17.831  0.00  0.00    +0.000 A 
ATOM      9  C   UNL     1      -0.832  10.065  18.484  0.00  0.00    +0.000 A 
ATOM     10  C   UNL     1      -0.381  10.237  19.783  0.00  0.00    +0.000 A 
ATOM     11  C   UNL     1      -0.570  11.446  20.494  0.00  0.00    +0.000 A 
ATOM     12  C   UNL     1      -0.095  11.357  21.927  0.00  0.00    +0.000 C 
ATOM     13  O   UNL     1      -0.617  12.119  22.990  0.00  0.00    +0.000 OA
ATOM     14  C   UNL     1      -1.049  13.386  22.851  0.00  0.00    +0.000 A 
ATOM     15  C   UNL     1      -1.552  13.924  24.020  0.00  0.00    +0.000 A 
ATOM     16  C   UNL     1      -1.265  15.244  24.301  0.00  0.00    +0.000 A 
ATOM     17  C   UNL     1      -0.510  15.982  23.390  0.00  0.00    +0.000 A 
ATOM     18  C   UNL     1      -0.322  15.494  22.089  0.00  0.00    +0.000 A 
ATOM     19  C   UNL     1      -0.771  14.204  21.780  0.00  0.00    +0.000 A 
ENDBRANCH   2   5
BRANCH   1  25
ATOM     20  C   UNL     1      -6.066  12.791  22.046  0.00  0.00    +0.000 A 
ATOM     21  C   UNL     1      -7.421  12.410  21.930  0.00  0.00    +0.000 A 
ATOM     22  C   UNL     1      -7.913  11.803  20.789  0.00  0.00    +0.000 A 
ATOM     23  C   UNL     1      -7.080  11.588  19.698  0.00  0.00    +0.000 A 
ATOM     24  C   UNL     1      -5.723  11.972  19.720  0.00  0.00    +0.000 A 
ATOM     25  C   UNL     1      -5.184  12.612  20.938  0.00  0.00    +0.000 A 
BRANCH  20  27
ATOM     26  C   UNL     1      -6.913  13.820  24.257  0.00  0.00    +0.000 C 
ATOM     27  C   UNL     1      -5.687  13.392  23.420  0.00  0.00    +0.000 C 
ATOM     28  C   UNL     1      -4.909  12.405  24.333  0.00  0.00    +0.000 C 
ENDBRANCH  20  27
BRANCH  24  29
ATOM     29  C   UNL     1      -4.920  11.659  18.448  0.00  0.00    +0.000 C 
ATOM     30  C   UNL     1      -4.766  10.147  18.193  0.00  0.00    +0.000 C 
ATOM     31  C   UNL     1      -5.536  12.318  17.204  0.00  0.00    +0.000 C 
ENDBRANCH  24  29
ENDBRANCH   1  25
TORSDOF 4
ENDMDL
MODEL 7
REMARK VINA RESULT:      -6.3      1.968      5.855
REMARK  Name = 
REMARK  8 active torsions:
REMARK  status: ('A' for Active; 'I' for Inactive)
REMARK    1  A    between atoms: C_1  and  C_2
REMARK    2  A    between atoms: C_2  and  C_3
REMARK    3  A    between atoms: C_2  and  C_4
REMARK    4  A    between atoms: C_8  and  C_9
REMARK    5  A    between atoms: C_9  and  C_10
REMARK    6  A    between atoms: C_9  and  C_11
REMARK    7  A    between atoms: C_12  and  N_13
REMARK    8  A    between atoms: C_14  and  C_16
REMARK                            x       y       z     vdW  Elec       q    Type
REMARK                         _______ _______ _______ _____ _____    ______ ____
ROOT
ATOM      1  N   UNL     1      -3.961  13.356  20.174  0.00  0.00    +0.000 N 
ATOM      2  C   UNL     1      -4.930  13.221  21.193  0.00  0.00    +0.000 C 
ATOM      3  O   UNL     1      -4.848  12.366  22.083  0.00  0.00    +0.000 OA
ATOM      4  H   UNL     1      -4.332  13.823  19.363  0.00  0.00    +0.000 HD
ENDROOT
BRANCH   2   5
ATOM      5  C   UNL     1      -6.152  14.254  21.174  0.00  0.00    +0.000 C 
ATOM      6  C   UNL     1      -6.650  14.519  19.751  0.00  0.00    +0.000 A 
ATOM      7  C   UNL     1      -7.343  13.466  19.105  0.00  0.00    +0.000 A 
ATOM      8  C   UNL     1      -7.684  13.524  17.751  0.00  0.00    +0.000 A 
ATOM      9  C   UNL     1      -7.413  14.667  17.022  0.00  0.00    +0.000 A 
ATOM     10  C   UNL     1      -6.793  15.735  17.650  0.00  0.00    +0.000 A 
ATOM     11  C   UNL     1      -6.358  15.670  18.996  0.00  0.00    +0.000 A 
ATOM     12  C   UNL     1      -5.611  16.913  19.424  0.00  0.00    +0.000 C 
ATOM     13  O   UNL     1      -4.621  16.945  20.425  0.00  0.00    +0.000 OA
ATOM     14  C   UNL     1      -4.655  16.170  21.525  0.00  0.00    +0.000 A 
ATOM     15  C   UNL     1      -3.561  16.346  22.352  0.00  0.00    +0.000 A 
ATOM     16  C   UNL     1      -3.774  16.341  23.715  0.00  0.00    +0.000 A 
ATOM     17  C   UNL     1      -5.065  16.135  24.199  0.00  0.00    +0.000 A 
ATOM     18  C   UNL     1      -6.055  15.632  23.342  0.00  0.00    +0.000 A 
ATOM     19  C   UNL     1      -5.761  15.491  21.981  0.00  0.00    +0.000 A 
ENDBRANCH   2   5
BRANCH   1  25
ATOM     20  C   UNL     1      -1.731  12.239  20.388  0.00  0.00    +0.000 A 
ATOM     21  C   UNL     1      -0.788  11.351  19.826  0.00  0.00    +0.000 A 
ATOM     22  C   UNL     1      -1.059  10.631  18.677  0.00  0.00    +0.000 A 
ATOM     23  C   UNL     1      -2.300  10.738  18.062  0.00  0.00    +0.000 A 
ATOM     24  C   UNL     1      -3.309  11.576  18.580  0.00  0.00    +0.000 A 
ATOM     25  C   UNL     1      -3.027  12.357  19.803  0.00  0.00    +0.000 A 
BRANCH  20  27
ATOM     26  C   UNL     1      -1.342  12.190  22.941  0.00  0.00    +0.000 C 
ATOM     27  C   UNL     1      -1.224  13.005  21.633  0.00  0.00    +0.000 C 
ATOM     28  C   UNL     1       0.275  13.401  21.546  0.00  0.00    +0.000 C 
ENDBRANCH  20  27
BRANCH  24  29
ATOM     29  C   UNL     1      -4.625  11.604  17.788  0.00  0.00    +0.000 C 
ATOM     30  C   UNL     1      -4.418  11.401  16.275  0.00  0.00    +0.000 C 
ATOM     31  C   UNL     1      -5.628  10.560  18.303  0.00  0.00    +0.000 C 
ENDBRANCH  24  29
ENDBRANCH   1  25
TORSDOF 4
ENDMDL
MODEL 8
REMARK VINA RESULT:      -6.3      1.903      5.041
REMARK  Name = 
REMARK  8 active torsions:
REMARK  status: ('A' for Active; 'I' for Inactive)
REMARK    1  A    between atoms: C_1  and  C_2
REMARK    2  A    between atoms: C_2  and  C_3
REMARK    3  A    between atoms: C_2  and  C_4
REMARK    4  A    between atoms: C_8  and  C_9
REMARK    5  A    between atoms: C_9  and  C_10
REMARK    6  A    between atoms: C_9  and  C_11
REMARK    7  A    between atoms: C_12  and  N_13
REMARK    8  A    between atoms: C_14  and  C_16
REMARK                            x       y       z     vdW  Elec       q    Type
REMARK                         _______ _______ _______ _____ _____    ______ ____
ROOT
ATOM      1  N   UNL     1      -3.632  13.308  20.151  0.00  0.00    +0.000 N 
ATOM      2  C   UNL     1      -4.221  13.298  21.435  0.00  0.00    +0.000 C 
ATOM      3  O   UNL     1      -4.235  12.293  22.155  0.00  0.00    +0.000 OA
ATOM      4  H   UNL     1      -4.001  14.046  19.575  0.00  0.00    +0.000 HD
ENDROOT
BRANCH   2   5
ATOM      5  C   UNL     1      -4.856  14.673  21.953  0.00  0.00    +0.000 C 
ATOM      6  C   UNL     1      -5.330  15.552  20.793  0.00  0.00    +0.000 A 
ATOM      7  C   UNL     1      -6.478  15.120  20.085  0.00  0.00    +0.000 A 
ATOM      8  C   UNL     1      -6.895  15.738  18.902  0.00  0.00    +0.000 A 
ATOM      9  C   UNL     1      -6.224  16.852  18.434  0.00  0.00    +0.000 A 
ATOM     10  C   UNL     1      -5.137  17.331  19.146  0.00  0.00    +0.000 A 
ATOM     11  C   UNL     1      -4.639  16.674  20.297  0.00  0.00    +0.000 A 
ATOM     12  C   UNL     1      -3.381  17.318  20.835  0.00  0.00    +0.000 C 
ATOM     13  O   UNL     1      -2.381  16.639  21.558  0.00  0.00    +0.000 OA
ATOM     14  C   UNL     1      -2.641  15.630  22.410  0.00  0.00    +0.000 A 
ATOM     15  C   UNL     1      -1.503  15.091  22.980  0.00  0.00    +0.000 A 
ATOM     16  C   UNL     1      -1.555  14.732  24.312  0.00  0.00    +0.000 A 
ATOM     17  C   UNL     1      -2.748  14.903  25.013  0.00  0.00    +0.000 A 
ATOM     18  C   UNL     1      -3.940  15.129  24.311  0.00  0.00    +0.000 A 
ATOM     19  C   UNL     1      -3.880  15.329  22.927  0.00  0.00    +0.000 A 
ENDBRANCH   2   5
BRANCH   1  25
ATOM     20  C   UNL     1      -2.038  11.598  19.257  0.00  0.00    +0.000 A 
ATOM     21  C   UNL     1      -1.799  10.575  18.313  0.00  0.00    +0.000 A 
ATOM     22  C   UNL     1      -2.785  10.134  17.449  0.00  0.00    +0.000 A 
ATOM     23  C   UNL     1      -4.064  10.671  17.519  0.00  0.00    +0.000 A 
ATOM     24  C   UNL     1      -4.395  11.671  18.458  0.00  0.00    +0.000 A 
ATOM     25  C   UNL     1      -3.346  12.155  19.380  0.00  0.00    +0.000 A 
BRANCH  20  27
ATOM     26  C   UNL     1      -0.854  11.505  21.550  0.00  0.00    +0.000 C 
ATOM     27  C   UNL     1      -0.798  12.003  20.088  0.00  0.00    +0.000 C 
ATOM     28  C   UNL     1       0.534  11.433  19.527  0.00  0.00    +0.000 C 
ENDBRANCH  20  27
BRANCH  24  29
ATOM     29  C   UNL     1      -5.844  12.178  18.410  0.00  0.00    +0.000 C 
ATOM     30  C   UNL     1      -6.218  12.798  17.050  0.00  0.00    +0.000 C 
ATOM     31  C   UNL     1      -6.852  11.070  18.751  0.00  0.00    +0.000 C 
ENDBRANCH  24  29
ENDBRANCH   1  25
TORSDOF 4
ENDMDL
MODEL 9
REMARK VINA RESULT:      -6.3      1.968      5.724
REMARK  Name = 
REMARK  8 active torsions:
REMARK  status: ('A' for Active; 'I' for Inactive)
REMARK    1  A    between atoms: C_1  and  C_2
REMARK    2  A    between atoms: C_2  and  C_3
REMARK    3  A    between atoms: C_2  and  C_4
REMARK    4  A    between atoms: C_8  and  C_9
REMARK    5  A    between atoms: C_9  and  C_10
REMARK    6  A    between atoms: C_9  and  C_11
REMARK    7  A    between atoms: C_12  and  N_13
REMARK    8  A    between atoms: C_14  and  C_16
REMARK                            x       y       z     vdW  Elec       q    Type
REMARK                         _______ _______ _______ _____ _____    ______ ____
ROOT
ATOM      1  N   UNL     1      -3.850  13.465  20.081  0.00  0.00    +0.000 N 
ATOM      2  C   UNL     1      -4.894  13.180  20.989  0.00  0.00    +0.000 C 
ATOM      3  O   UNL     1      -4.880  12.193  21.733  0.00  0.00    +0.000 OA
ATOM      4  H   UNL     1      -4.158  14.062  19.331  0.00  0.00    +0.000 HD
ENDROOT
BRANCH   2   5
ATOM      5  C   UNL     1      -6.109  14.220  21.047  0.00  0.00    +0.000 C 
ATOM      6  C   UNL     1      -6.618  14.577  19.649  0.00  0.00    +0.000 A 
ATOM      7  C   UNL     1      -7.323  13.571  18.943  0.00  0.00    +0.000 A 
ATOM      8  C   UNL     1      -7.674  13.717  17.598  0.00  0.00    +0.000 A 
ATOM      9  C   UNL     1      -7.403  14.902  16.941  0.00  0.00    +0.000 A 
ATOM     10  C   UNL     1      -6.772  15.925  17.630  0.00  0.00    +0.000 A 
ATOM     11  C   UNL     1      -6.325  15.772  18.965  0.00  0.00    +0.000 A 
ATOM     12  C   UNL     1      -5.567  16.982  19.465  0.00  0.00    +0.000 C 
ATOM     13  O   UNL     1      -4.568  16.944  20.457  0.00  0.00    +0.000 OA
ATOM     14  C   UNL     1      -4.598  16.101  21.505  0.00  0.00    +0.000 A 
ATOM     15  C   UNL     1      -3.496  16.218  22.332  0.00  0.00    +0.000 A 
ATOM     16  C   UNL     1      -3.697  16.128  23.695  0.00  0.00    +0.000 A 
ATOM     17  C   UNL     1      -4.986  15.899  24.175  0.00  0.00    +0.000 A 
ATOM     18  C   UNL     1      -5.985  15.456  23.297  0.00  0.00    +0.000 A 
ATOM     19  C   UNL     1      -5.704  15.400  21.927  0.00  0.00    +0.000 A 
ENDBRANCH   2   5
BRANCH   1  25
ATOM     20  C   UNL     1      -3.150  11.587  18.583  0.00  0.00    +0.000 A 
ATOM     21  C   UNL     1      -2.220  10.556  18.324  0.00  0.00    +0.000 A 
ATOM     22  C   UNL     1      -1.085  10.386  19.097  0.00  0.00    +0.000 A 
ATOM     23  C   UNL     1      -0.812  11.265  20.138  0.00  0.00    +0.000 A 
ATOM     24  C   UNL     1      -1.672  12.342  20.438  0.00  0.00    +0.000 A 
ATOM     25  C   UNL     1      -2.892  12.527  19.624  0.00  0.00    +0.000 A 
BRANCH  20  27
ATOM     26  C   UNL     1      -4.083  11.048  16.235  0.00  0.00    +0.000 C 
ATOM     27  C   UNL     1      -4.388  11.576  17.656  0.00  0.00    +0.000 C 
ATOM     28  C   UNL     1      -5.540  10.673  18.174  0.00  0.00    +0.000 C 
ENDBRANCH  20  27
BRANCH  24  29
ATOM     29  C   UNL     1      -1.249  13.222  21.624  0.00  0.00    +0.000 C 
ATOM     30  C   UNL     1      -1.592  12.596  22.989  0.00  0.00    +0.000 C 
ATOM     31  C   UNL     1       0.250  13.555  21.586  0.00  0.00    +0.000 C 
ENDBRANCH  24  29
ENDBRANCH   1  25
TORSDOF 4
ENDMDL
