MODEL 1
REMARK VINA RESULT:      -6.7      0.000      0.000
REMARK  Name = 
REMARK  6 active torsions:
REMARK  status: ('A' for Active; 'I' for Inactive)
REMARK    1  A    between atoms: C_1  and  O_2
REMARK    2  A    between atoms: O_2  and  C_3
REMARK    3  A    between atoms: C_6  and  C_7
REMARK    4  A    between atoms: C_7  and  O_9
REMARK    5  A    between atoms: O_9  and  N_10
REMARK    6  A    between atoms: N_14  and  C_15
REMARK                            x       y       z     vdW  Elec       q    Type
REMARK                         _______ _______ _______ _____ _____    ______ ____
ROOT
ATOM      1  C   UNL     1       5.761   3.954  16.152  0.00  0.00    +0.000 C 
ATOM      2  O   UNL     1       6.167   3.583  15.060  0.00  0.00    +0.000 OA
ENDROOT
BRANCH   1   6
ATOM      3  C   UNL     1       7.812   7.182  18.127  0.00  0.00    +0.000 A 
ATOM      4  C   UNL     1       6.910   7.450  17.079  0.00  0.00    +0.000 A 
ATOM      5  C   UNL     1       6.223   6.405  16.451  0.00  0.00    +0.000 A 
ATOM      6  C   UNL     1       6.421   5.076  16.860  0.00  0.00    +0.000 A 
ATOM      7  C   UNL     1       7.305   4.817  17.923  0.00  0.00    +0.000 A 
ATOM      8  C   UNL     1       7.992   5.859  18.546  0.00  0.00    +0.000 A 
BRANCH   3  10
ATOM      9  C   UNL     1       8.572   9.482  18.372  0.00  0.00    +0.000 C 
ATOM     10  O   UNL     1       8.534   8.154  18.741  0.00  0.00    +0.000 OA
ENDBRANCH   3  10
ENDBRANCH   1   6
BRANCH   1  11
ATOM     11  O   UNL     1       4.805   3.244  16.787  0.00  0.00    +0.000 OA
BRANCH  11  12
ATOM     12  N   UNL     1       3.612   3.769  16.971  0.00  0.00    +0.000 NA
ATOM     13  C   UNL     1       3.203   4.144  18.134  0.00  0.00    +0.000 C 
ATOM     14  C   UNL     1       4.050   4.089  19.373  0.00  0.00    +0.000 C 
ATOM     15  C   UNL     1       3.368   3.143  20.365  0.00  0.00    +0.000 C 
ATOM     16  N   UNL     1       1.963   3.549  20.610  0.00  0.00    +0.000 NA
ATOM     17  C   UNL     1       1.346   2.615  21.566  0.00  0.00    +0.000 C 
ATOM     18  C   UNL     1       1.175   3.570  19.353  0.00  0.00    +0.000 C 
ATOM     19  C   UNL     1       1.780   4.552  18.340  0.00  0.00    +0.000 C 
ENDBRANCH  11  12
ENDBRANCH   1  11
TORSDOF 4
ENDMDL
MODEL 2
REMARK VINA RESULT:      -6.5      3.412      4.648
REMARK  Name = 
REMARK  6 active torsions:
REMARK  status: ('A' for Active; 'I' for Inactive)
REMARK    1  A    between atoms: C_1  and  O_2
REMARK    2  A    between atoms: O_2  and  C_3
REMARK    3  A    between atoms: C_6  and  C_7
REMARK    4  A    between atoms: C_7  and  O_9
REMARK    5  A    between atoms: O_9  and  N_10
REMARK    6  A    between atoms: N_14  and  C_15
REMARK                            x       y       z     vdW  Elec       q    Type
REMARK                         _______ _______ _______ _____ _____    ______ ____
ROOT
ATOM      1  C   UNL     1       4.125   6.504  17.382  0.00  0.00    +0.000 C 
ATOM      2  O   UNL     1       5.246   6.965  17.226  0.00  0.00    +0.000 OA
ENDROOT
BRANCH   1   6
ATOM      3  C   UNL     1       1.297   8.702  19.768  0.00  0.00    +0.000 A 
ATOM      4  C   UNL     1       1.629   9.146  18.472  0.00  0.00    +0.000 A 
ATOM      5  C   UNL     1       2.529   8.420  17.685  0.00  0.00    +0.000 A 
ATOM      6  C   UNL     1       3.110   7.238  18.173  0.00  0.00    +0.000 A 
ATOM      7  C   UNL     1       2.758   6.789  19.458  0.00  0.00    +0.000 A 
ATOM      8  C   UNL     1       1.863   7.515  20.244  0.00  0.00    +0.000 A 
BRANCH   3  10
ATOM      9  C   UNL     1      -0.222   8.866  21.665  0.00  0.00    +0.000 C 
ATOM     10  O   UNL     1       0.463   9.391  20.589  0.00  0.00    +0.000 OA
ENDBRANCH   3  10
ENDBRANCH   1   6
BRANCH   1  11
ATOM     11  O   UNL     1       3.852   5.251  16.959  0.00  0.00    +0.000 OA
BRANCH  11  12
ATOM     12  N   UNL     1       4.305   4.218  17.634  0.00  0.00    +0.000 NA
ATOM     13  C   UNL     1       3.515   3.351  18.170  0.00  0.00    +0.000 C 
ATOM     14  C   UNL     1       2.019   3.388  18.028  0.00  0.00    +0.000 C 
ATOM     15  C   UNL     1       1.420   3.556  19.426  0.00  0.00    +0.000 C 
ATOM     16  N   UNL     1       1.915   2.505  20.348  0.00  0.00    +0.000 NA
ATOM     17  C   UNL     1       1.316   2.703  21.678  0.00  0.00    +0.000 C 
ATOM     18  C   UNL     1       3.394   2.529  20.458  0.00  0.00    +0.000 C 
ATOM     19  C   UNL     1       4.052   2.303  19.089  0.00  0.00    +0.000 C 
ENDBRANCH  11  12
ENDBRANCH   1  11
TORSDOF 4
ENDMDL
MODEL 3
REMARK VINA RESULT:      -6.4      4.224      6.546
REMARK  Name = 
REMARK  6 active torsions:
REMARK  status: ('A' for Active; 'I' for Inactive)
REMARK    1  A    between atoms: C_1  and  O_2
REMARK    2  A    between atoms: O_2  and  C_3
REMARK    3  A    between atoms: C_6  and  C_7
REMARK    4  A    between atoms: C_7  and  O_9
REMARK    5  A    between atoms: O_9  and  N_10
REMARK    6  A    between atoms: N_14  and  C_15
REMARK                            x       y       z     vdW  Elec       q    Type
REMARK                         _______ _______ _______ _____ _____    ______ ____
ROOT
ATOM      1  C   UNL     1       2.553   6.131  19.745  0.00  0.00    +0.000 C 
ATOM      2  O   UNL     1       2.231   5.460  20.716  0.00  0.00    +0.000 OA
ENDROOT
BRANCH   1   6
ATOM      3  C   UNL     1       0.950  10.087  19.198  0.00  0.00    +0.000 A 
ATOM      4  C   UNL     1       0.883   9.463  20.459  0.00  0.00    +0.000 A 
ATOM      5  C   UNL     1       1.425   8.187  20.646  0.00  0.00    +0.000 A 
ATOM      6  C   UNL     1       2.046   7.513  19.582  0.00  0.00    +0.000 A 
ATOM      7  C   UNL     1       2.130   8.151  18.331  0.00  0.00    +0.000 A 
ATOM      8  C   UNL     1       1.585   9.422  18.144  0.00  0.00    +0.000 A 
BRANCH   3  10
ATOM      9  C   UNL     1      -0.881  11.535  18.502  0.00  0.00    +0.000 C 
ATOM     10  O   UNL     1       0.402  11.305  18.952  0.00  0.00    +0.000 OA
ENDBRANCH   3  10
ENDBRANCH   1   6
BRANCH   1  11
ATOM     11  O   UNL     1       3.252   5.561  18.741  0.00  0.00    +0.000 OA
BRANCH  11  12
ATOM     12  N   UNL     1       4.551   5.388  18.861  0.00  0.00    +0.000 NA
ATOM     13  C   UNL     1       5.383   5.839  17.986  0.00  0.00    +0.000 C 
ATOM     14  C   UNL     1       4.977   6.654  16.791  0.00  0.00    +0.000 C 
ATOM     15  C   UNL     1       5.373   5.873  15.536  0.00  0.00    +0.000 C 
ATOM     16  N   UNL     1       6.812   5.515  15.562  0.00  0.00    +0.000 NA
ATOM     17  C   UNL     1       7.150   4.767  14.341  0.00  0.00    +0.000 C 
ATOM     18  C   UNL     1       7.148   4.700  16.755  0.00  0.00    +0.000 C 
ATOM     19  C   UNL     1       6.827   5.460  18.050  0.00  0.00    +0.000 C 
ENDBRANCH  11  12
ENDBRANCH   1  11
TORSDOF 4
ENDMDL
MODEL 4
REMARK VINA RESULT:      -6.4      0.777      1.357
REMARK  Name = 
REMARK  6 active torsions:
REMARK  status: ('A' for Active; 'I' for Inactive)
REMARK    1  A    between atoms: C_1  and  O_2
REMARK    2  A    between atoms: O_2  and  C_3
REMARK    3  A    between atoms: C_6  and  C_7
REMARK    4  A    between atoms: C_7  and  O_9
REMARK    5  A    between atoms: O_9  and  N_10
REMARK    6  A    between atoms: N_14  and  C_15
REMARK                            x       y       z     vdW  Elec       q    Type
REMARK                         _______ _______ _______ _____ _____    ______ ____
ROOT
ATOM      1  C   UNL     1       5.784   4.215  16.341  0.00  0.00    +0.000 C 
ATOM      2  O   UNL     1       6.239   3.559  15.414  0.00  0.00    +0.000 OA
ENDROOT
BRANCH   1   6
ATOM      3  C   UNL     1       8.005   7.350  18.280  0.00  0.00    +0.000 A 
ATOM      4  C   UNL     1       8.080   6.027  18.759  0.00  0.00    +0.000 A 
ATOM      5  C   UNL     1       7.379   5.001  18.116  0.00  0.00    +0.000 A 
ATOM      6  C   UNL     1       6.595   5.276  16.983  0.00  0.00    +0.000 A 
ATOM      7  C   UNL     1       6.543   6.594  16.496  0.00  0.00    +0.000 A 
ATOM      8  C   UNL     1       7.240   7.617  17.141  0.00  0.00    +0.000 A 
BRANCH   3  10
ATOM      9  C   UNL     1       8.718   9.675  18.405  0.00  0.00    +0.000 C 
ATOM     10  O   UNL     1       8.632   8.388  18.891  0.00  0.00    +0.000 OA
ENDBRANCH   3  10
ENDBRANCH   1   6
BRANCH   1  11
ATOM     11  O   UNL     1       4.596   3.873  16.882  0.00  0.00    +0.000 OA
BRANCH  11  12
ATOM     12  N   UNL     1       3.945   4.735  17.633  0.00  0.00    +0.000 NA
ATOM     13  C   UNL     1       3.814   4.571  18.905  0.00  0.00    +0.000 C 
ATOM     14  C   UNL     1       4.434   3.434  19.666  0.00  0.00    +0.000 C 
ATOM     15  C   UNL     1       3.301   2.615  20.290  0.00  0.00    +0.000 C 
ATOM     16  N   UNL     1       2.409   3.473  21.106  0.00  0.00    +0.000 NA
ATOM     17  C   UNL     1       1.336   2.648  21.685  0.00  0.00    +0.000 C 
ATOM     18  C   UNL     1       1.816   4.566  20.296  0.00  0.00    +0.000 C 
ATOM     19  C   UNL     1       2.909   5.461  19.694  0.00  0.00    +0.000 C 
ENDBRANCH  11  12
ENDBRANCH   1  11
TORSDOF 4
ENDMDL
MODEL 5
REMARK VINA RESULT:      -6.3      3.917      6.335
REMARK  Name = 
REMARK  6 active torsions:
REMARK  status: ('A' for Active; 'I' for Inactive)
REMARK    1  A    between atoms: C_1  and  O_2
REMARK    2  A    between atoms: O_2  and  C_3
REMARK    3  A    between atoms: C_6  and  C_7
REMARK    4  A    between atoms: C_7  and  O_9
REMARK    5  A    between atoms: O_9  and  N_10
REMARK    6  A    between atoms: N_14  and  C_15
REMARK                            x       y       z     vdW  Elec       q    Type
REMARK                         _______ _______ _______ _____ _____    ______ ____
ROOT
ATOM      1  C   UNL     1       2.850   5.587  19.812  0.00  0.00    +0.000 C 
ATOM      2  O   UNL     1       2.672   4.939  20.833  0.00  0.00    +0.000 OA
ENDROOT
BRANCH   1   6
ATOM      3  C   UNL     1       1.141   9.515  19.393  0.00  0.00    +0.000 A 
ATOM      4  C   UNL     1       1.764   8.891  18.294  0.00  0.00    +0.000 A 
ATOM      5  C   UNL     1       2.299   7.605  18.420  0.00  0.00    +0.000 A 
ATOM      6  C   UNL     1       2.218   6.916  19.642  0.00  0.00    +0.000 A 
ATOM      7  C   UNL     1       1.575   7.535  20.729  0.00  0.00    +0.000 A 
ATOM      8  C   UNL     1       1.045   8.820  20.603  0.00  0.00    +0.000 A 
BRANCH   3  10
ATOM      9  C   UNL     1      -0.612  11.128  18.887  0.00  0.00    +0.000 C 
ATOM     10  O   UNL     1       0.644  10.777  19.336  0.00  0.00    +0.000 OA
ENDBRANCH   3  10
ENDBRANCH   1   6
BRANCH   1  11
ATOM     11  O   UNL     1       3.502   5.029  18.770  0.00  0.00    +0.000 OA
BRANCH  11  12
ATOM     12  N   UNL     1       4.805   4.856  18.827  0.00  0.00    +0.000 NA
ATOM     13  C   UNL     1       5.608   5.427  17.996  0.00  0.00    +0.000 C 
ATOM     14  C   UNL     1       5.159   6.388  16.931  0.00  0.00    +0.000 C 
ATOM     15  C   UNL     1       5.522   5.784  15.573  0.00  0.00    +0.000 C 
ATOM     16  N   UNL     1       6.964   5.442  15.510  0.00  0.00    +0.000 NA
ATOM     17  C   UNL     1       7.269   4.865  14.190  0.00  0.00    +0.000 C 
ATOM     18  C   UNL     1       7.342   4.480  16.574  0.00  0.00    +0.000 C 
ATOM     19  C   UNL     1       7.055   5.059  17.967  0.00  0.00    +0.000 C 
ENDBRANCH  11  12
ENDBRANCH   1  11
TORSDOF 4
ENDMDL
MODEL 6
REMARK VINA RESULT:      -6.3      2.877      5.663
REMARK  Name = 
REMARK  6 active torsions:
REMARK  status: ('A' for Active; 'I' for Inactive)
REMARK    1  A    between atoms: C_1  and  O_2
REMARK    2  A    between atoms: O_2  and  C_3
REMARK    3  A    between atoms: C_6  and  C_7
REMARK    4  A    between atoms: C_7  and  O_9
REMARK    5  A    between atoms: O_9  and  N_10
REMARK    6  A    between atoms: N_14  and  C_15
REMARK                            x       y       z     vdW  Elec       q    Type
REMARK                         _______ _______ _______ _____ _____    ______ ____
ROOT
ATOM      1  C   UNL     1       2.739   3.806  17.787  0.00  0.00    +0.000 C 
ATOM      2  O   UNL     1       1.853   3.368  17.068  0.00  0.00    +0.000 OA
ENDROOT
BRANCH   1   6
ATOM      3  C   UNL     1       1.920   7.305  20.155  0.00  0.00    +0.000 A 
ATOM      4  C   UNL     1       1.695   6.020  20.686  0.00  0.00    +0.000 A 
ATOM      5  C   UNL     1       1.983   4.881  19.929  0.00  0.00    +0.000 A 
ATOM      6  C   UNL     1       2.504   5.002  18.630  0.00  0.00    +0.000 A 
ATOM      7  C   UNL     1       2.748   6.287  18.113  0.00  0.00    +0.000 A 
ATOM      8  C   UNL     1       2.457   7.423  18.869  0.00  0.00    +0.000 A 
BRANCH   3  10
ATOM      9  C   UNL     1       0.428   8.702  21.479  0.00  0.00    +0.000 C 
ATOM     10  O   UNL     1       1.618   8.443  20.831  0.00  0.00    +0.000 OA
ENDBRANCH   3  10
ENDBRANCH   1   6
BRANCH   1  11
ATOM     11  O   UNL     1       3.984   3.291  17.704  0.00  0.00    +0.000 OA
BRANCH  11  12
ATOM     12  N   UNL     1       4.774   3.641  16.712  0.00  0.00    +0.000 NA
ATOM     13  C   UNL     1       5.928   4.178  16.913  0.00  0.00    +0.000 C 
ATOM     14  C   UNL     1       6.517   4.399  18.277  0.00  0.00    +0.000 C 
ATOM     15  C   UNL     1       6.716   5.905  18.463  0.00  0.00    +0.000 C 
ATOM     16  N   UNL     1       7.522   6.477  17.357  0.00  0.00    +0.000 NA
ATOM     17  C   UNL     1       7.688   7.923  17.573  0.00  0.00    +0.000 C 
ATOM     18  C   UNL     1       6.881   6.241  16.039  0.00  0.00    +0.000 C 
ATOM     19  C   UNL     1       6.712   4.738  15.771  0.00  0.00    +0.000 C 
ENDBRANCH  11  12
ENDBRANCH   1  11
TORSDOF 4
ENDMDL
MODEL 7
REMARK VINA RESULT:      -6.3      3.401      4.613
REMARK  Name = 
REMARK  6 active torsions:
REMARK  status: ('A' for Active; 'I' for Inactive)
REMARK    1  A    between atoms: C_1  and  O_2
REMARK    2  A    between atoms: O_2  and  C_3
REMARK    3  A    between atoms: C_6  and  C_7
REMARK    4  A    between atoms: C_7  and  O_9
REMARK    5  A    between atoms: O_9  and  N_10
REMARK    6  A    between atoms: N_14  and  C_15
REMARK                            x       y       z     vdW  Elec       q    Type
REMARK                         _______ _______ _______ _____ _____    ______ ____
ROOT
ATOM      1  C   UNL     1       4.220   6.357  17.285  0.00  0.00    +0.000 C 
ATOM      2  O   UNL     1       5.348   6.762  17.046  0.00  0.00    +0.000 OA
ENDROOT
BRANCH   1   6
ATOM      3  C   UNL     1       1.380   8.644  19.570  0.00  0.00    +0.000 A 
ATOM      4  C   UNL     1       1.960   7.483  20.117  0.00  0.00    +0.000 A 
ATOM      5  C   UNL     1       2.901   6.751  19.386  0.00  0.00    +0.000 A 
ATOM      6  C   UNL     1       3.284   7.166  18.100  0.00  0.00    +0.000 A 
ATOM      7  C   UNL     1       2.719   8.339  17.569  0.00  0.00    +0.000 A 
ATOM      8  C   UNL     1       1.776   9.066  18.297  0.00  0.00    +0.000 A 
BRANCH   3  10
ATOM      9  C   UNL     1       0.450   9.702  21.557  0.00  0.00    +0.000 C 
ATOM     10  O   UNL     1       0.431   9.366  20.219  0.00  0.00    +0.000 OA
ENDBRANCH   3  10
ENDBRANCH   1   6
BRANCH   1  11
ATOM     11  O   UNL     1       3.871   5.101  16.932  0.00  0.00    +0.000 OA
BRANCH  11  12
ATOM     12  N   UNL     1       4.308   4.078  17.633  0.00  0.00    +0.000 NA
ATOM     13  C   UNL     1       3.505   3.239  18.192  0.00  0.00    +0.000 C 
ATOM     14  C   UNL     1       2.010   3.298  18.052  0.00  0.00    +0.000 C 
ATOM     15  C   UNL     1       1.416   3.512  19.446  0.00  0.00    +0.000 C 
ATOM     16  N   UNL     1       1.894   2.477  20.394  0.00  0.00    +0.000 NA
ATOM     17  C   UNL     1       1.302   2.720  21.719  0.00  0.00    +0.000 C 
ATOM     18  C   UNL     1       3.374   2.479  20.502  0.00  0.00    +0.000 C 
ATOM     19  C   UNL     1       4.026   2.206  19.138  0.00  0.00    +0.000 C 
ENDBRANCH  11  12
ENDBRANCH   1  11
TORSDOF 4
ENDMDL
MODEL 8
REMARK VINA RESULT:      -6.3      2.403      4.444
REMARK  Name = 
REMARK  6 active torsions:
REMARK  status: ('A' for Active; 'I' for Inactive)
REMARK    1  A    between atoms: C_1  and  O_2
REMARK    2  A    between atoms: O_2  and  C_3
REMARK    3  A    between atoms: C_6  and  C_7
REMARK    4  A    between atoms: C_7  and  O_9
REMARK    5  A    between atoms: O_9  and  N_10
REMARK    6  A    between atoms: N_14  and  C_15
REMARK                            x       y       z     vdW  Elec       q    Type
REMARK                         _______ _______ _______ _____ _____    ______ ____
ROOT
ATOM      1  C   UNL     1       6.992   5.703  16.721  0.00  0.00    +0.000 C 
ATOM      2  O   UNL     1       7.633   6.744  16.732  0.00  0.00    +0.000 OA
ENDROOT
BRANCH   1   6
ATOM      3  C   UNL     1       5.828   3.809  13.036  0.00  0.00    +0.000 A 
ATOM      4  C   UNL     1       4.942   3.835  14.131  0.00  0.00    +0.000 A 
ATOM      5  C   UNL     1       5.308   4.471  15.322  0.00  0.00    +0.000 A 
ATOM      6  C   UNL     1       6.561   5.096  15.441  0.00  0.00    +0.000 A 
ATOM      7  C   UNL     1       7.431   5.086  14.336  0.00  0.00    +0.000 A 
ATOM      8  C   UNL     1       7.067   4.448  13.150  0.00  0.00    +0.000 A 
BRANCH   3  10
ATOM      9  C   UNL     1       4.285   3.042  11.315  0.00  0.00    +0.000 C 
ATOM     10  O   UNL     1       5.539   3.169  11.874  0.00  0.00    +0.000 OA
ENDBRANCH   3  10
ENDBRANCH   1   6
BRANCH   1  11
ATOM     11  O   UNL     1       6.546   5.180  17.883  0.00  0.00    +0.000 OA
BRANCH  11  12
ATOM     12  N   UNL     1       5.498   5.707  18.480  0.00  0.00    +0.000 NA
ATOM     13  C   UNL     1       4.649   4.987  19.129  0.00  0.00    +0.000 C 
ATOM     14  C   UNL     1       4.794   3.506  19.331  0.00  0.00    +0.000 C 
ATOM     15  C   UNL     1       3.596   2.823  18.666  0.00  0.00    +0.000 C 
ATOM     16  N   UNL     1       2.317   3.380  19.171  0.00  0.00    +0.000 NA
ATOM     17  C   UNL     1       1.195   2.698  18.507  0.00  0.00    +0.000 C 
ATOM     18  C   UNL     1       2.227   4.841  18.929  0.00  0.00    +0.000 C 
ATOM     19  C   UNL     1       3.374   5.587  19.627  0.00  0.00    +0.000 C 
ENDBRANCH  11  12
ENDBRANCH   1  11
TORSDOF 4
ENDMDL
MODEL 9
REMARK VINA RESULT:      -6.2      2.925      5.561
REMARK  Name = 
REMARK  6 active torsions:
REMARK  status: ('A' for Active; 'I' for Inactive)
REMARK    1  A    between atoms: C_1  and  O_2
REMARK    2  A    between atoms: O_2  and  C_3
REMARK    3  A    between atoms: C_6  and  C_7
REMARK    4  A    between atoms: C_7  and  O_9
REMARK    5  A    between atoms: O_9  and  N_10
REMARK    6  A    between atoms: N_14  and  C_15
REMARK                            x       y       z     vdW  Elec       q    Type
REMARK                         _______ _______ _______ _____ _____    ______ ____
ROOT
ATOM      1  C   UNL     1       2.509   3.872  17.832  0.00  0.00    +0.000 C 
ATOM      2  O   UNL     1       1.701   3.492  16.997  0.00  0.00    +0.000 OA
ENDROOT
BRANCH   1   6
ATOM      3  C   UNL     1       1.851   7.332  20.304  0.00  0.00    +0.000 A 
ATOM      4  C   UNL     1       2.324   7.482  18.985  0.00  0.00    +0.000 A 
ATOM      5  C   UNL     1       2.515   6.361  18.171  0.00  0.00    +0.000 A 
ATOM      6  C   UNL     1       2.235   5.072  18.655  0.00  0.00    +0.000 A 
ATOM      7  C   UNL     1       1.742   4.931  19.965  0.00  0.00    +0.000 A 
ATOM      8  C   UNL     1       1.555   6.050  20.778  0.00  0.00    +0.000 A 
BRANCH   3  10
ATOM      9  C   UNL     1       0.609   9.241  21.168  0.00  0.00    +0.000 C 
ATOM     10  O   UNL     1       1.689   8.382  21.149  0.00  0.00    +0.000 OA
ENDBRANCH   3  10
ENDBRANCH   1   6
BRANCH   1  11
ATOM     11  O   UNL     1       3.723   3.286  17.902  0.00  0.00    +0.000 OA
BRANCH  11  12
ATOM     12  N   UNL     1       4.606   3.489  16.949  0.00  0.00    +0.000 NA
ATOM     13  C   UNL     1       5.752   4.031  17.184  0.00  0.00    +0.000 C 
ATOM     14  C   UNL     1       6.224   4.422  18.556  0.00  0.00    +0.000 C 
ATOM     15  C   UNL     1       6.446   5.936  18.561  0.00  0.00    +0.000 C 
ATOM     16  N   UNL     1       7.361   6.344  17.468  0.00  0.00    +0.000 NA
ATOM     17  C   UNL     1       7.546   7.804  17.509  0.00  0.00    +0.000 C 
ATOM     18  C   UNL     1       6.834   5.946  16.139  0.00  0.00    +0.000 C 
ATOM     19  C   UNL     1       6.649   4.423  16.055  0.00  0.00    +0.000 C 
ENDBRANCH  11  12
ENDBRANCH   1  11
TORSDOF 4
ENDMDL
