MODEL 1
REMARK VINA RESULT:      -8.6      0.000      0.000
REMARK  Name = 
REMARK  10 active torsions:
REMARK  status: ('A' for Active; 'I' for Inactive)
REMARK    1  A    between atoms: C_1  and  C_2
REMARK    2  A    between atoms: C_2  and  C_3
REMARK    3  A    between atoms: C_2  and  N_4
REMARK    4  A    between atoms: C_5  and  C_7
REMARK    5  A    between atoms: C_10  and  C_11
REMARK    6  A    between atoms: N_13  and  C_14
REMARK    7  A    between atoms: C_18  and  C_19
REMARK    8  A    between atoms: N_21  and  C_22
REMARK    9  A    between atoms: C_22  and  C_23
REMARK   10  A    between atoms: C_22  and  C_24
REMARK                            x       y       z     vdW  Elec       q    Type
REMARK                         _______ _______ _______ _____ _____    ______ ____
ROOT
ATOM      1  C   UNL     1       3.172   6.461  18.583  0.00  0.00    +0.000 A 
ATOM      2  C   UNL     1       2.409   7.605  18.612  0.00  0.00    +0.000 A 
ATOM      3  N   UNL     1       1.934   7.676  19.902  0.00  0.00    +0.000 N 
ATOM      4  N   UNL     1       2.371   6.607  20.606  0.00  0.00    +0.000 NA
ATOM      5  N   UNL     1       3.129   5.865  19.813  0.00  0.00    +0.000 NA
ENDROOT
BRANCH   1   9
ATOM      6  C   UNL     1       5.447   4.939  15.314  0.00  0.00    +0.000 A 
ATOM      7  C   UNL     1       4.790   4.071  16.187  0.00  0.00    +0.000 A 
ATOM      8  C   UNL     1       4.041   4.583  17.254  0.00  0.00    +0.000 A 
ATOM      9  C   UNL     1       3.955   5.965  17.467  0.00  0.00    +0.000 A 
ATOM     10  C   UNL     1       4.634   6.830  16.600  0.00  0.00    +0.000 A 
ATOM     11  C   UNL     1       5.380   6.317  15.531  0.00  0.00    +0.000 A 
BRANCH   6  13
ATOM     12  N   UNL     1       5.647   3.382  13.398  0.00  0.00    +0.000 N 
ATOM     13  C   UNL     1       6.196   4.419  14.124  0.00  0.00    +0.000 C 
ATOM     14  N   UNL     1       7.312   4.986  13.814  0.00  0.00    +0.000 NA
ATOM     15  H   UNL     1       4.729   3.083  13.715  0.00  0.00    +0.000 HD
ATOM     16  H   UNL     1       7.719   4.504  13.012  0.00  0.00    +0.000 HD
BRANCH  12  18
ATOM     17  C   UNL     1       6.466   1.831  11.719  0.00  0.00    +0.000 C 
ATOM     18  C   UNL     1       5.811   3.192  11.959  0.00  0.00    +0.000 C 
ATOM     19  C   UNL     1       4.466   3.244  11.235  0.00  0.00    +0.000 C 
ENDBRANCH  12  18
ENDBRANCH   6  13
ENDBRANCH   1   9
BRANCH   3  20
ATOM     20  C   UNL     1       1.133   8.687  20.489  0.00  0.00    +0.000 A 
ATOM     21  C   UNL     1       1.121   8.876  21.879  0.00  0.00    +0.000 A 
ATOM     22  C   UNL     1       0.312   9.858  22.446  0.00  0.00    +0.000 A 
ATOM     23  C   UNL     1      -0.499  10.652  21.632  0.00  0.00    +0.000 A 
ATOM     24  C   UNL     1      -0.515  10.463  20.247  0.00  0.00    +0.000 A 
ATOM     25  C   UNL     1       0.325   9.500  19.668  0.00  0.00    +0.000 A 
BRANCH  24  26
ATOM     26  C   UNL     1      -1.431  11.297  19.398  0.00  0.00    +0.000 C 
ATOM     27  N   UNL     1      -1.964  12.386  19.858  0.00  0.00    +0.000 NA
ATOM     28  N   UNL     1      -1.707  10.884  18.116  0.00  0.00    +0.000 N 
ATOM     29  H   UNL     1      -1.693  12.572  20.826  0.00  0.00    +0.000 HD
ATOM     30  H   UNL     1      -1.243  10.057  17.769  0.00  0.00    +0.000 HD
BRANCH  28  31
ATOM     31  C   UNL     1      -2.936  11.238  17.416  0.00  0.00    +0.000 C 
ATOM     32  C   UNL     1      -2.716  11.108  15.911  0.00  0.00    +0.000 C 
ATOM     33  C   UNL     1      -4.052  10.303  17.876  0.00  0.00    +0.000 C 
ENDBRANCH  28  31
ENDBRANCH  24  26
ENDBRANCH   3  20
TORSDOF 6
ENDMDL
MODEL 2
REMARK VINA RESULT:      -8.5      0.828      1.325
REMARK  Name = 
REMARK  10 active torsions:
REMARK  status: ('A' for Active; 'I' for Inactive)
REMARK    1  A    between atoms: C_1  and  C_2
REMARK    2  A    between atoms: C_2  and  C_3
REMARK    3  A    between atoms: C_2  and  N_4
REMARK    4  A    between atoms: C_5  and  C_7
REMARK    5  A    between atoms: C_10  and  C_11
REMARK    6  A    between atoms: N_13  and  C_14
REMARK    7  A    between atoms: C_18  and  C_19
REMARK    8  A    between atoms: N_21  and  C_22
REMARK    9  A    between atoms: C_22  and  C_23
REMARK   10  A    between atoms: C_22  and  C_24
REMARK                            x       y       z     vdW  Elec       q    Type
REMARK                         _______ _______ _______ _____ _____    ______ ____
ROOT
ATOM      1  C   UNL     1       2.876   6.773  18.709  0.00  0.00    +0.000 A 
ATOM      2  C   UNL     1       2.225   7.984  18.651  0.00  0.00    +0.000 A 
ATOM      3  N   UNL     1       1.576   8.091  19.859  0.00  0.00    +0.000 N 
ATOM      4  N   UNL     1       1.805   6.981  20.598  0.00  0.00    +0.000 NA
ATOM      5  N   UNL     1       2.600   6.176  19.908  0.00  0.00    +0.000 NA
ENDROOT
BRANCH   1   9
ATOM      6  C   UNL     1       5.517   5.192  15.760  0.00  0.00    +0.000 A 
ATOM      7  C   UNL     1       5.428   6.570  15.968  0.00  0.00    +0.000 A 
ATOM      8  C   UNL     1       4.561   7.076  16.944  0.00  0.00    +0.000 A 
ATOM      9  C   UNL     1       3.765   6.214  17.708  0.00  0.00    +0.000 A 
ATOM     10  C   UNL     1       3.843   4.834  17.479  0.00  0.00    +0.000 A 
ATOM     11  C   UNL     1       4.713   4.328  16.506  0.00  0.00    +0.000 A 
BRANCH   6  13
ATOM     12  N   UNL     1       6.079   3.579  13.967  0.00  0.00    +0.000 N 
ATOM     13  C   UNL     1       6.489   4.621  14.772  0.00  0.00    +0.000 C 
ATOM     14  N   UNL     1       7.663   5.152  14.698  0.00  0.00    +0.000 NA
ATOM     15  H   UNL     1       5.106   3.311  14.084  0.00  0.00    +0.000 HD
ATOM     16  H   UNL     1       8.218   4.638  14.014  0.00  0.00    +0.000 HD
BRANCH  12  18
ATOM     17  C   UNL     1       5.361   2.863  11.760  0.00  0.00    +0.000 C 
ATOM     18  C   UNL     1       6.544   3.345  12.601  0.00  0.00    +0.000 C 
ATOM     19  C   UNL     1       7.121   4.619  11.985  0.00  0.00    +0.000 C 
ENDBRANCH  12  18
ENDBRANCH   6  13
ENDBRANCH   1   9
BRANCH   3  20
ATOM     20  C   UNL     1       0.794   9.169  20.345  0.00  0.00    +0.000 A 
ATOM     21  C   UNL     1       0.759   9.470  21.714  0.00  0.00    +0.000 A 
ATOM     22  C   UNL     1      -0.031  10.518  22.182  0.00  0.00    +0.000 A 
ATOM     23  C   UNL     1      -0.801  11.266  21.288  0.00  0.00    +0.000 A 
ATOM     24  C   UNL     1      -0.794  10.966  19.923  0.00  0.00    +0.000 A 
ATOM     25  C   UNL     1       0.028   9.935  19.443  0.00  0.00    +0.000 A 
BRANCH  24  26
ATOM     26  C   UNL     1      -1.666  11.753  18.989  0.00  0.00    +0.000 C 
ATOM     27  N   UNL     1      -1.667  13.050  19.006  0.00  0.00    +0.000 NA
ATOM     28  N   UNL     1      -2.479  11.077  18.111  0.00  0.00    +0.000 N 
ATOM     29  H   UNL     1      -1.033  13.429  19.713  0.00  0.00    +0.000 HD
ATOM     30  H   UNL     1      -2.426  10.068  18.088  0.00  0.00    +0.000 HD
BRANCH  28  31
ATOM     31  C   UNL     1      -3.718  11.638  17.583  0.00  0.00    +0.000 C 
ATOM     32  C   UNL     1      -4.043  10.977  16.246  0.00  0.00    +0.000 C 
ATOM     33  C   UNL     1      -4.839  11.389  18.589  0.00  0.00    +0.000 C 
ENDBRANCH  28  31
ENDBRANCH  24  26
ENDBRANCH   3  20
TORSDOF 6
ENDMDL
MODEL 3
REMARK VINA RESULT:      -8.4      6.521     10.026
REMARK  Name = 
REMARK  10 active torsions:
REMARK  status: ('A' for Active; 'I' for Inactive)
REMARK    1  A    between atoms: C_1  and  C_2
REMARK    2  A    between atoms: C_2  and  C_3
REMARK    3  A    between atoms: C_2  and  N_4
REMARK    4  A    between atoms: C_5  and  C_7
REMARK    5  A    between atoms: C_10  and  C_11
REMARK    6  A    between atoms: N_13  and  C_14
REMARK    7  A    between atoms: C_18  and  C_19
REMARK    8  A    between atoms: N_21  and  C_22
REMARK    9  A    between atoms: C_22  and  C_23
REMARK   10  A    between atoms: C_22  and  C_24
REMARK                            x       y       z     vdW  Elec       q    Type
REMARK                         _______ _______ _______ _____ _____    ______ ____
ROOT
ATOM      1  C   UNL     1       8.307   8.903  18.164  0.00  0.00    +0.000 A 
ATOM      2  C   UNL     1       7.331   8.313  17.394  0.00  0.00    +0.000 A 
ATOM      3  N   UNL     1       7.257   7.018  17.855  0.00  0.00    +0.000 N 
ATOM      4  N   UNL     1       8.167   6.834  18.839  0.00  0.00    +0.000 NA
ATOM      5  N   UNL     1       8.807   7.977  19.037  0.00  0.00    +0.000 NA
ENDROOT
BRANCH   1   9
ATOM      6  C   UNL     1       9.470  13.003  18.024  0.00  0.00    +0.000 A 
ATOM      7  C   UNL     1       8.279  12.582  17.430  0.00  0.00    +0.000 A 
ATOM      8  C   UNL     1       7.905  11.233  17.488  0.00  0.00    +0.000 A 
ATOM      9  C   UNL     1       8.724  10.292  18.125  0.00  0.00    +0.000 A 
ATOM     10  C   UNL     1       9.929  10.717  18.700  0.00  0.00    +0.000 A 
ATOM     11  C   UNL     1      10.300  12.066  18.645  0.00  0.00    +0.000 A 
BRANCH   6  13
ATOM     12  N   UNL     1       9.594  15.195  19.168  0.00  0.00    +0.000 N 
ATOM     13  C   UNL     1       9.858  14.450  18.038  0.00  0.00    +0.000 C 
ATOM     14  N   UNL     1      10.450  14.930  16.997  0.00  0.00    +0.000 NA
ATOM     15  H   UNL     1       9.189  14.669  19.937  0.00  0.00    +0.000 HD
ATOM     16  H   UNL     1      10.617  15.926  17.139  0.00  0.00    +0.000 HD
BRANCH  12  18
ATOM     17  C   UNL     1       9.575  17.150  20.608  0.00  0.00    +0.000 C 
ATOM     18  C   UNL     1      10.412  16.308  19.645  0.00  0.00    +0.000 C 
ATOM     19  C   UNL     1      11.665  15.807  20.364  0.00  0.00    +0.000 C 
ENDBRANCH  12  18
ENDBRANCH   6  13
ENDBRANCH   1   9
BRANCH   3  20
ATOM     20  C   UNL     1       6.378   5.987  17.441  0.00  0.00    +0.000 A 
ATOM     21  C   UNL     1       6.064   5.814  16.085  0.00  0.00    +0.000 A 
ATOM     22  C   UNL     1       5.180   4.810  15.693  0.00  0.00    +0.000 A 
ATOM     23  C   UNL     1       4.595   3.979  16.652  0.00  0.00    +0.000 A 
ATOM     24  C   UNL     1       4.882   4.152  18.009  0.00  0.00    +0.000 A 
ATOM     25  C   UNL     1       5.799   5.137  18.405  0.00  0.00    +0.000 A 
BRANCH  24  26
ATOM     26  C   UNL     1       4.204   3.278  19.024  0.00  0.00    +0.000 C 
ATOM     27  N   UNL     1       4.830   2.287  19.580  0.00  0.00    +0.000 NA
ATOM     28  N   UNL     1       2.895   3.537  19.356  0.00  0.00    +0.000 N 
ATOM     29  H   UNL     1       5.788   2.192  19.237  0.00  0.00    +0.000 HD
ATOM     30  H   UNL     1       2.446   4.341  18.940  0.00  0.00    +0.000 HD
BRANCH  28  31
ATOM     31  C   UNL     1       1.983   2.511  19.848  0.00  0.00    +0.000 C 
ATOM     32  C   UNL     1       1.446   2.927  21.216  0.00  0.00    +0.000 C 
ATOM     33  C   UNL     1       0.839   2.349  18.851  0.00  0.00    +0.000 C 
ENDBRANCH  28  31
ENDBRANCH  24  26
ENDBRANCH   3  20
TORSDOF 6
ENDMDL
MODEL 4
REMARK VINA RESULT:      -8.3      3.729      5.592
REMARK  Name = 
REMARK  10 active torsions:
REMARK  status: ('A' for Active; 'I' for Inactive)
REMARK    1  A    between atoms: C_1  and  C_2
REMARK    2  A    between atoms: C_2  and  C_3
REMARK    3  A    between atoms: C_2  and  N_4
REMARK    4  A    between atoms: C_5  and  C_7
REMARK    5  A    between atoms: C_10  and  C_11
REMARK    6  A    between atoms: N_13  and  C_14
REMARK    7  A    between atoms: C_18  and  C_19
REMARK    8  A    between atoms: N_21  and  C_22
REMARK    9  A    between atoms: C_22  and  C_23
REMARK   10  A    between atoms: C_22  and  C_24
REMARK                            x       y       z     vdW  Elec       q    Type
REMARK                         _______ _______ _______ _____ _____    ______ ____
ROOT
ATOM      1  C   UNL     1       0.707   9.246  21.400  0.00  0.00    +0.000 A 
ATOM      2  C   UNL     1      -0.164  10.268  21.101  0.00  0.00    +0.000 A 
ATOM      3  N   UNL     1      -0.426  10.870  22.311  0.00  0.00    +0.000 N 
ATOM      4  N   UNL     1       0.238  10.220  23.294  0.00  0.00    +0.000 NA
ATOM      5  N   UNL     1       0.934   9.233  22.748  0.00  0.00    +0.000 NA
ENDROOT
BRANCH   1   9
ATOM      6  C   UNL     1       2.597   6.652  18.594  0.00  0.00    +0.000 A 
ATOM      7  C   UNL     1       2.281   7.966  18.245  0.00  0.00    +0.000 A 
ATOM      8  C   UNL     1       1.665   8.810  19.177  0.00  0.00    +0.000 A 
ATOM      9  C   UNL     1       1.346   8.344  20.460  0.00  0.00    +0.000 A 
ATOM     10  C   UNL     1       1.646   7.019  20.796  0.00  0.00    +0.000 A 
ATOM     11  C   UNL     1       2.265   6.176  19.865  0.00  0.00    +0.000 A 
BRANCH   6  13
ATOM     12  N   UNL     1       4.364   6.269  16.901  0.00  0.00    +0.000 N 
ATOM     13  C   UNL     1       3.320   5.751  17.638  0.00  0.00    +0.000 C 
ATOM     14  N   UNL     1       2.949   4.517  17.569  0.00  0.00    +0.000 NA
ATOM     15  H   UNL     1       4.592   7.236  17.112  0.00  0.00    +0.000 HD
ATOM     16  H   UNL     1       3.504   4.042  16.857  0.00  0.00    +0.000 HD
BRANCH  12  18
ATOM     17  C   UNL     1       5.464   5.297  14.966  0.00  0.00    +0.000 C 
ATOM     18  C   UNL     1       5.542   5.515  16.478  0.00  0.00    +0.000 C 
ATOM     19  C   UNL     1       6.831   6.263  16.818  0.00  0.00    +0.000 C 
ENDBRANCH  12  18
ENDBRANCH   6  13
ENDBRANCH   1   9
BRANCH   3  20
ATOM     20  C   UNL     1      -1.227  12.010  22.570  0.00  0.00    +0.000 A 
ATOM     21  C   UNL     1      -0.759  13.298  22.273  0.00  0.00    +0.000 A 
ATOM     22  C   UNL     1      -1.547  14.413  22.554  0.00  0.00    +0.000 A 
ATOM     23  C   UNL     1      -2.803  14.250  23.144  0.00  0.00    +0.000 A 
ATOM     24  C   UNL     1      -3.275  12.974  23.465  0.00  0.00    +0.000 A 
ATOM     25  C   UNL     1      -2.501  11.848  23.151  0.00  0.00    +0.000 A 
BRANCH  24  26
ATOM     26  C   UNL     1      -4.607  12.829  24.143  0.00  0.00    +0.000 C 
ATOM     27  N   UNL     1      -4.781  11.975  25.104  0.00  0.00    +0.000 NA
ATOM     28  N   UNL     1      -5.655  13.614  23.723  0.00  0.00    +0.000 N 
ATOM     29  H   UNL     1      -3.932  11.444  25.309  0.00  0.00    +0.000 HD
ATOM     30  H   UNL     1      -5.480  14.301  23.003  0.00  0.00    +0.000 HD
BRANCH  28  31
ATOM     31  C   UNL     1      -7.051  13.218  23.868  0.00  0.00    +0.000 C 
ATOM     32  C   UNL     1      -7.916  14.466  24.026  0.00  0.00    +0.000 C 
ATOM     33  C   UNL     1      -7.471  12.430  22.629  0.00  0.00    +0.000 C 
ENDBRANCH  28  31
ENDBRANCH  24  26
ENDBRANCH   3  20
TORSDOF 6
ENDMDL
MODEL 5
REMARK VINA RESULT:      -8.3      1.502      2.144
REMARK  Name = 
REMARK  10 active torsions:
REMARK  status: ('A' for Active; 'I' for Inactive)
REMARK    1  A    between atoms: C_1  and  C_2
REMARK    2  A    between atoms: C_2  and  C_3
REMARK    3  A    between atoms: C_2  and  N_4
REMARK    4  A    between atoms: C_5  and  C_7
REMARK    5  A    between atoms: C_10  and  C_11
REMARK    6  A    between atoms: N_13  and  C_14
REMARK    7  A    between atoms: C_18  and  C_19
REMARK    8  A    between atoms: N_21  and  C_22
REMARK    9  A    between atoms: C_22  and  C_23
REMARK   10  A    between atoms: C_22  and  C_24
REMARK                            x       y       z     vdW  Elec       q    Type
REMARK                         _______ _______ _______ _____ _____    ______ ____
ROOT
ATOM      1  C   UNL     1       2.953   6.500  18.738  0.00  0.00    +0.000 A 
ATOM      2  C   UNL     1       2.372   7.741  18.863  0.00  0.00    +0.000 A 
ATOM      3  N   UNL     1       1.771   7.722  20.101  0.00  0.00    +0.000 N 
ATOM      4  N   UNL     1       1.961   6.515  20.680  0.00  0.00    +0.000 NA
ATOM      5  N   UNL     1       2.684   5.766  19.860  0.00  0.00    +0.000 NA
ENDROOT
BRANCH   1   9
ATOM      6  C   UNL     1       5.334   5.053  15.510  0.00  0.00    +0.000 A 
ATOM      7  C   UNL     1       4.606   4.169  16.308  0.00  0.00    +0.000 A 
ATOM      8  C   UNL     1       3.823   4.657  17.361  0.00  0.00    +0.000 A 
ATOM      9  C   UNL     1       3.773   6.029  17.637  0.00  0.00    +0.000 A 
ATOM     10  C   UNL     1       4.524   6.910  16.847  0.00  0.00    +0.000 A 
ATOM     11  C   UNL     1       5.303   6.421  15.792  0.00  0.00    +0.000 A 
BRANCH   6  13
ATOM     12  N   UNL     1       5.606   3.537  13.571  0.00  0.00    +0.000 N 
ATOM     13  C   UNL     1       6.123   4.564  14.334  0.00  0.00    +0.000 C 
ATOM     14  N   UNL     1       7.243   5.146  14.068  0.00  0.00    +0.000 NA
ATOM     15  H   UNL     1       4.681   3.223  13.855  0.00  0.00    +0.000 HD
ATOM     16  H   UNL     1       7.677   4.685  13.270  0.00  0.00    +0.000 HD
BRANCH  12  18
ATOM     17  C   UNL     1       6.611   2.093  11.898  0.00  0.00    +0.000 C 
ATOM     18  C   UNL     1       5.814   3.377  12.134  0.00  0.00    +0.000 C 
ATOM     19  C   UNL     1       4.484   3.295  11.385  0.00  0.00    +0.000 C 
ENDBRANCH  12  18
ENDBRANCH   6  13
ENDBRANCH   1   9
BRANCH   3  20
ATOM     20  C   UNL     1       1.070   8.767  20.753  0.00  0.00    +0.000 A 
ATOM     21  C   UNL     1       0.714   8.657  22.105  0.00  0.00    +0.000 A 
ATOM     22  C   UNL     1       0.004   9.681  22.729  0.00  0.00    +0.000 A 
ATOM     23  C   UNL     1      -0.363  10.818  22.006  0.00  0.00    +0.000 A 
ATOM     24  C   UNL     1      -0.034  10.935  20.652  0.00  0.00    +0.000 A 
ATOM     25  C   UNL     1       0.711   9.922  20.030  0.00  0.00    +0.000 A 
BRANCH  24  26
ATOM     26  C   UNL     1      -0.482  12.145  19.884  0.00  0.00    +0.000 C 
ATOM     27  N   UNL     1      -1.499  12.089  19.081  0.00  0.00    +0.000 NA
ATOM     28  N   UNL     1       0.209  13.323  20.039  0.00  0.00    +0.000 N 
ATOM     29  H   UNL     1      -1.914  11.156  19.044  0.00  0.00    +0.000 HD
ATOM     30  H   UNL     1       0.969  13.349  20.704  0.00  0.00    +0.000 HD
BRANCH  28  31
ATOM     31  C   UNL     1       0.260  14.353  19.009  0.00  0.00    +0.000 C 
ATOM     32  C   UNL     1      -0.381  15.633  19.541  0.00  0.00    +0.000 C 
ATOM     33  C   UNL     1       1.718  14.602  18.631  0.00  0.00    +0.000 C 
ENDBRANCH  28  31
ENDBRANCH  24  26
ENDBRANCH   3  20
TORSDOF 6
ENDMDL
MODEL 6
REMARK VINA RESULT:      -8.3      6.331      9.783
REMARK  Name = 
REMARK  10 active torsions:
REMARK  status: ('A' for Active; 'I' for Inactive)
REMARK    1  A    between atoms: C_1  and  C_2
REMARK    2  A    between atoms: C_2  and  C_3
REMARK    3  A    between atoms: C_2  and  N_4
REMARK    4  A    between atoms: C_5  and  C_7
REMARK    5  A    between atoms: C_10  and  C_11
REMARK    6  A    between atoms: N_13  and  C_14
REMARK    7  A    between atoms: C_18  and  C_19
REMARK    8  A    between atoms: N_21  and  C_22
REMARK    9  A    between atoms: C_22  and  C_23
REMARK   10  A    between atoms: C_22  and  C_24
REMARK                            x       y       z     vdW  Elec       q    Type
REMARK                         _______ _______ _______ _____ _____    ______ ____
ROOT
ATOM      1  C   UNL     1       8.261   8.486  18.278  0.00  0.00    +0.000 A 
ATOM      2  C   UNL     1       7.339   7.964  17.400  0.00  0.00    +0.000 A 
ATOM      3  N   UNL     1       7.182   6.655  17.795  0.00  0.00    +0.000 N 
ATOM      4  N   UNL     1       7.995   6.397  18.845  0.00  0.00    +0.000 NA
ATOM      5  N   UNL     1       8.651   7.507  19.150  0.00  0.00    +0.000 NA
ENDROOT
BRANCH   1   9
ATOM      6  C   UNL     1       9.679  12.501  18.494  0.00  0.00    +0.000 A 
ATOM      7  C   UNL     1      10.222  11.511  19.315  0.00  0.00    +0.000 A 
ATOM      8  C   UNL     1       9.751  10.195  19.230  0.00  0.00    +0.000 A 
ATOM      9  C   UNL     1       8.725   9.859  18.337  0.00  0.00    +0.000 A 
ATOM     10  C   UNL     1       8.170  10.862  17.532  0.00  0.00    +0.000 A 
ATOM     11  C   UNL     1       8.643  12.177  17.615  0.00  0.00    +0.000 A 
BRANCH   6  13
ATOM     12  N   UNL     1       9.525  14.882  17.833  0.00  0.00    +0.000 N 
ATOM     13  C   UNL     1      10.214  13.901  18.515  0.00  0.00    +0.000 C 
ATOM     14  N   UNL     1      11.284  14.132  19.197  0.00  0.00    +0.000 NA
ATOM     15  H   UNL     1       8.660  14.570  17.401  0.00  0.00    +0.000 HD
ATOM     16  H   UNL     1      11.544  15.112  19.087  0.00  0.00    +0.000 HD
BRANCH  12  18
ATOM     17  C   UNL     1      10.302  17.113  17.268  0.00  0.00    +0.000 C 
ATOM     18  C   UNL     1       9.454  16.286  18.235  0.00  0.00    +0.000 C 
ATOM     19  C   UNL     1       8.014  16.797  18.214  0.00  0.00    +0.000 C 
ENDBRANCH  12  18
ENDBRANCH   6  13
ENDBRANCH   1   9
BRANCH   3  20
ATOM     20  C   UNL     1       6.311   5.674  17.260  0.00  0.00    +0.000 A 
ATOM     21  C   UNL     1       6.067   5.607  15.880  0.00  0.00    +0.000 A 
ATOM     22  C   UNL     1       5.190   4.652  15.369  0.00  0.00    +0.000 A 
ATOM     23  C   UNL     1       4.542   3.765  16.231  0.00  0.00    +0.000 A 
ATOM     24  C   UNL     1       4.758   3.831  17.611  0.00  0.00    +0.000 A 
ATOM     25  C   UNL     1       5.668   4.767  18.126  0.00  0.00    +0.000 A 
BRANCH  24  26
ATOM     26  C   UNL     1       4.013   2.898  18.521  0.00  0.00    +0.000 C 
ATOM     27  N   UNL     1       4.190   1.615  18.455  0.00  0.00    +0.000 NA
ATOM     28  N   UNL     1       3.126   3.424  19.430  0.00  0.00    +0.000 N 
ATOM     29  H   UNL     1       4.862   1.353  17.730  0.00  0.00    +0.000 HD
ATOM     30  H   UNL     1       3.041   4.429  19.489  0.00  0.00    +0.000 HD
BRANCH  28  31
ATOM     31  C   UNL     1       1.983   2.680  19.945  0.00  0.00    +0.000 C 
ATOM     32  C   UNL     1       1.474   3.352  21.217  0.00  0.00    +0.000 C 
ATOM     33  C   UNL     1       0.890   2.655  18.879  0.00  0.00    +0.000 C 
ENDBRANCH  28  31
ENDBRANCH  24  26
ENDBRANCH   3  20
TORSDOF 6
ENDMDL
MODEL 7
REMARK VINA RESULT:      -8.3      2.803     10.959
REMARK  Name = 
REMARK  10 active torsions:
REMARK  status: ('A' for Active; 'I' for Inactive)
REMARK    1  A    between atoms: C_1  and  C_2
REMARK    2  A    between atoms: C_2  and  C_3
REMARK    3  A    between atoms: C_2  and  N_4
REMARK    4  A    between atoms: C_5  and  C_7
REMARK    5  A    between atoms: C_10  and  C_11
REMARK    6  A    between atoms: N_13  and  C_14
REMARK    7  A    between atoms: C_18  and  C_19
REMARK    8  A    between atoms: N_21  and  C_22
REMARK    9  A    between atoms: C_22  and  C_23
REMARK   10  A    between atoms: C_22  and  C_24
REMARK                            x       y       z     vdW  Elec       q    Type
REMARK                         _______ _______ _______ _____ _____    ______ ____
ROOT
ATOM      1  C   UNL     1       1.055   9.007  20.238  0.00  0.00    +0.000 A 
ATOM      2  C   UNL     1       1.378   7.752  20.704  0.00  0.00    +0.000 A 
ATOM      3  N   UNL     1       2.110   7.180  19.689  0.00  0.00    +0.000 N 
ATOM      4  N   UNL     1       2.198   8.042  18.650  0.00  0.00    +0.000 NA
ATOM      5  N   UNL     1       1.564   9.159  18.978  0.00  0.00    +0.000 NA
ENDROOT
BRANCH   1   9
ATOM      6  C   UNL     1      -1.037  12.019  22.411  0.00  0.00    +0.000 A 
ATOM      7  C   UNL     1      -0.893  10.735  22.937  0.00  0.00    +0.000 A 
ATOM      8  C   UNL     1      -0.199   9.755  22.216  0.00  0.00    +0.000 A 
ATOM      9  C   UNL     1       0.344  10.046  20.958  0.00  0.00    +0.000 A 
ATOM     10  C   UNL     1       0.178  11.331  20.426  0.00  0.00    +0.000 A 
ATOM     11  C   UNL     1      -0.513  12.310  21.149  0.00  0.00    +0.000 A 
BRANCH   6  13
ATOM     12  N   UNL     1      -3.090  13.176  23.171  0.00  0.00    +0.000 N 
ATOM     13  C   UNL     1      -1.713  13.104  23.194  0.00  0.00    +0.000 C 
ATOM     14  N   UNL     1      -0.974  13.910  23.879  0.00  0.00    +0.000 NA
ATOM     15  H   UNL     1      -3.544  12.433  22.648  0.00  0.00    +0.000 HD
ATOM     16  H   UNL     1      -1.568  14.609  24.324  0.00  0.00    +0.000 HD
BRANCH  12  18
ATOM     17  C   UNL     1      -4.949  14.634  23.734  0.00  0.00    +0.000 C 
ATOM     18  C   UNL     1      -3.920  13.642  24.280  0.00  0.00    +0.000 C 
ATOM     19  C   UNL     1      -4.645  12.480  24.959  0.00  0.00    +0.000 C 
ENDBRANCH  12  18
ENDBRANCH   6  13
ENDBRANCH   1   9
BRANCH   3  20
ATOM     20  C   UNL     1       2.731   5.906  19.664  0.00  0.00    +0.000 A 
ATOM     21  C   UNL     1       2.260   4.863  20.473  0.00  0.00    +0.000 A 
ATOM     22  C   UNL     1       2.893   3.621  20.457  0.00  0.00    +0.000 A 
ATOM     23  C   UNL     1       4.008   3.417  19.640  0.00  0.00    +0.000 A 
ATOM     24  C   UNL     1       4.503   4.452  18.842  0.00  0.00    +0.000 A 
ATOM     25  C   UNL     1       3.846   5.692  18.829  0.00  0.00    +0.000 A 
BRANCH  24  26
ATOM     26  C   UNL     1       5.731   4.222  18.010  0.00  0.00    +0.000 C 
ATOM     27  N   UNL     1       6.915   4.263  18.537  0.00  0.00    +0.000 NA
ATOM     28  N   UNL     1       5.585   3.970  16.667  0.00  0.00    +0.000 N 
ATOM     29  H   UNL     1       6.887   4.474  19.537  0.00  0.00    +0.000 HD
ATOM     30  H   UNL     1       4.649   3.900  16.291  0.00  0.00    +0.000 HD
BRANCH  28  31
ATOM     31  C   UNL     1       6.618   4.278  15.685  0.00  0.00    +0.000 C 
ATOM     32  C   UNL     1       6.172   3.786  14.310  0.00  0.00    +0.000 C 
ATOM     33  C   UNL     1       6.845   5.788  15.665  0.00  0.00    +0.000 C 
ENDBRANCH  28  31
ENDBRANCH  24  26
ENDBRANCH   3  20
TORSDOF 6
ENDMDL
MODEL 8
REMARK VINA RESULT:      -8.3      6.245      9.632
REMARK  Name = 
REMARK  10 active torsions:
REMARK  status: ('A' for Active; 'I' for Inactive)
REMARK    1  A    between atoms: C_1  and  C_2
REMARK    2  A    between atoms: C_2  and  C_3
REMARK    3  A    between atoms: C_2  and  N_4
REMARK    4  A    between atoms: C_5  and  C_7
REMARK    5  A    between atoms: C_10  and  C_11
REMARK    6  A    between atoms: N_13  and  C_14
REMARK    7  A    between atoms: C_18  and  C_19
REMARK    8  A    between atoms: N_21  and  C_22
REMARK    9  A    between atoms: C_22  and  C_23
REMARK   10  A    between atoms: C_22  and  C_24
REMARK                            x       y       z     vdW  Elec       q    Type
REMARK                         _______ _______ _______ _____ _____    ______ ____
ROOT
ATOM      1  C   UNL     1       8.300   8.488  18.365  0.00  0.00    +0.000 A 
ATOM      2  C   UNL     1       7.432   8.046  17.393  0.00  0.00    +0.000 A 
ATOM      3  N   UNL     1       7.239   6.713  17.676  0.00  0.00    +0.000 N 
ATOM      4  N   UNL     1       7.980   6.366  18.754  0.00  0.00    +0.000 NA
ATOM      5  N   UNL     1       8.625   7.441  19.182  0.00  0.00    +0.000 NA
ENDROOT
BRANCH   1   9
ATOM      6  C   UNL     1       9.643  12.502  18.880  0.00  0.00    +0.000 A 
ATOM      7  C   UNL     1       8.862  12.150  17.778  0.00  0.00    +0.000 A 
ATOM      8  C   UNL     1       8.423  10.830  17.623  0.00  0.00    +0.000 A 
ATOM      9  C   UNL     1       8.772   9.847  18.558  0.00  0.00    +0.000 A 
ATOM     10  C   UNL     1       9.574  10.201  19.650  0.00  0.00    +0.000 A 
ATOM     11  C   UNL     1      10.010  11.522  19.806  0.00  0.00    +0.000 A 
BRANCH   6  13
ATOM     12  N   UNL     1       9.910  14.830  18.080  0.00  0.00    +0.000 N 
ATOM     13  C   UNL     1      10.067  13.922  19.106  0.00  0.00    +0.000 C 
ATOM     14  N   UNL     1      10.535  14.238  20.266  0.00  0.00    +0.000 NA
ATOM     15  H   UNL     1       9.461  14.457  17.249  0.00  0.00    +0.000 HD
ATOM     16  H   UNL     1      10.811  15.220  20.257  0.00  0.00    +0.000 HD
BRANCH  12  18
ATOM     17  C   UNL     1      10.344  17.039  17.168  0.00  0.00    +0.000 C 
ATOM     18  C   UNL     1       9.619  16.251  18.260  0.00  0.00    +0.000 C 
ATOM     19  C   UNL     1       8.118  16.526  18.174  0.00  0.00    +0.000 C 
ENDBRANCH  12  18
ENDBRANCH   6  13
ENDBRANCH   1   9
BRANCH   3  20
ATOM     20  C   UNL     1       6.395   5.787  17.014  0.00  0.00    +0.000 A 
ATOM     21  C   UNL     1       6.663   5.387  15.697  0.00  0.00    +0.000 A 
ATOM     22  C   UNL     1       5.813   4.493  15.049  0.00  0.00    +0.000 A 
ATOM     23  C   UNL     1       4.683   4.002  15.707  0.00  0.00    +0.000 A 
ATOM     24  C   UNL     1       4.390   4.406  17.012  0.00  0.00    +0.000 A 
ATOM     25  C   UNL     1       5.263   5.277  17.681  0.00  0.00    +0.000 A 
BRANCH  24  26
ATOM     26  C   UNL     1       3.144   3.901  17.680  0.00  0.00    +0.000 C 
ATOM     27  N   UNL     1       2.198   3.337  16.994  0.00  0.00    +0.000 NA
ATOM     28  N   UNL     1       3.011   4.051  19.040  0.00  0.00    +0.000 N 
ATOM     29  H   UNL     1       2.412   3.300  15.995  0.00  0.00    +0.000 HD
ATOM     30  H   UNL     1       3.782   4.454  19.554  0.00  0.00    +0.000 HD
BRANCH  28  31
ATOM     31  C   UNL     1       1.718   4.136  19.706  0.00  0.00    +0.000 C 
ATOM     32  C   UNL     1       1.484   2.865  20.519  0.00  0.00    +0.000 C 
ATOM     33  C   UNL     1       1.711   5.362  20.617  0.00  0.00    +0.000 C 
ENDBRANCH  28  31
ENDBRANCH  24  26
ENDBRANCH   3  20
TORSDOF 6
ENDMDL
MODEL 9
REMARK VINA RESULT:      -8.2      1.669      2.490
REMARK  Name = 
REMARK  10 active torsions:
REMARK  status: ('A' for Active; 'I' for Inactive)
REMARK    1  A    between atoms: C_1  and  C_2
REMARK    2  A    between atoms: C_2  and  C_3
REMARK    3  A    between atoms: C_2  and  N_4
REMARK    4  A    between atoms: C_5  and  C_7
REMARK    5  A    between atoms: C_10  and  C_11
REMARK    6  A    between atoms: N_13  and  C_14
REMARK    7  A    between atoms: C_18  and  C_19
REMARK    8  A    between atoms: N_21  and  C_22
REMARK    9  A    between atoms: C_22  and  C_23
REMARK   10  A    between atoms: C_22  and  C_24
REMARK                            x       y       z     vdW  Elec       q    Type
REMARK                         _______ _______ _______ _____ _____    ______ ____
ROOT
ATOM      1  C   UNL     1       2.951   6.666  18.662  0.00  0.00    +0.000 A 
ATOM      2  C   UNL     1       2.397   7.926  18.683  0.00  0.00    +0.000 A 
ATOM      3  N   UNL     1       1.701   7.981  19.870  0.00  0.00    +0.000 N 
ATOM      4  N   UNL     1       1.811   6.798  20.516  0.00  0.00    +0.000 NA
ATOM      5  N   UNL     1       2.574   5.993  19.791  0.00  0.00    +0.000 NA
ENDROOT
BRANCH   1   9
ATOM      6  C   UNL     1       5.594   5.139  15.685  0.00  0.00    +0.000 A 
ATOM      7  C   UNL     1       5.457   6.515  15.875  0.00  0.00    +0.000 A 
ATOM      8  C   UNL     1       4.590   7.004  16.860  0.00  0.00    +0.000 A 
ATOM      9  C   UNL     1       3.841   6.124  17.652  0.00  0.00    +0.000 A 
ATOM     10  C   UNL     1       3.966   4.745  17.441  0.00  0.00    +0.000 A 
ATOM     11  C   UNL     1       4.836   4.257  16.459  0.00  0.00    +0.000 A 
BRANCH   6  13
ATOM     12  N   UNL     1       6.170   3.541  13.882  0.00  0.00    +0.000 N 
ATOM     13  C   UNL     1       6.567   4.589  14.686  0.00  0.00    +0.000 C 
ATOM     14  N   UNL     1       7.730   5.142  14.604  0.00  0.00    +0.000 NA
ATOM     15  H   UNL     1       5.203   3.255  14.007  0.00  0.00    +0.000 HD
ATOM     16  H   UNL     1       8.288   4.641  13.913  0.00  0.00    +0.000 HD
BRANCH  12  18
ATOM     17  C   UNL     1       5.471   2.732  11.702  0.00  0.00    +0.000 C 
ATOM     18  C   UNL     1       6.627   3.320  12.512  0.00  0.00    +0.000 C 
ATOM     19  C   UNL     1       7.091   4.624  11.864  0.00  0.00    +0.000 C 
ENDBRANCH  12  18
ENDBRANCH   6  13
ENDBRANCH   1   9
BRANCH   3  20
ATOM     20  C   UNL     1       0.981   9.072  20.416  0.00  0.00    +0.000 A 
ATOM     21  C   UNL     1       0.536   9.043  21.746  0.00  0.00    +0.000 A 
ATOM     22  C   UNL     1      -0.191  10.113  22.265  0.00  0.00    +0.000 A 
ATOM     23  C   UNL     1      -0.487  11.214  21.458  0.00  0.00    +0.000 A 
ATOM     24  C   UNL     1      -0.068  11.250  20.125  0.00  0.00    +0.000 A 
ATOM     25  C   UNL     1       0.695  10.191  19.609  0.00  0.00    +0.000 A 
BRANCH  24  26
ATOM     26  C   UNL     1      -0.440  12.422  19.264  0.00  0.00    +0.000 C 
ATOM     27  N   UNL     1      -0.786  12.261  18.025  0.00  0.00    +0.000 NA
ATOM     28  N   UNL     1      -0.403  13.684  19.809  0.00  0.00    +0.000 N 
ATOM     29  H   UNL     1      -0.758  11.280  17.739  0.00  0.00    +0.000 HD
ATOM     30  H   UNL     1      -0.173  13.776  20.789  0.00  0.00    +0.000 HD
BRANCH  28  31
ATOM     31  C   UNL     1      -0.188  14.886  19.012  0.00  0.00    +0.000 C 
ATOM     32  C   UNL     1      -0.906  16.063  19.668  0.00  0.00    +0.000 C 
ATOM     33  C   UNL     1       1.312  15.157  18.924  0.00  0.00    +0.000 C 
ENDBRANCH  28  31
ENDBRANCH  24  26
ENDBRANCH   3  20
TORSDOF 6
ENDMDL
