MODEL 1
REMARK VINA RESULT:      -7.0      0.000      0.000
REMARK  Name = 
REMARK  4 active torsions:
REMARK  status: ('A' for Active; 'I' for Inactive)
REMARK    1  A    between atoms: C_1  and  C_2
REMARK    2  A    between atoms: C_2  and  N_3
REMARK    3  A    between atoms: C_5  and  C_6
REMARK    4  A    between atoms: C_14  and  C_15
REMARK                            x       y       z     vdW  Elec       q    Type
REMARK                         _______ _______ _______ _____ _____    ______ ____
ROOT
ATOM      1  N   UNL     1       4.616   3.976  17.944  0.00  0.00    +0.000 N 
ATOM      2  C   UNL     1       5.356   3.870  16.787  0.00  0.00    +0.000 A 
ATOM      3  C   UNL     1       5.632   4.869  15.934  0.00  0.00    +0.000 A 
ATOM      4  C   UNL     1       5.065   6.200  16.226  0.00  0.00    +0.000 A 
ATOM      5  O   UNL     1       5.402   7.236  15.661  0.00  0.00    +0.000 OA
ATOM      6  C   UNL     1       4.090   6.277  17.351  0.00  0.00    +0.000 A 
ATOM      7  C   UNL     1       3.382   7.454  17.603  0.00  0.00    +0.000 A 
ATOM      8  C   UNL     1       2.535   7.515  18.706  0.00  0.00    +0.000 A 
ATOM      9  C   UNL     1       2.424   6.396  19.522  0.00  0.00    +0.000 A 
ATOM     10  C   UNL     1       1.577   6.414  20.758  0.00  0.00    +0.000 C 
ATOM     11  N   UNL     1       3.102   5.247  19.286  0.00  0.00    +0.000 NA
ATOM     12  C   UNL     1       3.916   5.178  18.201  0.00  0.00    +0.000 A 
ENDROOT
BRANCH   3  13
ATOM     13  C   UNL     1       6.547   4.538  14.749  0.00  0.00    +0.000 C 
ATOM     14  O   UNL     1       7.643   5.159  14.682  0.00  0.00    +0.000 OA
ATOM     15  O   UNL     1       6.013   3.730  13.933  0.00  0.00    +0.000 OA
ENDBRANCH   3  13
BRANCH   1  17
ATOM     16  C   UNL     1       3.439   1.808  18.164  0.00  0.00    +0.000 C 
ATOM     17  C   UNL     1       4.309   2.857  18.828  0.00  0.00    +0.000 C 
ENDBRANCH   1  17
TORSDOF 2
ENDMDL
MODEL 2
REMARK VINA RESULT:      -6.8      0.655      1.017
REMARK  Name = 
REMARK  4 active torsions:
REMARK  status: ('A' for Active; 'I' for Inactive)
REMARK    1  A    between atoms: C_1  and  C_2
REMARK    2  A    between atoms: C_2  and  N_3
REMARK    3  A    between atoms: C_5  and  C_6
REMARK    4  A    between atoms: C_14  and  C_15
REMARK                            x       y       z     vdW  Elec       q    Type
REMARK                         _______ _______ _______ _____ _____    ______ ____
ROOT
ATOM      1  N   UNL     1       4.641   4.387  18.567  0.00  0.00    +0.000 N 
ATOM      2  C   UNL     1       5.407   4.085  17.462  0.00  0.00    +0.000 A 
ATOM      3  C   UNL     1       5.653   4.903  16.427  0.00  0.00    +0.000 A 
ATOM      4  C   UNL     1       5.023   6.238  16.439  0.00  0.00    +0.000 A 
ATOM      5  O   UNL     1       5.325   7.154  15.681  0.00  0.00    +0.000 OA
ATOM      6  C   UNL     1       4.025   6.494  17.518  0.00  0.00    +0.000 A 
ATOM      7  C   UNL     1       3.262   7.663  17.520  0.00  0.00    +0.000 A 
ATOM      8  C   UNL     1       2.394   7.905  18.581  0.00  0.00    +0.000 A 
ATOM      9  C   UNL     1       2.316   6.969  19.605  0.00  0.00    +0.000 A 
ATOM     10  C   UNL     1       1.447   7.196  20.804  0.00  0.00    +0.000 C 
ATOM     11  N   UNL     1       3.049   5.830  19.612  0.00  0.00    +0.000 NA
ATOM     12  C   UNL     1       3.884   5.582  18.570  0.00  0.00    +0.000 A 
ENDROOT
BRANCH   3  13
ATOM     13  C   UNL     1       6.604   4.384  15.342  0.00  0.00    +0.000 C 
ATOM     14  O   UNL     1       6.098   3.682  14.425  0.00  0.00    +0.000 OA
ATOM     15  O   UNL     1       7.815   4.667  15.582  0.00  0.00    +0.000 OA
ENDBRANCH   3  13
BRANCH   1  17
ATOM     16  C   UNL     1       3.799   2.136  19.169  0.00  0.00    +0.000 C 
ATOM     17  C   UNL     1       4.368   3.455  19.656  0.00  0.00    +0.000 C 
ENDBRANCH   1  17
TORSDOF 2
ENDMDL
MODEL 3
REMARK VINA RESULT:      -6.7      1.601      3.603
REMARK  Name = 
REMARK  4 active torsions:
REMARK  status: ('A' for Active; 'I' for Inactive)
REMARK    1  A    between atoms: C_1  and  C_2
REMARK    2  A    between atoms: C_2  and  N_3
REMARK    3  A    between atoms: C_5  and  C_6
REMARK    4  A    between atoms: C_14  and  C_15
REMARK                            x       y       z     vdW  Elec       q    Type
REMARK                         _______ _______ _______ _____ _____    ______ ____
ROOT
ATOM      1  N   UNL     1       3.588   6.175  17.935  0.00  0.00    +0.000 N 
ATOM      2  C   UNL     1       4.827   6.536  17.453  0.00  0.00    +0.000 A 
ATOM      3  C   UNL     1       5.698   5.725  16.832  0.00  0.00    +0.000 A 
ATOM      4  C   UNL     1       5.326   4.305  16.676  0.00  0.00    +0.000 A 
ATOM      5  O   UNL     1       5.917   3.510  15.953  0.00  0.00    +0.000 OA
ATOM      6  C   UNL     1       4.090   3.859  17.381  0.00  0.00    +0.000 A 
ATOM      7  C   UNL     1       3.743   2.507  17.426  0.00  0.00    +0.000 A 
ATOM      8  C   UNL     1       2.545   2.133  18.027  0.00  0.00    +0.000 A 
ATOM      9  C   UNL     1       1.732   3.123  18.565  0.00  0.00    +0.000 A 
ATOM     10  C   UNL     1       0.403   2.795  19.173  0.00  0.00    +0.000 C 
ATOM     11  N   UNL     1       2.060   4.437  18.531  0.00  0.00    +0.000 NA
ATOM     12  C   UNL     1       3.237   4.805  17.961  0.00  0.00    +0.000 A 
ENDROOT
BRANCH   3  13
ATOM     13  C   UNL     1       6.988   6.365  16.304  0.00  0.00    +0.000 C 
ATOM     14  O   UNL     1       7.577   5.771  15.360  0.00  0.00    +0.000 OA
ATOM     15  O   UNL     1       7.337   7.380  16.977  0.00  0.00    +0.000 OA
ENDBRANCH   3  13
BRANCH   1  17
ATOM     16  C   UNL     1       2.351   8.318  17.830  0.00  0.00    +0.000 C 
ATOM     17  C   UNL     1       2.685   7.079  18.637  0.00  0.00    +0.000 C 
ENDBRANCH   1  17
TORSDOF 2
ENDMDL
MODEL 4
REMARK VINA RESULT:      -6.6      2.119      3.735
REMARK  Name = 
REMARK  4 active torsions:
REMARK  status: ('A' for Active; 'I' for Inactive)
REMARK    1  A    between atoms: C_1  and  C_2
REMARK    2  A    between atoms: C_2  and  N_3
REMARK    3  A    between atoms: C_5  and  C_6
REMARK    4  A    between atoms: C_14  and  C_15
REMARK                            x       y       z     vdW  Elec       q    Type
REMARK                         _______ _______ _______ _____ _____    ______ ____
ROOT
ATOM      1  N   UNL     1       3.540   6.395  18.000  0.00  0.00    +0.000 N 
ATOM      2  C   UNL     1       4.762   6.898  17.607  0.00  0.00    +0.000 A 
ATOM      3  C   UNL     1       5.939   6.260  17.688  0.00  0.00    +0.000 A 
ATOM      4  C   UNL     1       5.952   4.910  18.284  0.00  0.00    +0.000 A 
ATOM      5  O   UNL     1       6.902   4.136  18.228  0.00  0.00    +0.000 OA
ATOM      6  C   UNL     1       4.679   4.445  18.906  0.00  0.00    +0.000 A 
ATOM      7  C   UNL     1       4.633   3.253  19.633  0.00  0.00    +0.000 A 
ATOM      8  C   UNL     1       3.414   2.811  20.137  0.00  0.00    +0.000 A 
ATOM      9  C   UNL     1       2.278   3.575  19.899  0.00  0.00    +0.000 A 
ATOM     10  C   UNL     1       0.926   3.127  20.362  0.00  0.00    +0.000 C 
ATOM     11  N   UNL     1       2.310   4.735  19.199  0.00  0.00    +0.000 NA
ATOM     12  C   UNL     1       3.502   5.178  18.720  0.00  0.00    +0.000 A 
ENDROOT
BRANCH   3  13
ATOM     13  C   UNL     1       7.162   6.983  17.112  0.00  0.00    +0.000 C 
ATOM     14  O   UNL     1       7.491   8.074  17.654  0.00  0.00    +0.000 OA
ATOM     15  O   UNL     1       7.626   6.409  16.081  0.00  0.00    +0.000 OA
ENDBRANCH   3  13
BRANCH   1  17
ATOM     16  C   UNL     1       2.495   8.634  17.821  0.00  0.00    +0.000 C 
ATOM     17  C   UNL     1       2.286   7.136  17.929  0.00  0.00    +0.000 C 
ENDBRANCH   1  17
TORSDOF 2
ENDMDL
MODEL 5
REMARK VINA RESULT:      -6.4      1.564      3.539
REMARK  Name = 
REMARK  4 active torsions:
REMARK  status: ('A' for Active; 'I' for Inactive)
REMARK    1  A    between atoms: C_1  and  C_2
REMARK    2  A    between atoms: C_2  and  N_3
REMARK    3  A    between atoms: C_5  and  C_6
REMARK    4  A    between atoms: C_14  and  C_15
REMARK                            x       y       z     vdW  Elec       q    Type
REMARK                         _______ _______ _______ _____ _____    ______ ____
ROOT
ATOM      1  N   UNL     1       3.223   6.132  18.442  0.00  0.00    +0.000 N 
ATOM      2  C   UNL     1       4.164   6.474  17.495  0.00  0.00    +0.000 A 
ATOM      3  C   UNL     1       4.918   5.618  16.788  0.00  0.00    +0.000 A 
ATOM      4  C   UNL     1       4.765   4.176  17.065  0.00  0.00    +0.000 A 
ATOM      5  O   UNL     1       5.223   3.283  16.359  0.00  0.00    +0.000 OA
ATOM      6  C   UNL     1       3.912   3.808  18.232  0.00  0.00    +0.000 A 
ATOM      7  C   UNL     1       3.835   2.484  18.669  0.00  0.00    +0.000 A 
ATOM      8  C   UNL     1       2.973   2.163  19.713  0.00  0.00    +0.000 A 
ATOM      9  C   UNL     1       2.215   3.177  20.287  0.00  0.00    +0.000 A 
ATOM     10  C   UNL     1       1.225   2.890  21.374  0.00  0.00    +0.000 C 
ATOM     11  N   UNL     1       2.285   4.465  19.875  0.00  0.00    +0.000 NA
ATOM     12  C   UNL     1       3.139   4.786  18.867  0.00  0.00    +0.000 A 
ENDROOT
BRANCH   3  13
ATOM     13  C   UNL     1       5.843   6.222  15.726  0.00  0.00    +0.000 C 
ATOM     14  O   UNL     1       7.074   5.971  15.829  0.00  0.00    +0.000 OA
ATOM     15  O   UNL     1       5.228   6.988  14.925  0.00  0.00    +0.000 OA
ENDBRANCH   3  13
BRANCH   1  17
ATOM     16  C   UNL     1       2.129   8.355  18.433  0.00  0.00    +0.000 C 
ATOM     17  C   UNL     1       2.449   7.096  19.216  0.00  0.00    +0.000 C 
ENDBRANCH   1  17
TORSDOF 2
ENDMDL
MODEL 6
REMARK VINA RESULT:      -6.4      3.067      4.174
REMARK  Name = 
REMARK  4 active torsions:
REMARK  status: ('A' for Active; 'I' for Inactive)
REMARK    1  A    between atoms: C_1  and  C_2
REMARK    2  A    between atoms: C_2  and  N_3
REMARK    3  A    between atoms: C_5  and  C_6
REMARK    4  A    between atoms: C_14  and  C_15
REMARK                            x       y       z     vdW  Elec       q    Type
REMARK                         _______ _______ _______ _____ _____    ______ ____
ROOT
ATOM      1  N   UNL     1       4.186   5.204  17.602  0.00  0.00    +0.000 N 
ATOM      2  C   UNL     1       4.480   3.976  18.154  0.00  0.00    +0.000 A 
ATOM      3  C   UNL     1       3.921   3.453  19.256  0.00  0.00    +0.000 A 
ATOM      4  C   UNL     1       2.925   4.270  19.977  0.00  0.00    +0.000 A 
ATOM      5  O   UNL     1       2.188   3.844  20.860  0.00  0.00    +0.000 OA
ATOM      6  C   UNL     1       2.759   5.679  19.516  0.00  0.00    +0.000 A 
ATOM      7  C   UNL     1       1.962   6.574  20.231  0.00  0.00    +0.000 A 
ATOM      8  C   UNL     1       1.769   7.859  19.733  0.00  0.00    +0.000 A 
ATOM      9  C   UNL     1       2.380   8.208  18.534  0.00  0.00    +0.000 A 
ATOM     10  C   UNL     1       2.165   9.554  17.912  0.00  0.00    +0.000 C 
ATOM     11  N   UNL     1       3.159   7.349  17.833  0.00  0.00    +0.000 NA
ATOM     12  C   UNL     1       3.364   6.099  18.325  0.00  0.00    +0.000 A 
ENDROOT
BRANCH   3  13
ATOM     13  C   UNL     1       4.342   2.030  19.640  0.00  0.00    +0.000 C 
ATOM     14  O   UNL     1       5.116   1.909  20.629  0.00  0.00    +0.000 OA
ATOM     15  O   UNL     1       3.914   1.159  18.825  0.00  0.00    +0.000 OA
ENDBRANCH   3  13
BRANCH   1  17
ATOM     16  C   UNL     1       5.403   4.678  15.510  0.00  0.00    +0.000 C 
ATOM     17  C   UNL     1       4.844   5.753  16.422  0.00  0.00    +0.000 C 
ENDBRANCH   1  17
TORSDOF 2
ENDMDL
MODEL 7
REMARK VINA RESULT:      -6.4      3.387      5.294
REMARK  Name = 
REMARK  4 active torsions:
REMARK  status: ('A' for Active; 'I' for Inactive)
REMARK    1  A    between atoms: C_1  and  C_2
REMARK    2  A    between atoms: C_2  and  N_3
REMARK    3  A    between atoms: C_5  and  C_6
REMARK    4  A    between atoms: C_14  and  C_15
REMARK                            x       y       z     vdW  Elec       q    Type
REMARK                         _______ _______ _______ _____ _____    ______ ____
ROOT
ATOM      1  N   UNL     1       3.207   6.536  18.101  0.00  0.00    +0.000 N 
ATOM      2  C   UNL     1       2.259   5.571  18.366  0.00  0.00    +0.000 A 
ATOM      3  C   UNL     1       2.504   4.319  18.779  0.00  0.00    +0.000 A 
ATOM      4  C   UNL     1       3.914   3.908  18.933  0.00  0.00    +0.000 A 
ATOM      5  O   UNL     1       4.279   2.882  19.498  0.00  0.00    +0.000 OA
ATOM      6  C   UNL     1       4.945   4.868  18.445  0.00  0.00    +0.000 A 
ATOM      7  C   UNL     1       6.293   4.506  18.400  0.00  0.00    +0.000 A 
ATOM      8  C   UNL     1       7.237   5.451  18.010  0.00  0.00    +0.000 A 
ATOM      9  C   UNL     1       6.803   6.728  17.677  0.00  0.00    +0.000 A 
ATOM     10  C   UNL     1       7.773   7.809  17.306  0.00  0.00    +0.000 C 
ATOM     11  N   UNL     1       5.498   7.090  17.712  0.00  0.00    +0.000 NA
ATOM     12  C   UNL     1       4.572   6.165  18.075  0.00  0.00    +0.000 A 
ENDROOT
BRANCH   3  13
ATOM     13  C   UNL     1       1.288   3.440  19.093  0.00  0.00    +0.000 C 
ATOM     14  O   UNL     1       0.866   3.449  20.281  0.00  0.00    +0.000 OA
ATOM     15  O   UNL     1       0.928   2.737  18.102  0.00  0.00    +0.000 OA
ENDBRANCH   3  13
BRANCH   1  17
ATOM     16  C   UNL     1       1.866   8.586  18.472  0.00  0.00    +0.000 C 
ATOM     17  C   UNL     1       2.900   7.878  17.618  0.00  0.00    +0.000 C 
ENDBRANCH   1  17
TORSDOF 2
ENDMDL
MODEL 8
REMARK VINA RESULT:      -6.3      2.904      5.673
REMARK  Name = 
REMARK  4 active torsions:
REMARK  status: ('A' for Active; 'I' for Inactive)
REMARK    1  A    between atoms: C_1  and  C_2
REMARK    2  A    between atoms: C_2  and  N_3
REMARK    3  A    between atoms: C_5  and  C_6
REMARK    4  A    between atoms: C_14  and  C_15
REMARK                            x       y       z     vdW  Elec       q    Type
REMARK                         _______ _______ _______ _____ _____    ______ ____
ROOT
ATOM      1  N   UNL     1       6.342   6.168  17.372  0.00  0.00    +0.000 N 
ATOM      2  C   UNL     1       5.372   5.968  18.331  0.00  0.00    +0.000 A 
ATOM      3  C   UNL     1       4.449   4.995  18.327  0.00  0.00    +0.000 A 
ATOM      4  C   UNL     1       4.430   4.069  17.178  0.00  0.00    +0.000 A 
ATOM      5  O   UNL     1       3.793   3.021  17.144  0.00  0.00    +0.000 OA
ATOM      6  C   UNL     1       5.328   4.404  16.036  0.00  0.00    +0.000 A 
ATOM      7  C   UNL     1       5.267   3.682  14.843  0.00  0.00    +0.000 A 
ATOM      8  C   UNL     1       6.170   3.973  13.825  0.00  0.00    +0.000 A 
ATOM      9  C   UNL     1       7.106   4.978  14.033  0.00  0.00    +0.000 A 
ATOM     10  C   UNL     1       8.144   5.301  13.002  0.00  0.00    +0.000 C 
ATOM     11  N   UNL     1       7.173   5.689  15.184  0.00  0.00    +0.000 NA
ATOM     12  C   UNL     1       6.282   5.420  16.173  0.00  0.00    +0.000 A 
ENDROOT
BRANCH   3  13
ATOM     13  C   UNL     1       3.519   4.914  19.543  0.00  0.00    +0.000 C 
ATOM     14  O   UNL     1       3.399   3.788  20.098  0.00  0.00    +0.000 OA
ATOM     15  O   UNL     1       2.914   6.005  19.766  0.00  0.00    +0.000 OA
ENDBRANCH   3  13
BRANCH   1  17
ATOM     16  C   UNL     1       8.205   7.225  18.616  0.00  0.00    +0.000 C 
ATOM     17  C   UNL     1       7.307   7.262  17.395  0.00  0.00    +0.000 C 
ENDBRANCH   1  17
TORSDOF 2
ENDMDL
MODEL 9
REMARK VINA RESULT:      -6.1      1.874      2.674
REMARK  Name = 
REMARK  4 active torsions:
REMARK  status: ('A' for Active; 'I' for Inactive)
REMARK    1  A    between atoms: C_1  and  C_2
REMARK    2  A    between atoms: C_2  and  N_3
REMARK    3  A    between atoms: C_5  and  C_6
REMARK    4  A    between atoms: C_14  and  C_15
REMARK                            x       y       z     vdW  Elec       q    Type
REMARK                         _______ _______ _______ _____ _____    ______ ____
ROOT
ATOM      1  N   UNL     1       2.906   5.460  19.867  0.00  0.00    +0.000 N 
ATOM      2  C   UNL     1       3.696   4.700  19.032  0.00  0.00    +0.000 A 
ATOM      3  C   UNL     1       4.274   5.118  17.896  0.00  0.00    +0.000 A 
ATOM      4  C   UNL     1       4.018   6.507  17.465  0.00  0.00    +0.000 A 
ATOM      5  O   UNL     1       4.641   7.083  16.578  0.00  0.00    +0.000 OA
ATOM      6  C   UNL     1       2.997   7.268  18.240  0.00  0.00    +0.000 A 
ATOM      7  C   UNL     1       2.571   8.528  17.815  0.00  0.00    +0.000 A 
ATOM      8  C   UNL     1       1.673   9.243  18.601  0.00  0.00    +0.000 A 
ATOM      9  C   UNL     1       1.228   8.674  19.788  0.00  0.00    +0.000 A 
ATOM     10  C   UNL     1       0.307   9.414  20.710  0.00  0.00    +0.000 C 
ATOM     11  N   UNL     1       1.630   7.451  20.209  0.00  0.00    +0.000 NA
ATOM     12  C   UNL     1       2.494   6.743  19.436  0.00  0.00    +0.000 A 
ENDROOT
BRANCH   3  13
ATOM     13  C   UNL     1       5.182   4.120  17.170  0.00  0.00    +0.000 C 
ATOM     14  O   UNL     1       6.419   4.366  17.170  0.00  0.00    +0.000 OA
ATOM     15  O   UNL     1       4.528   3.212  16.575  0.00  0.00    +0.000 OA
ENDBRANCH   3  13
BRANCH   1  17
ATOM     16  C   UNL     1       1.343   3.784  20.807  0.00  0.00    +0.000 C 
ATOM     17  C   UNL     1       2.266   4.956  21.077  0.00  0.00    +0.000 C 
ENDBRANCH   1  17
TORSDOF 2
ENDMDL
