MODEL 1
REMARK VINA RESULT:      -6.9      0.000      0.000
REMARK  Name = 
REMARK  2 active torsions:
REMARK  status: ('A' for Active; 'I' for Inactive)
REMARK    1  A    between atoms: O_1  and  C_2
REMARK    2  A    between atoms: C_14  and  C_15
REMARK                            x       y       z     vdW  Elec       q    Type
REMARK                         _______ _______ _______ _____ _____    ______ ____
ROOT
ATOM      1  C   UNL     1       6.893   4.877  14.136  0.00  0.00    +0.000 A 
ATOM      2  C   UNL     1       5.580   4.426  14.198  0.00  0.00    +0.000 A 
ATOM      3  C   UNL     1       5.048   4.028  15.427  0.00  0.00    +0.000 A 
ATOM      4  C   UNL     1       5.824   4.094  16.592  0.00  0.00    +0.000 A 
ATOM      5  C   UNL     1       7.121   4.614  16.518  0.00  0.00    +0.000 A 
ATOM      6  C   UNL     1       7.677   4.968  15.284  0.00  0.00    +0.000 A 
ATOM      7  O   UNL     1       7.894   4.727  17.642  0.00  0.00    +0.000 OA
ATOM      8  C   UNL     1       7.372   5.733  18.534  0.00  0.00    +0.000 C 
ATOM      9  C   UNL     1       6.282   5.221  19.494  0.00  0.00    +0.000 C 
ATOM     10  N   UNL     1       5.079   4.713  18.827  0.00  0.00    +0.000 N 
ATOM     11  C   UNL     1       3.949   5.472  18.721  0.00  0.00    +0.000 A 
ATOM     12  N   UNL     1       3.776   6.715  19.135  0.00  0.00    +0.000 NA
ATOM     13  C   UNL     1       2.488   7.147  18.774  0.00  0.00    +0.000 A 
ATOM     14  N   UNL     1       1.652   6.296  18.183  0.00  0.00    +0.000 NA
ATOM     15  S   UNL     1       2.466   4.878  18.007  0.00  0.00    +0.000 S 
ATOM     16  C   UNL     1       5.286   3.596  17.907  0.00  0.00    +0.000 C 
ENDROOT
BRANCH  13  17
ATOM     17  C   UNL     1       2.041   8.552  18.991  0.00  0.00    +0.000 C 
ATOM     18  C   UNL     1       1.202   9.126  17.852  0.00  0.00    +0.000 C 
ATOM     19  C   UNL     1       0.514  10.336  18.473  0.00  0.00    +0.000 C 
ATOM     20  C   UNL     1       0.363  10.020  19.959  0.00  0.00    +0.000 C 
ATOM     21  C   UNL     1       1.143   8.732  20.214  0.00  0.00    +0.000 C 
ENDBRANCH  13  17
BRANCH   1  22
ATOM     22  O   UNL     1       7.450   5.248  12.948  0.00  0.00    +0.000 OA
ATOM     23  H   UNL     1       6.758   5.220  12.257  0.00  0.00    +0.000 HD
ENDBRANCH   1  22
TORSDOF 2
ENDMDL
MODEL 2
REMARK VINA RESULT:      -6.6      3.172      4.771
REMARK  Name = 
REMARK  2 active torsions:
REMARK  status: ('A' for Active; 'I' for Inactive)
REMARK    1  A    between atoms: O_1  and  C_2
REMARK    2  A    between atoms: C_14  and  C_15
REMARK                            x       y       z     vdW  Elec       q    Type
REMARK                         _______ _______ _______ _____ _____    ______ ____
ROOT
ATOM      1  C   UNL     1       0.940   2.544  18.696  0.00  0.00    +0.000 A 
ATOM      2  C   UNL     1       0.607   3.245  19.849  0.00  0.00    +0.000 A 
ATOM      3  C   UNL     1       1.419   4.299  20.272  0.00  0.00    +0.000 A 
ATOM      4  C   UNL     1       2.555   4.660  19.533  0.00  0.00    +0.000 A 
ATOM      5  C   UNL     1       2.835   3.985  18.340  0.00  0.00    +0.000 A 
ATOM      6  C   UNL     1       2.054   2.897  17.937  0.00  0.00    +0.000 A 
ATOM      7  O   UNL     1       3.915   4.335  17.575  0.00  0.00    +0.000 OA
ATOM      8  C   UNL     1       3.732   5.637  16.981  0.00  0.00    +0.000 C 
ATOM      9  C   UNL     1       4.158   6.809  17.885  0.00  0.00    +0.000 C 
ATOM     10  N   UNL     1       3.405   6.908  19.139  0.00  0.00    +0.000 N 
ATOM     11  C   UNL     1       2.381   7.800  19.287  0.00  0.00    +0.000 A 
ATOM     12  N   UNL     1       1.904   8.631  18.378  0.00  0.00    +0.000 NA
ATOM     13  C   UNL     1       0.809   9.327  18.917  0.00  0.00    +0.000 A 
ATOM     14  N   UNL     1       0.470   9.133  20.189  0.00  0.00    +0.000 NA
ATOM     15  S   UNL     1       1.510   8.009  20.790  0.00  0.00    +0.000 S 
ATOM     16  C   UNL     1       3.480   5.744  20.020  0.00  0.00    +0.000 C 
ENDROOT
BRANCH  13  17
ATOM     17  C   UNL     1      -0.023  10.247  18.089  0.00  0.00    +0.000 C 
ATOM     18  C   UNL     1      -1.281   9.604  17.511  0.00  0.00    +0.000 C 
ATOM     19  C   UNL     1      -2.153  10.791  17.116  0.00  0.00    +0.000 C 
ATOM     20  C   UNL     1      -1.781  11.924  18.069  0.00  0.00    +0.000 C 
ATOM     21  C   UNL     1      -0.565  11.449  18.861  0.00  0.00    +0.000 C 
ENDBRANCH  13  17
BRANCH   1  22
ATOM     22  O   UNL     1       0.181   1.493  18.272  0.00  0.00    +0.000 OA
ATOM     23  H   UNL     1      -0.548   1.838  17.719  0.00  0.00    +0.000 HD
ENDBRANCH   1  22
TORSDOF 2
ENDMDL
MODEL 3
REMARK VINA RESULT:      -6.6      2.724      3.751
REMARK  Name = 
REMARK  2 active torsions:
REMARK  status: ('A' for Active; 'I' for Inactive)
REMARK    1  A    between atoms: O_1  and  C_2
REMARK    2  A    between atoms: C_14  and  C_15
REMARK                            x       y       z     vdW  Elec       q    Type
REMARK                         _______ _______ _______ _____ _____    ______ ____
ROOT
ATOM      1  C   UNL     1       7.288   5.907  18.917  0.00  0.00    +0.000 A 
ATOM      2  C   UNL     1       6.780   6.879  18.064  0.00  0.00    +0.000 A 
ATOM      3  C   UNL     1       5.454   6.793  17.635  0.00  0.00    +0.000 A 
ATOM      4  C   UNL     1       4.634   5.742  18.071  0.00  0.00    +0.000 A 
ATOM      5  C   UNL     1       5.145   4.813  18.982  0.00  0.00    +0.000 A 
ATOM      6  C   UNL     1       6.486   4.865  19.377  0.00  0.00    +0.000 A 
ATOM      7  O   UNL     1       4.362   3.796  19.457  0.00  0.00    +0.000 OA
ATOM      8  C   UNL     1       3.317   4.300  20.316  0.00  0.00    +0.000 C 
ATOM      9  C   UNL     1       2.050   4.752  19.569  0.00  0.00    +0.000 C 
ATOM     10  N   UNL     1       2.265   5.854  18.626  0.00  0.00    +0.000 N 
ATOM     11  C   UNL     1       1.948   7.143  18.950  0.00  0.00    +0.000 A 
ATOM     12  N   UNL     1       1.468   7.584  20.100  0.00  0.00    +0.000 NA
ATOM     13  C   UNL     1       1.343   8.983  20.040  0.00  0.00    +0.000 A 
ATOM     14  N   UNL     1       1.624   9.620  18.906  0.00  0.00    +0.000 NA
ATOM     15  S   UNL     1       2.111   8.476  17.829  0.00  0.00    +0.000 S 
ATOM     16  C   UNL     1       3.227   5.597  17.556  0.00  0.00    +0.000 C 
ENDROOT
BRANCH  13  17
ATOM     17  C   UNL     1       0.947   9.788  21.231  0.00  0.00    +0.000 C 
ATOM     18  C   UNL     1       0.030  10.967  20.915  0.00  0.00    +0.000 C 
ATOM     19  C   UNL     1      -0.575  11.336  22.264  0.00  0.00    +0.000 C 
ATOM     20  C   UNL     1      -0.609  10.045  23.079  0.00  0.00    +0.000 C 
ATOM     21  C   UNL     1       0.159   8.999  22.275  0.00  0.00    +0.000 C 
ENDBRANCH  13  17
BRANCH   1  22
ATOM     22  O   UNL     1       8.586   5.949  19.332  0.00  0.00    +0.000 OA
ATOM     23  H   UNL     1       8.621   6.391  20.204  0.00  0.00    +0.000 HD
ENDBRANCH   1  22
TORSDOF 2
ENDMDL
MODEL 4
REMARK VINA RESULT:      -6.6      3.269      6.988
REMARK  Name = 
REMARK  2 active torsions:
REMARK  status: ('A' for Active; 'I' for Inactive)
REMARK    1  A    between atoms: O_1  and  C_2
REMARK    2  A    between atoms: C_14  and  C_15
REMARK                            x       y       z     vdW  Elec       q    Type
REMARK                         _______ _______ _______ _____ _____    ______ ____
ROOT
ATOM      1  C   UNL     1       2.186   7.969  17.870  0.00  0.00    +0.000 A 
ATOM      2  C   UNL     1       3.509   8.299  17.598  0.00  0.00    +0.000 A 
ATOM      3  C   UNL     1       4.505   7.333  17.760  0.00  0.00    +0.000 A 
ATOM      4  C   UNL     1       4.176   6.036  18.179  0.00  0.00    +0.000 A 
ATOM      5  C   UNL     1       2.832   5.707  18.382  0.00  0.00    +0.000 A 
ATOM      6  C   UNL     1       1.834   6.682  18.270  0.00  0.00    +0.000 A 
ATOM      7  O   UNL     1       2.471   4.441  18.756  0.00  0.00    +0.000 OA
ATOM      8  C   UNL     1       2.705   3.496  17.691  0.00  0.00    +0.000 C 
ATOM      9  C   UNL     1       4.138   2.935  17.650  0.00  0.00    +0.000 C 
ATOM     10  N   UNL     1       5.177   3.946  17.431  0.00  0.00    +0.000 N 
ATOM     11  C   UNL     1       5.736   4.140  16.200  0.00  0.00    +0.000 A 
ATOM     12  N   UNL     1       5.426   3.522  15.073  0.00  0.00    +0.000 NA
ATOM     13  C   UNL     1       6.191   4.063  14.025  0.00  0.00    +0.000 A 
ATOM     14  N   UNL     1       7.105   4.992  14.292  0.00  0.00    +0.000 NA
ATOM     15  S   UNL     1       7.034   5.277  15.910  0.00  0.00    +0.000 S 
ATOM     16  C   UNL     1       5.249   5.011  18.430  0.00  0.00    +0.000 C 
ENDROOT
BRANCH  13  17
ATOM     17  C   UNL     1       5.975   3.661  12.606  0.00  0.00    +0.000 C 
ATOM     18  C   UNL     1       6.447   2.247  12.276  0.00  0.00    +0.000 C 
ATOM     19  C   UNL     1       5.739   1.918  10.966  0.00  0.00    +0.000 C 
ATOM     20  C   UNL     1       4.439   2.718  10.976  0.00  0.00    +0.000 C 
ATOM     21  C   UNL     1       4.507   3.649  12.185  0.00  0.00    +0.000 C 
ENDBRANCH  13  17
BRANCH   1  22
ATOM     22  O   UNL     1       1.195   8.897  17.746  0.00  0.00    +0.000 OA
ATOM     23  H   UNL     1       0.933   9.195  18.641  0.00  0.00    +0.000 HD
ENDBRANCH   1  22
TORSDOF 2
ENDMDL
MODEL 5
REMARK VINA RESULT:      -6.5      5.293      8.292
REMARK  Name = 
REMARK  2 active torsions:
REMARK  status: ('A' for Active; 'I' for Inactive)
REMARK    1  A    between atoms: O_1  and  C_2
REMARK    2  A    between atoms: C_14  and  C_15
REMARK                            x       y       z     vdW  Elec       q    Type
REMARK                         _______ _______ _______ _____ _____    ______ ____
ROOT
ATOM      1  C   UNL     1      -3.202  10.388  17.898  0.00  0.00    +0.000 A 
ATOM      2  C   UNL     1      -2.243   9.908  17.015  0.00  0.00    +0.000 A 
ATOM      3  C   UNL     1      -0.889  10.058  17.322  0.00  0.00    +0.000 A 
ATOM      4  C   UNL     1      -0.497  10.676  18.518  0.00  0.00    +0.000 A 
ATOM      5  C   UNL     1      -1.478  11.092  19.424  0.00  0.00    +0.000 A 
ATOM      6  C   UNL     1      -2.836  10.989  19.100  0.00  0.00    +0.000 A 
ATOM      7  O   UNL     1      -1.131  11.666  20.617  0.00  0.00    +0.000 OA
ATOM      8  C   UNL     1      -0.505  10.706  21.494  0.00  0.00    +0.000 C 
ATOM      9  C   UNL     1       1.012  10.550  21.277  0.00  0.00    +0.000 C 
ATOM     10  N   UNL     1       1.385  10.072  19.941  0.00  0.00    +0.000 N 
ATOM     11  C   UNL     1       1.708   8.765  19.716  0.00  0.00    +0.000 A 
ATOM     12  N   UNL     1       1.697   7.774  20.592  0.00  0.00    +0.000 NA
ATOM     13  C   UNL     1       2.031   6.577  19.937  0.00  0.00    +0.000 A 
ATOM     14  N   UNL     1       2.363   6.603  18.649  0.00  0.00    +0.000 NA
ATOM     15  S   UNL     1       2.237   8.168  18.159  0.00  0.00    +0.000 S 
ATOM     16  C   UNL     1       0.959  10.912  18.824  0.00  0.00    +0.000 C 
ENDROOT
BRANCH  13  17
ATOM     17  C   UNL     1       1.978   5.259  20.633  0.00  0.00    +0.000 C 
ATOM     18  C   UNL     1       0.757   4.413  20.283  0.00  0.00    +0.000 C 
ATOM     19  C   UNL     1       1.140   3.008  20.731  0.00  0.00    +0.000 C 
ATOM     20  C   UNL     1       2.660   2.927  20.613  0.00  0.00    +0.000 C 
ATOM     21  C   UNL     1       3.151   4.339  20.299  0.00  0.00    +0.000 C 
ENDBRANCH  13  17
BRANCH   1  22
ATOM     22  O   UNL     1      -4.532  10.280  17.614  0.00  0.00    +0.000 OA
ATOM     23  H   UNL     1      -5.035  10.798  18.274  0.00  0.00    +0.000 HD
ENDBRANCH   1  22
TORSDOF 2
ENDMDL
MODEL 6
REMARK VINA RESULT:      -6.2      9.184     12.684
REMARK  Name = 
REMARK  2 active torsions:
REMARK  status: ('A' for Active; 'I' for Inactive)
REMARK    1  A    between atoms: O_1  and  C_2
REMARK    2  A    between atoms: C_14  and  C_15
REMARK                            x       y       z     vdW  Elec       q    Type
REMARK                         _______ _______ _______ _____ _____    ______ ____
ROOT
ATOM      1  C   UNL     1      -7.725   8.461  21.684  0.00  0.00    +0.000 A 
ATOM      2  C   UNL     1      -7.347   8.230  20.367  0.00  0.00    +0.000 A 
ATOM      3  C   UNL     1      -7.186   9.311  19.497  0.00  0.00    +0.000 A 
ATOM      4  C   UNL     1      -7.389  10.622  19.951  0.00  0.00    +0.000 A 
ATOM      5  C   UNL     1      -7.703  10.837  21.296  0.00  0.00    +0.000 A 
ATOM      6  C   UNL     1      -7.915   9.757  22.160  0.00  0.00    +0.000 A 
ATOM      7  O   UNL     1      -7.873  12.106  21.781  0.00  0.00    +0.000 OA
ATOM      8  C   UNL     1      -6.625  12.830  21.793  0.00  0.00    +0.000 C 
ATOM      9  C   UNL     1      -6.286  13.524  20.462  0.00  0.00    +0.000 C 
ATOM     10  N   UNL     1      -6.128  12.610  19.326  0.00  0.00    +0.000 N 
ATOM     11  C   UNL     1      -4.893  12.228  18.885  0.00  0.00    +0.000 A 
ATOM     12  N   UNL     1      -3.720  12.562  19.396  0.00  0.00    +0.000 NA
ATOM     13  C   UNL     1      -2.703  11.904  18.684  0.00  0.00    +0.000 A 
ATOM     14  N   UNL     1      -3.017  11.156  17.629  0.00  0.00    +0.000 NA
ATOM     15  S   UNL     1      -4.655  11.206  17.485  0.00  0.00    +0.000 S 
ATOM     16  C   UNL     1      -7.293  11.789  19.004  0.00  0.00    +0.000 C 
ENDROOT
BRANCH  13  17
ATOM     17  C   UNL     1      -1.274  11.978  19.106  0.00  0.00    +0.000 C 
ATOM     18  C   UNL     1      -1.036  12.791  20.375  0.00  0.00    +0.000 C 
ATOM     19  C   UNL     1       0.351  12.359  20.835  0.00  0.00    +0.000 C 
ATOM     20  C   UNL     1       0.531  10.925  20.344  0.00  0.00    +0.000 C 
ATOM     21  C   UNL     1      -0.659  10.620  19.437  0.00  0.00    +0.000 C 
ENDBRANCH  13  17
BRANCH   1  22
ATOM     22  O   UNL     1      -7.916   7.425  22.550  0.00  0.00    +0.000 OA
ATOM     23  H   UNL     1      -7.525   7.664  23.414  0.00  0.00    +0.000 HD
ENDBRANCH   1  22
TORSDOF 2
ENDMDL
MODEL 7
REMARK VINA RESULT:      -6.2      3.493      6.631
REMARK  Name = 
REMARK  2 active torsions:
REMARK  status: ('A' for Active; 'I' for Inactive)
REMARK    1  A    between atoms: O_1  and  C_2
REMARK    2  A    between atoms: C_14  and  C_15
REMARK                            x       y       z     vdW  Elec       q    Type
REMARK                         _______ _______ _______ _____ _____    ______ ____
ROOT
ATOM      1  C   UNL     1       0.918   2.818  18.698  0.00  0.00    +0.000 A 
ATOM      2  C   UNL     1       0.892   4.035  18.028  0.00  0.00    +0.000 A 
ATOM      3  C   UNL     1       1.938   4.943  18.209  0.00  0.00    +0.000 A 
ATOM      4  C   UNL     1       3.016   4.624  19.048  0.00  0.00    +0.000 A 
ATOM      5  C   UNL     1       3.055   3.367  19.660  0.00  0.00    +0.000 A 
ATOM      6  C   UNL     1       1.987   2.474  19.523  0.00  0.00    +0.000 A 
ATOM      7  O   UNL     1       4.109   3.010  20.456  0.00  0.00    +0.000 OA
ATOM      8  C   UNL     1       5.316   2.846  19.681  0.00  0.00    +0.000 C 
ATOM      9  C   UNL     1       6.100   4.150  19.451  0.00  0.00    +0.000 C 
ATOM     10  N   UNL     1       5.363   5.176  18.705  0.00  0.00    +0.000 N 
ATOM     11  C   UNL     1       5.579   5.380  17.372  0.00  0.00    +0.000 A 
ATOM     12  N   UNL     1       6.397   4.710  16.581  0.00  0.00    +0.000 NA
ATOM     13  C   UNL     1       6.271   5.195  15.268  0.00  0.00    +0.000 A 
ATOM     14  N   UNL     1       5.470   6.231  15.026  0.00  0.00    +0.000 NA
ATOM     15  S   UNL     1       4.783   6.644  16.462  0.00  0.00    +0.000 S 
ATOM     16  C   UNL     1       4.111   5.625  19.310  0.00  0.00    +0.000 C 
ENDROOT
BRANCH  13  17
ATOM     17  C   UNL     1       6.973   4.552  14.121  0.00  0.00    +0.000 C 
ATOM     18  C   UNL     1       6.076   3.678  13.248  0.00  0.00    +0.000 C 
ATOM     19  C   UNL     1       6.866   3.515  11.954  0.00  0.00    +0.000 C 
ATOM     20  C   UNL     1       7.719   4.775  11.819  0.00  0.00    +0.000 C 
ATOM     21  C   UNL     1       7.569   5.548  13.127  0.00  0.00    +0.000 C 
ENDBRANCH  13  17
BRANCH   1  22
ATOM     22  O   UNL     1      -0.102   1.923  18.563  0.00  0.00    +0.000 OA
ATOM     23  H   UNL     1       0.275   1.020  18.548  0.00  0.00    +0.000 HD
ENDBRANCH   1  22
TORSDOF 2
ENDMDL
MODEL 8
REMARK VINA RESULT:      -6.2      7.657     10.107
REMARK  Name = 
REMARK  2 active torsions:
REMARK  status: ('A' for Active; 'I' for Inactive)
REMARK    1  A    between atoms: O_1  and  C_2
REMARK    2  A    between atoms: C_14  and  C_15
REMARK                            x       y       z     vdW  Elec       q    Type
REMARK                         _______ _______ _______ _____ _____    ______ ____
ROOT
ATOM      1  C   UNL     1       0.590   8.702  21.322  0.00  0.00    +0.000 A 
ATOM      2  C   UNL     1      -0.178   9.002  22.441  0.00  0.00    +0.000 A 
ATOM      3  C   UNL     1      -0.543  10.327  22.691  0.00  0.00    +0.000 A 
ATOM      4  C   UNL     1      -0.150  11.348  21.813  0.00  0.00    +0.000 A 
ATOM      5  C   UNL     1       0.565  11.016  20.658  0.00  0.00    +0.000 A 
ATOM      6  C   UNL     1       0.976   9.698  20.428  0.00  0.00    +0.000 A 
ATOM      7  O   UNL     1       0.933  11.983  19.762  0.00  0.00    +0.000 OA
ATOM      8  C   UNL     1      -0.218  12.528  19.083  0.00  0.00    +0.000 C 
ATOM      9  C   UNL     1      -0.909  13.677  19.839  0.00  0.00    +0.000 C 
ATOM     10  N   UNL     1      -1.446  13.301  21.151  0.00  0.00    +0.000 N 
ATOM     11  C   UNL     1      -2.773  13.031  21.328  0.00  0.00    +0.000 A 
ATOM     12  N   UNL     1      -3.719  13.024  20.405  0.00  0.00    +0.000 NA
ATOM     13  C   UNL     1      -4.934  12.633  20.993  0.00  0.00    +0.000 A 
ATOM     14  N   UNL     1      -4.988  12.415  22.305  0.00  0.00    +0.000 NA
ATOM     15  S   UNL     1      -3.470  12.658  22.889  0.00  0.00    +0.000 S 
ATOM     16  C   UNL     1      -0.472  12.788  22.113  0.00  0.00    +0.000 C 
ENDROOT
BRANCH  13  17
ATOM     17  C   UNL     1      -6.164  12.406  20.181  0.00  0.00    +0.000 C 
ATOM     18  C   UNL     1      -6.762  13.675  19.580  0.00  0.00    +0.000 C 
ATOM     19  C   UNL     1      -7.683  13.163  18.479  0.00  0.00    +0.000 C 
ATOM     20  C   UNL     1      -7.079  11.844  18.001  0.00  0.00    +0.000 C 
ATOM     21  C   UNL     1      -5.941  11.510  18.964  0.00  0.00    +0.000 C 
ENDBRANCH  13  17
BRANCH   1  22
ATOM     22  O   UNL     1       0.983   7.422  21.066  0.00  0.00    +0.000 OA
ATOM     23  H   UNL     1       1.030   6.934  21.913  0.00  0.00    +0.000 HD
ENDBRANCH   1  22
TORSDOF 2
ENDMDL
MODEL 9
REMARK VINA RESULT:      -6.2      3.569      6.132
REMARK  Name = 
REMARK  2 active torsions:
REMARK  status: ('A' for Active; 'I' for Inactive)
REMARK    1  A    between atoms: O_1  and  C_2
REMARK    2  A    between atoms: C_14  and  C_15
REMARK                            x       y       z     vdW  Elec       q    Type
REMARK                         _______ _______ _______ _____ _____    ______ ____
ROOT
ATOM      1  C   UNL     1       2.887   2.588  21.213  0.00  0.00    +0.000 A 
ATOM      2  C   UNL     1       3.376   2.183  19.977  0.00  0.00    +0.000 A 
ATOM      3  C   UNL     1       3.124   2.965  18.847  0.00  0.00    +0.000 A 
ATOM      4  C   UNL     1       2.396   4.158  18.958  0.00  0.00    +0.000 A 
ATOM      5  C   UNL     1       1.971   4.582  20.221  0.00  0.00    +0.000 A 
ATOM      6  C   UNL     1       2.176   3.779  21.349  0.00  0.00    +0.000 A 
ATOM      7  O   UNL     1       1.289   5.759  20.371  0.00  0.00    +0.000 OA
ATOM      8  C   UNL     1       2.142   6.892  20.104  0.00  0.00    +0.000 C 
ATOM      9  C   UNL     1       2.225   7.281  18.616  0.00  0.00    +0.000 C 
ATOM     10  N   UNL     1       2.779   6.237  17.749  0.00  0.00    +0.000 N 
ATOM     11  C   UNL     1       4.079   6.272  17.332  0.00  0.00    +0.000 A 
ATOM     12  N   UNL     1       5.000   7.165  17.652  0.00  0.00    +0.000 NA
ATOM     13  C   UNL     1       6.222   6.799  17.063  0.00  0.00    +0.000 A 
ATOM     14  N   UNL     1       6.274   5.736  16.264  0.00  0.00    +0.000 NA
ATOM     15  S   UNL     1       4.760   5.093  16.232  0.00  0.00    +0.000 S 
ATOM     16  C   UNL     1       2.053   4.969  17.736  0.00  0.00    +0.000 C 
ENDROOT
BRANCH  13  17
ATOM     17  C   UNL     1       7.484   7.542  17.345  0.00  0.00    +0.000 C 
ATOM     18  C   UNL     1       7.317   9.057  17.418  0.00  0.00    +0.000 C 
ATOM     19  C   UNL     1       8.576   9.533  18.133  0.00  0.00    +0.000 C 
ATOM     20  C   UNL     1       9.006   8.383  19.042  0.00  0.00    +0.000 C 
ATOM     21  C   UNL     1       8.117   7.192  18.690  0.00  0.00    +0.000 C 
ENDBRANCH  13  17
BRANCH   1  22
ATOM     22  O   UNL     1       3.094   1.834  22.329  0.00  0.00    +0.000 OA
ATOM     23  H   UNL     1       2.714   0.944  22.179  0.00  0.00    +0.000 HD
ENDBRANCH   1  22
TORSDOF 2
ENDMDL
