MODEL 1
REMARK VINA RESULT:      -7.3      0.000      0.000
REMARK  Name = 
REMARK  3 active torsions:
REMARK  status: ('A' for Active; 'I' for Inactive)
REMARK    1  A    between atoms: C_1  and  C_2
REMARK    2  A    between atoms: C_4  and  C_5
REMARK    3  A    between atoms: C_10  and  C_11
REMARK                            x       y       z     vdW  Elec       q    Type
REMARK                         _______ _______ _______ _____ _____    ______ ____
ROOT
ATOM      1  C   UNL     1       3.126   5.741  19.337  0.00  0.00    +0.000 C 
ATOM      2  O   UNL     1       2.858   4.777  20.058  0.00  0.00    +0.000 OA
ATOM      3  N   UNL     1       4.084   5.658  18.340  0.00  0.00    +0.000 N 
ATOM      4  C   UNL     1       4.728   6.692  17.547  0.00  0.00    +0.000 C 
ATOM      5  C   UNL     1       4.958   5.970  16.229  0.00  0.00    +0.000 C 
ATOM      6  C   UNL     1       5.445   4.590  16.693  0.00  0.00    +0.000 C 
ATOM      7  C   UNL     1       4.704   4.370  18.023  0.00  0.00    +0.000 C 
ENDROOT
BRANCH   1  11
ATOM      8  C   UNL     1       1.769  10.250  17.651  0.00  0.00    +0.000 C 
ATOM      9  C   UNL     1       1.656   9.197  18.720  0.00  0.00    +0.000 A 
ATOM     10  C   UNL     1       2.327   7.968  18.544  0.00  0.00    +0.000 A 
ATOM     11  C   UNL     1       2.336   6.989  19.551  0.00  0.00    +0.000 A 
ATOM     12  C   UNL     1       1.718   7.280  20.765  0.00  0.00    +0.000 A 
ATOM     13  C   UNL     1       0.968   8.447  20.925  0.00  0.00    +0.000 A 
ATOM     14 CL   UNL     1       0.115   8.617  22.422  0.00  0.00    +0.000 Cl
ATOM     15  C   UNL     1       0.933   9.413  19.910  0.00  0.00    +0.000 A 
ATOM     16 BR   UNL     1      -0.049  11.033  20.151  0.00  0.00    +0.000 Br
ENDBRANCH   1  11
BRANCH   6  17
ATOM     17  C   UNL     1       6.958   4.585  16.824  0.00  0.00    +0.000 C 
ATOM     18  N   UNL     1       7.421   4.282  18.075  0.00  0.00    +0.000 N 
ATOM     19  O   UNL     1       7.741   4.815  15.916  0.00  0.00    +0.000 OA
ATOM     20  H   UNL     1       6.821   4.193  18.884  0.00  0.00    +0.000 HD
ATOM     21  H   UNL     1       8.423   4.276  18.215  0.00  0.00    +0.000 HD
ENDBRANCH   6  17
TORSDOF 2
ENDMDL
MODEL 2
REMARK VINA RESULT:      -7.2      1.322      2.058
REMARK  Name = 
REMARK  3 active torsions:
REMARK  status: ('A' for Active; 'I' for Inactive)
REMARK    1  A    between atoms: C_1  and  C_2
REMARK    2  A    between atoms: C_4  and  C_5
REMARK    3  A    between atoms: C_10  and  C_11
REMARK                            x       y       z     vdW  Elec       q    Type
REMARK                         _______ _______ _______ _____ _____    ______ ____
ROOT
ATOM      1  C   UNL     1       2.984   5.865  19.125  0.00  0.00    +0.000 C 
ATOM      2  O   UNL     1       2.577   4.866  19.723  0.00  0.00    +0.000 OA
ATOM      3  N   UNL     1       3.990   5.784  18.176  0.00  0.00    +0.000 N 
ATOM      4  C   UNL     1       4.781   6.819  17.533  0.00  0.00    +0.000 C 
ATOM      5  C   UNL     1       5.020   6.215  16.159  0.00  0.00    +0.000 C 
ATOM      6  C   UNL     1       5.339   4.752  16.497  0.00  0.00    +0.000 C 
ATOM      7  C   UNL     1       4.498   4.477  17.755  0.00  0.00    +0.000 C 
ENDROOT
BRANCH   1  11
ATOM      8  C   UNL     1      -0.028   8.479  22.144  0.00  0.00    +0.000 C 
ATOM      9  C   UNL     1       0.844   8.453  20.917  0.00  0.00    +0.000 A 
ATOM     10  C   UNL     1       1.560   7.275  20.612  0.00  0.00    +0.000 A 
ATOM     11  C   UNL     1       2.310   7.161  19.430  0.00  0.00    +0.000 A 
ATOM     12  C   UNL     1       2.285   8.218  18.523  0.00  0.00    +0.000 A 
ATOM     13  C   UNL     1       1.663   9.426  18.848  0.00  0.00    +0.000 A 
ATOM     14 CL   UNL     1       1.840  10.716  17.708  0.00  0.00    +0.000 Cl
ATOM     15  C   UNL     1       0.938   9.552  20.041  0.00  0.00    +0.000 A 
ATOM     16 BR   UNL     1       0.044  11.187  20.459  0.00  0.00    +0.000 Br
ENDBRANCH   1  11
BRANCH   6  17
ATOM     17  C   UNL     1       6.833   4.575  16.704  0.00  0.00    +0.000 C 
ATOM     18  N   UNL     1       7.193   4.221  17.975  0.00  0.00    +0.000 N 
ATOM     19  O   UNL     1       7.682   4.713  15.839  0.00  0.00    +0.000 OA
ATOM     20  H   UNL     1       6.547   4.202  18.752  0.00  0.00    +0.000 HD
ATOM     21  H   UNL     1       8.180   4.102  18.167  0.00  0.00    +0.000 HD
ENDBRANCH   6  17
TORSDOF 2
ENDMDL
MODEL 3
REMARK VINA RESULT:      -7.1      4.201      7.031
REMARK  Name = 
REMARK  3 active torsions:
REMARK  status: ('A' for Active; 'I' for Inactive)
REMARK    1  A    between atoms: C_1  and  C_2
REMARK    2  A    between atoms: C_4  and  C_5
REMARK    3  A    between atoms: C_10  and  C_11
REMARK                            x       y       z     vdW  Elec       q    Type
REMARK                         _______ _______ _______ _____ _____    ______ ____
ROOT
ATOM      1  C   UNL     1       1.839   8.839  18.360  0.00  0.00    +0.000 C 
ATOM      2  O   UNL     1       1.851   9.686  17.463  0.00  0.00    +0.000 OA
ATOM      3  N   UNL     1       1.159   9.050  19.549  0.00  0.00    +0.000 N 
ATOM      4  C   UNL     1       1.197   8.329  20.811  0.00  0.00    +0.000 C 
ATOM      5  C   UNL     1      -0.230   8.501  21.305  0.00  0.00    +0.000 C 
ATOM      6  C   UNL     1      -0.512   9.974  20.982  0.00  0.00    +0.000 C 
ATOM      7  C   UNL     1       0.315  10.234  19.711  0.00  0.00    +0.000 C 
ENDROOT
BRANCH   1  11
ATOM      8  C   UNL     1       5.950   6.517  16.708  0.00  0.00    +0.000 C 
ATOM      9  C   UNL     1       4.567   6.409  17.294  0.00  0.00    +0.000 A 
ATOM     10  C   UNL     1       3.874   7.590  17.632  0.00  0.00    +0.000 A 
ATOM     11  C   UNL     1       2.546   7.553  18.090  0.00  0.00    +0.000 A 
ATOM     12  C   UNL     1       1.897   6.321  18.145  0.00  0.00    +0.000 A 
ATOM     13  C   UNL     1       2.593   5.134  17.907  0.00  0.00    +0.000 A 
ATOM     14 CL   UNL     1       1.719   3.663  18.165  0.00  0.00    +0.000 Cl
ATOM     15  C   UNL     1       3.927   5.167  17.478  0.00  0.00    +0.000 A 
ATOM     16 BR   UNL     1       4.861   3.545  17.102  0.00  0.00    +0.000 Br
ENDBRANCH   1  11
BRANCH   6  17
ATOM     17  C   UNL     1      -0.124  10.853  22.159  0.00  0.00    +0.000 C 
ATOM     18  N   UNL     1       0.059  12.172  21.848  0.00  0.00    +0.000 N 
ATOM     19  O   UNL     1       0.014  10.465  23.308  0.00  0.00    +0.000 OA
ATOM     20  H   UNL     1       0.066  12.526  20.902  0.00  0.00    +0.000 HD
ATOM     21  H   UNL     1       0.329  12.797  22.598  0.00  0.00    +0.000 HD
ENDBRANCH   6  17
TORSDOF 2
ENDMDL
MODEL 4
REMARK VINA RESULT:      -7.1      4.131      6.935
REMARK  Name = 
REMARK  3 active torsions:
REMARK  status: ('A' for Active; 'I' for Inactive)
REMARK    1  A    between atoms: C_1  and  C_2
REMARK    2  A    between atoms: C_4  and  C_5
REMARK    3  A    between atoms: C_10  and  C_11
REMARK                            x       y       z     vdW  Elec       q    Type
REMARK                         _______ _______ _______ _____ _____    ______ ____
ROOT
ATOM      1  C   UNL     1       2.111   7.890  18.962  0.00  0.00    +0.000 C 
ATOM      2  O   UNL     1       2.323   8.343  17.834  0.00  0.00    +0.000 OA
ATOM      3  N   UNL     1       1.375   8.594  19.902  0.00  0.00    +0.000 N 
ATOM      4  C   UNL     1       1.201   8.385  21.329  0.00  0.00    +0.000 C 
ATOM      5  C   UNL     1      -0.220   8.881  21.541  0.00  0.00    +0.000 C 
ATOM      6  C   UNL     1      -0.251  10.156  20.687  0.00  0.00    +0.000 C 
ATOM      7  C   UNL     1       0.707   9.841  19.525  0.00  0.00    +0.000 C 
ENDROOT
BRANCH   1  11
ATOM      8  C   UNL     1       5.662   4.451  18.198  0.00  0.00    +0.000 C 
ATOM      9  C   UNL     1       4.385   4.839  18.895  0.00  0.00    +0.000 A 
ATOM     10  C   UNL     1       3.873   6.140  18.709  0.00  0.00    +0.000 A 
ATOM     11  C   UNL     1       2.637   6.524  19.255  0.00  0.00    +0.000 A 
ATOM     12  C   UNL     1       1.888   5.569  19.939  0.00  0.00    +0.000 A 
ATOM     13  C   UNL     1       2.418   4.307  20.216  0.00  0.00    +0.000 A 
ATOM     14 CL   UNL     1       1.456   3.267  21.211  0.00  0.00    +0.000 Cl
ATOM     15  C   UNL     1       3.664   3.931  19.696  0.00  0.00    +0.000 A 
ATOM     16 BR   UNL     1       4.364   2.187  20.031  0.00  0.00    +0.000 Br
ENDBRANCH   1  11
BRANCH   6  17
ATOM     17  C   UNL     1       0.166  11.356  21.520  0.00  0.00    +0.000 C 
ATOM     18  N   UNL     1      -0.692  11.668  22.538  0.00  0.00    +0.000 N 
ATOM     19  O   UNL     1       1.179  12.014  21.344  0.00  0.00    +0.000 OA
ATOM     20  H   UNL     1      -1.594  11.230  22.660  0.00  0.00    +0.000 HD
ATOM     21  H   UNL     1      -0.463  12.467  23.116  0.00  0.00    +0.000 HD
ENDBRANCH   6  17
TORSDOF 2
ENDMDL
MODEL 5
REMARK VINA RESULT:      -7.1      4.330      7.160
REMARK  Name = 
REMARK  3 active torsions:
REMARK  status: ('A' for Active; 'I' for Inactive)
REMARK    1  A    between atoms: C_1  and  C_2
REMARK    2  A    between atoms: C_4  and  C_5
REMARK    3  A    between atoms: C_10  and  C_11
REMARK                            x       y       z     vdW  Elec       q    Type
REMARK                         _______ _______ _______ _____ _____    ______ ____
ROOT
ATOM      1  C   UNL     1       2.115   7.894  18.878  0.00  0.00    +0.000 C 
ATOM      2  O   UNL     1       2.303   8.386  17.763  0.00  0.00    +0.000 OA
ATOM      3  N   UNL     1       1.381   8.555  19.850  0.00  0.00    +0.000 N 
ATOM      4  C   UNL     1       1.231   8.297  21.273  0.00  0.00    +0.000 C 
ATOM      5  C   UNL     1      -0.194   8.762  21.520  0.00  0.00    +0.000 C 
ATOM      6  C   UNL     1      -0.259  10.063  20.708  0.00  0.00    +0.000 C 
ATOM      7  C   UNL     1       0.687   9.801  19.524  0.00  0.00    +0.000 C 
ENDROOT
BRANCH   1  11
ATOM      8  C   UNL     1       1.668   3.475  21.179  0.00  0.00    +0.000 C 
ATOM      9  C   UNL     1       2.445   4.353  20.235  0.00  0.00    +0.000 A 
ATOM     10  C   UNL     1       1.938   5.630  19.915  0.00  0.00    +0.000 A 
ATOM     11  C   UNL     1       2.668   6.529  19.120  0.00  0.00    +0.000 A 
ATOM     12  C   UNL     1       3.943   6.157  18.699  0.00  0.00    +0.000 A 
ATOM     13  C   UNL     1       4.423   4.865  18.922  0.00  0.00    +0.000 A 
ATOM     14 CL   UNL     1       5.952   4.475  18.210  0.00  0.00    +0.000 Cl
ATOM     15  C   UNL     1       3.684   3.956  19.692  0.00  0.00    +0.000 A 
ATOM     16 BR   UNL     1       4.364   2.207  20.041  0.00  0.00    +0.000 Br
ENDBRANCH   1  11
BRANCH   6  17
ATOM     17  C   UNL     1       0.150  11.242  21.574  0.00  0.00    +0.000 C 
ATOM     18  N   UNL     1       0.910  12.182  20.933  0.00  0.00    +0.000 N 
ATOM     19  O   UNL     1      -0.156  11.392  22.746  0.00  0.00    +0.000 OA
ATOM     20  H   UNL     1       1.284  12.056  20.003  0.00  0.00    +0.000 HD
ATOM     21  H   UNL     1       1.217  12.982  21.471  0.00  0.00    +0.000 HD
ENDBRANCH   6  17
TORSDOF 2
ENDMDL
MODEL 6
REMARK VINA RESULT:      -7.1      4.015      6.848
REMARK  Name = 
REMARK  3 active torsions:
REMARK  status: ('A' for Active; 'I' for Inactive)
REMARK    1  A    between atoms: C_1  and  C_2
REMARK    2  A    between atoms: C_4  and  C_5
REMARK    3  A    between atoms: C_10  and  C_11
REMARK                            x       y       z     vdW  Elec       q    Type
REMARK                         _______ _______ _______ _____ _____    ______ ____
ROOT
ATOM      1  C   UNL     1       2.155   8.160  18.529  0.00  0.00    +0.000 C 
ATOM      2  O   UNL     1       2.384   8.634  17.414  0.00  0.00    +0.000 OA
ATOM      3  N   UNL     1       1.442   8.865  19.486  0.00  0.00    +0.000 N 
ATOM      4  C   UNL     1       1.259   8.625  20.908  0.00  0.00    +0.000 C 
ATOM      5  C   UNL     1      -0.145   9.164  21.131  0.00  0.00    +0.000 C 
ATOM      6  C   UNL     1      -0.130  10.461  20.310  0.00  0.00    +0.000 C 
ATOM      7  C   UNL     1       0.818  10.143  19.141  0.00  0.00    +0.000 C 
ENDROOT
BRANCH   1  11
ATOM      8  C   UNL     1       4.699   4.171  16.904  0.00  0.00    +0.000 C 
ATOM      9  C   UNL     1       3.894   4.815  18.001  0.00  0.00    +0.000 A 
ATOM     10  C   UNL     1       3.469   6.151  17.843  0.00  0.00    +0.000 A 
ATOM     11  C   UNL     1       2.634   6.770  18.788  0.00  0.00    +0.000 A 
ATOM     12  C   UNL     1       2.175   6.014  19.864  0.00  0.00    +0.000 A 
ATOM     13  C   UNL     1       2.660   4.723  20.090  0.00  0.00    +0.000 A 
ATOM     14 CL   UNL     1       2.139   3.948  21.548  0.00  0.00    +0.000 Cl
ATOM     15  C   UNL     1       3.516   4.114  19.163  0.00  0.00    +0.000 A 
ATOM     16 BR   UNL     1       4.135   2.330  19.446  0.00  0.00    +0.000 Br
ENDBRANCH   1  11
BRANCH   6  17
ATOM     17  C   UNL     1       0.327  11.624  21.174  0.00  0.00    +0.000 C 
ATOM     18  N   UNL     1       1.254  12.440  20.586  0.00  0.00    +0.000 N 
ATOM     19  O   UNL     1      -0.077  11.861  22.301  0.00  0.00    +0.000 OA
ATOM     20  H   UNL     1       1.702  12.230  19.705  0.00  0.00    +0.000 HD
ATOM     21  H   UNL     1       1.598  13.224  21.127  0.00  0.00    +0.000 HD
ENDBRANCH   6  17
TORSDOF 2
ENDMDL
MODEL 7
REMARK VINA RESULT:      -7.0      4.398      7.175
REMARK  Name = 
REMARK  3 active torsions:
REMARK  status: ('A' for Active; 'I' for Inactive)
REMARK    1  A    between atoms: C_1  and  C_2
REMARK    2  A    between atoms: C_4  and  C_5
REMARK    3  A    between atoms: C_10  and  C_11
REMARK                            x       y       z     vdW  Elec       q    Type
REMARK                         _______ _______ _______ _____ _____    ______ ____
ROOT
ATOM      1  C   UNL     1       1.814   8.838  18.378  0.00  0.00    +0.000 C 
ATOM      2  O   UNL     1       1.754   9.728  17.527  0.00  0.00    +0.000 OA
ATOM      3  N   UNL     1       1.165   8.954  19.598  0.00  0.00    +0.000 N 
ATOM      4  C   UNL     1       1.281   8.173  20.818  0.00  0.00    +0.000 C 
ATOM      5  C   UNL     1      -0.135   8.247  21.365  0.00  0.00    +0.000 C 
ATOM      6  C   UNL     1      -0.500   9.719  21.128  0.00  0.00    +0.000 C 
ATOM      7  C   UNL     1       0.270  10.084  19.847  0.00  0.00    +0.000 C 
ENDROOT
BRANCH   1  11
ATOM      8  C   UNL     1       1.909   3.847  18.065  0.00  0.00    +0.000 C 
ATOM      9  C   UNL     1       2.620   5.156  17.850  0.00  0.00    +0.000 A 
ATOM     10  C   UNL     1       1.931   6.359  18.109  0.00  0.00    +0.000 A 
ATOM     11  C   UNL     1       2.574   7.604  18.020  0.00  0.00    +0.000 A 
ATOM     12  C   UNL     1       3.937   7.629  17.729  0.00  0.00    +0.000 A 
ATOM     13  C   UNL     1       4.614   6.459  17.376  0.00  0.00    +0.000 A 
ATOM     14 CL   UNL     1       6.262   6.642  16.880  0.00  0.00    +0.000 Cl
ATOM     15  C   UNL     1       3.966   5.218  17.437  0.00  0.00    +0.000 A 
ATOM     16 BR   UNL     1       4.908   3.614  17.006  0.00  0.00    +0.000 Br
ENDBRANCH   1  11
BRANCH   6  17
ATOM     17  C   UNL     1      -0.116  10.556  22.336  0.00  0.00    +0.000 C 
ATOM     18  N   UNL     1      -0.333  11.898  22.190  0.00  0.00    +0.000 N 
ATOM     19  O   UNL     1       0.341  10.115  23.378  0.00  0.00    +0.000 OA
ATOM     20  H   UNL     1      -0.603  12.328  21.316  0.00  0.00    +0.000 HD
ATOM     21  H   UNL     1      -0.083  12.500  22.965  0.00  0.00    +0.000 HD
ENDBRANCH   6  17
TORSDOF 2
ENDMDL
MODEL 8
REMARK VINA RESULT:      -7.0      4.274      6.996
REMARK  Name = 
REMARK  3 active torsions:
REMARK  status: ('A' for Active; 'I' for Inactive)
REMARK    1  A    between atoms: C_1  and  C_2
REMARK    2  A    between atoms: C_4  and  C_5
REMARK    3  A    between atoms: C_10  and  C_11
REMARK                            x       y       z     vdW  Elec       q    Type
REMARK                         _______ _______ _______ _____ _____    ______ ____
ROOT
ATOM      1  C   UNL     1       2.157   8.192  18.314  0.00  0.00    +0.000 C 
ATOM      2  O   UNL     1       2.347   8.748  17.230  0.00  0.00    +0.000 OA
ATOM      3  N   UNL     1       1.455   8.812  19.336  0.00  0.00    +0.000 N 
ATOM      4  C   UNL     1       1.314   8.470  20.741  0.00  0.00    +0.000 C 
ATOM      5  C   UNL     1      -0.093   8.961  21.037  0.00  0.00    +0.000 C 
ATOM      6  C   UNL     1      -0.127  10.312  20.309  0.00  0.00    +0.000 C 
ATOM      7  C   UNL     1       0.796  10.097  19.098  0.00  0.00    +0.000 C 
ENDROOT
BRANCH   1  11
ATOM      8  C   UNL     1       1.171   3.289  18.415  0.00  0.00    +0.000 C 
ATOM      9  C   UNL     1       2.194   4.390  18.498  0.00  0.00    +0.000 A 
ATOM     10  C   UNL     1       1.780   5.725  18.300  0.00  0.00    +0.000 A 
ATOM     11  C   UNL     1       2.670   6.798  18.463  0.00  0.00    +0.000 A 
ATOM     12  C   UNL     1       3.969   6.525  18.888  0.00  0.00    +0.000 A 
ATOM     13  C   UNL     1       4.425   5.209  18.996  0.00  0.00    +0.000 A 
ATOM     14 CL   UNL     1       6.101   5.003  19.375  0.00  0.00    +0.000 Cl
ATOM     15  C   UNL     1       3.545   4.135  18.806  0.00  0.00    +0.000 A 
ATOM     16 BR   UNL     1       4.157   2.338  19.006  0.00  0.00    +0.000 Br
ENDBRANCH   1  11
BRANCH   6  17
ATOM     17  C   UNL     1       0.329  11.421  21.241  0.00  0.00    +0.000 C 
ATOM     18  N   UNL     1       1.237  12.286  20.695  0.00  0.00    +0.000 N 
ATOM     19  O   UNL     1      -0.061  11.579  22.387  0.00  0.00    +0.000 OA
ATOM     20  H   UNL     1       1.674  12.140  19.796  0.00  0.00    +0.000 HD
ATOM     21  H   UNL     1       1.580  13.037  21.281  0.00  0.00    +0.000 HD
ENDBRANCH   6  17
TORSDOF 2
ENDMDL
MODEL 9
REMARK VINA RESULT:      -6.9      4.289      6.940
REMARK  Name = 
REMARK  3 active torsions:
REMARK  status: ('A' for Active; 'I' for Inactive)
REMARK    1  A    between atoms: C_1  and  C_2
REMARK    2  A    between atoms: C_4  and  C_5
REMARK    3  A    between atoms: C_10  and  C_11
REMARK                            x       y       z     vdW  Elec       q    Type
REMARK                         _______ _______ _______ _____ _____    ______ ____
ROOT
ATOM      1  C   UNL     1       2.054   7.450  19.452  0.00  0.00    +0.000 C 
ATOM      2  O   UNL     1       1.770   6.991  20.561  0.00  0.00    +0.000 OA
ATOM      3  N   UNL     1       1.634   8.711  19.058  0.00  0.00    +0.000 N 
ATOM      4  C   UNL     1       1.637   9.353  17.754  0.00  0.00    +0.000 C 
ATOM      5  C   UNL     1       1.858  10.809  18.130  0.00  0.00    +0.000 C 
ATOM      6  C   UNL     1       0.937  10.976  19.346  0.00  0.00    +0.000 C 
ATOM      7  C   UNL     1       0.957   9.590  20.013  0.00  0.00    +0.000 C 
ENDROOT
BRANCH   1  11
ATOM      8  C   UNL     1       2.784   3.070  17.149  0.00  0.00    +0.000 C 
ATOM      9  C   UNL     1       3.272   4.468  17.425  0.00  0.00    +0.000 A 
ATOM     10  C   UNL     1       2.468   5.332  18.199  0.00  0.00    +0.000 A 
ATOM     11  C   UNL     1       2.917   6.610  18.570  0.00  0.00    +0.000 A 
ATOM     12  C   UNL     1       4.207   6.992  18.210  0.00  0.00    +0.000 A 
ATOM     13  C   UNL     1       4.981   6.192  17.365  0.00  0.00    +0.000 A 
ATOM     14 CL   UNL     1       6.500   6.849  16.860  0.00  0.00    +0.000 Cl
ATOM     15  C   UNL     1       4.524   4.927  16.970  0.00  0.00    +0.000 A 
ATOM     16 BR   UNL     1       5.604   3.813  15.858  0.00  0.00    +0.000 Br
ENDBRANCH   1  11
BRANCH   6  17
ATOM     17  C   UNL     1      -0.444  11.424  18.900  0.00  0.00    +0.000 C 
ATOM     18  N   UNL     1      -0.448  12.497  18.053  0.00  0.00    +0.000 N 
ATOM     19  O   UNL     1      -1.494  10.897  19.233  0.00  0.00    +0.000 OA
ATOM     20  H   UNL     1       0.377  13.037  17.834  0.00  0.00    +0.000 HD
ATOM     21  H   UNL     1      -1.346  12.841  17.735  0.00  0.00    +0.000 HD
ENDBRANCH   6  17
TORSDOF 2
ENDMDL
