MODEL 1
REMARK VINA RESULT:      -7.4      0.000      0.000
REMARK  Name = 
REMARK  9 active torsions:
REMARK  status: ('A' for Active; 'I' for Inactive)
REMARK    1  A    between atoms: C_1  and  C_2
REMARK    2  A    between atoms: C_5  and  C_6
REMARK    3  A    between atoms: C_7  and  C_8
REMARK    4  A    between atoms: C_8  and  C_9
REMARK    5  A    between atoms: N_11  and  C_12
REMARK    6  A    between atoms: N_11  and  C_13
REMARK    7  A    between atoms: C_13  and  C_14
REMARK    8  A    between atoms: C_14  and  C_15
REMARK    9  A    between atoms: C_15  and  O_16
REMARK                            x       y       z     vdW  Elec       q    Type
REMARK                         _______ _______ _______ _____ _____    ______ ____
ROOT
ATOM      1  C   UNL     1       3.654   5.192  17.405  0.00  0.00    +0.000 C 
ATOM      2  O   UNL     1       3.620   4.159  16.724  0.00  0.00    +0.000 OA
ATOM      3  N   UNL     1       2.611   5.499  18.274  0.00  0.00    +0.000 N 
ATOM      4  C   UNL     1       2.587   6.653  19.160  0.00  0.00    +0.000 C 
ENDROOT
BRANCH   1   5
ATOM      5  C   UNL     1       4.823   6.157  17.228  0.00  0.00    +0.000 C 
BRANCH   5  12
ATOM      6  C   UNL     1       7.084   5.459  19.507  0.00  0.00    +0.000 C 
ATOM      7  C   UNL     1       7.118   5.170  18.050  0.00  0.00    +0.000 A 
ATOM      8  N   UNL     1       8.162   4.505  17.543  0.00  0.00    +0.000 NA
ATOM      9  N   UNL     1       7.871   4.369  16.247  0.00  0.00    +0.000 N 
ATOM     10  C   UNL     1       6.678   4.933  15.888  0.00  0.00    +0.000 A 
ATOM     11  C   UNL     1       6.180   4.846  14.495  0.00  0.00    +0.000 C 
ATOM     12  C   UNL     1       6.149   5.484  17.047  0.00  0.00    +0.000 A 
ATOM     13  H   UNL     1       8.526   3.857  15.665  0.00  0.00    +0.000 HD
ENDBRANCH   5  12
ENDBRANCH   1   5
BRANCH   3  14
ATOM     14  C   UNL     1       1.490   4.548  18.396  0.00  0.00    +0.000 C 
BRANCH  14  15
ATOM     15  C   UNL     1       1.689   3.357  19.373  0.00  0.00    +0.000 C 
ATOM     16  C   UNL     1       3.101   3.449  19.997  0.00  0.00    +0.000 C 
ATOM     17  C   UNL     1       3.026   2.654  21.297  0.00  0.00    +0.000 C 
ATOM     18  C   UNL     1       1.559   2.687  21.722  0.00  0.00    +0.000 C 
ATOM     19  C   UNL     1       0.811   3.460  20.634  0.00  0.00    +0.000 C 
BRANCH  15  20
ATOM     20  C   UNL     1       1.491   1.985  18.689  0.00  0.00    +0.000 C 
BRANCH  20  21
ATOM     21  O   UNL     1       2.622   1.614  17.912  0.00  0.00    +0.000 OA
ATOM     22  H   UNL     1       2.513   2.034  17.029  0.00  0.00    +0.000 HD
ENDBRANCH  20  21
ENDBRANCH  15  20
ENDBRANCH  14  15
ENDBRANCH   3  14
TORSDOF 6
ENDMDL
MODEL 2
REMARK VINA RESULT:      -7.2      0.127      1.821
REMARK  Name = 
REMARK  9 active torsions:
REMARK  status: ('A' for Active; 'I' for Inactive)
REMARK    1  A    between atoms: C_1  and  C_2
REMARK    2  A    between atoms: C_5  and  C_6
REMARK    3  A    between atoms: C_7  and  C_8
REMARK    4  A    between atoms: C_8  and  C_9
REMARK    5  A    between atoms: N_11  and  C_12
REMARK    6  A    between atoms: N_11  and  C_13
REMARK    7  A    between atoms: C_13  and  C_14
REMARK    8  A    between atoms: C_14  and  C_15
REMARK    9  A    between atoms: C_15  and  O_16
REMARK                            x       y       z     vdW  Elec       q    Type
REMARK                         _______ _______ _______ _____ _____    ______ ____
ROOT
ATOM      1  C   UNL     1       3.556   5.087  17.366  0.00  0.00    +0.000 C 
ATOM      2  O   UNL     1       3.477   4.041  16.709  0.00  0.00    +0.000 OA
ATOM      3  N   UNL     1       2.551   5.433  18.266  0.00  0.00    +0.000 N 
ATOM      4  C   UNL     1       2.582   6.606  19.127  0.00  0.00    +0.000 C 
ENDROOT
BRANCH   1   5
ATOM      5  C   UNL     1       4.736   6.025  17.127  0.00  0.00    +0.000 C 
BRANCH   5  12
ATOM      6  C   UNL     1       6.120   4.721  14.448  0.00  0.00    +0.000 C 
ATOM      7  C   UNL     1       6.657   4.779  15.833  0.00  0.00    +0.000 A 
ATOM      8  N   UNL     1       7.876   4.287  16.079  0.00  0.00    +0.000 NA
ATOM      9  N   UNL     1       8.075   4.530  17.376  0.00  0.00    +0.000 N 
ATOM     10  C   UNL     1       7.023   5.152  17.989  0.00  0.00    +0.000 A 
ATOM     11  C   UNL     1       7.085   5.528  19.421  0.00  0.00    +0.000 C 
ATOM     12  C   UNL     1       6.056   5.327  17.008  0.00  0.00    +0.000 A 
ATOM     13  H   UNL     1       8.968   4.261  17.778  0.00  0.00    +0.000 HD
ENDBRANCH   5  12
ENDBRANCH   1   5
BRANCH   3  14
ATOM     14  C   UNL     1       1.417   4.508  18.448  0.00  0.00    +0.000 C 
BRANCH  14  15
ATOM     15  C   UNL     1       1.640   3.313  19.415  0.00  0.00    +0.000 C 
ATOM     16  C   UNL     1       3.059   3.418  20.024  0.00  0.00    +0.000 C 
ATOM     17  C   UNL     1       3.006   2.614  21.319  0.00  0.00    +0.000 C 
ATOM     18  C   UNL     1       1.545   2.626  21.760  0.00  0.00    +0.000 C 
ATOM     19  C   UNL     1       0.776   3.398  20.686  0.00  0.00    +0.000 C 
BRANCH  15  20
ATOM     20  C   UNL     1       1.450   1.944  18.724  0.00  0.00    +0.000 C 
BRANCH  20  21
ATOM     21  O   UNL     1       2.565   1.603  17.910  0.00  0.00    +0.000 OA
ATOM     22  H   UNL     1       3.374   1.830  18.423  0.00  0.00    +0.000 HD
ENDBRANCH  20  21
ENDBRANCH  15  20
ENDBRANCH  14  15
ENDBRANCH   3  14
TORSDOF 6
ENDMDL
MODEL 3
REMARK VINA RESULT:      -7.1      1.968      5.508
REMARK  Name = 
REMARK  9 active torsions:
REMARK  status: ('A' for Active; 'I' for Inactive)
REMARK    1  A    between atoms: C_1  and  C_2
REMARK    2  A    between atoms: C_5  and  C_6
REMARK    3  A    between atoms: C_7  and  C_8
REMARK    4  A    between atoms: C_8  and  C_9
REMARK    5  A    between atoms: N_11  and  C_12
REMARK    6  A    between atoms: N_11  and  C_13
REMARK    7  A    between atoms: C_13  and  C_14
REMARK    8  A    between atoms: C_14  and  C_15
REMARK    9  A    between atoms: C_15  and  O_16
REMARK                            x       y       z     vdW  Elec       q    Type
REMARK                         _______ _______ _______ _____ _____    ______ ____
ROOT
ATOM      1  C   UNL     1       3.229   4.801  17.255  0.00  0.00    +0.000 C 
ATOM      2  O   UNL     1       3.752   3.849  16.661  0.00  0.00    +0.000 OA
ATOM      3  N   UNL     1       3.855   6.044  17.285  0.00  0.00    +0.000 N 
ATOM      4  C   UNL     1       3.292   7.237  17.901  0.00  0.00    +0.000 C 
ENDROOT
BRANCH   1   5
ATOM      5  C   UNL     1       1.922   4.574  18.011  0.00  0.00    +0.000 C 
BRANCH   5  12
ATOM      6  C   UNL     1       2.954   1.627  19.035  0.00  0.00    +0.000 C 
ATOM      7  C   UNL     1       2.573   2.810  19.850  0.00  0.00    +0.000 A 
ATOM      8  N   UNL     1       2.678   2.743  21.182  0.00  0.00    +0.000 NA
ATOM      9  N   UNL     1       2.312   3.955  21.605  0.00  0.00    +0.000 N 
ATOM     10  C   UNL     1       1.959   4.808  20.596  0.00  0.00    +0.000 A 
ATOM     11  C   UNL     1       1.559   6.206  20.881  0.00  0.00    +0.000 C 
ATOM     12  C   UNL     1       2.106   4.090  19.417  0.00  0.00    +0.000 A 
ATOM     13  H   UNL     1       2.348   4.141  22.602  0.00  0.00    +0.000 HD
ENDBRANCH   5  12
ENDBRANCH   1   5
BRANCH   3  14
ATOM     14  C   UNL     1       5.127   6.213  16.559  0.00  0.00    +0.000 C 
BRANCH  14  15
ATOM     15  C   UNL     1       6.422   5.818  17.320  0.00  0.00    +0.000 C 
ATOM     16  C   UNL     1       7.281   7.086  17.540  0.00  0.00    +0.000 C 
ATOM     17  C   UNL     1       8.186   6.765  18.725  0.00  0.00    +0.000 C 
ATOM     18  C   UNL     1       7.451   5.700  19.536  0.00  0.00    +0.000 C 
ATOM     19  C   UNL     1       6.158   5.395  18.777  0.00  0.00    +0.000 C 
BRANCH  15  20
ATOM     20  C   UNL     1       7.240   4.733  16.584  0.00  0.00    +0.000 C 
BRANCH  20  21
ATOM     21  O   UNL     1       6.443   3.604  16.252  0.00  0.00    +0.000 OA
ATOM     22  H   UNL     1       7.049   2.830  16.203  0.00  0.00    +0.000 HD
ENDBRANCH  20  21
ENDBRANCH  15  20
ENDBRANCH  14  15
ENDBRANCH   3  14
TORSDOF 6
ENDMDL
MODEL 4
REMARK VINA RESULT:      -7.1      1.646      3.123
REMARK  Name = 
REMARK  9 active torsions:
REMARK  status: ('A' for Active; 'I' for Inactive)
REMARK    1  A    between atoms: C_1  and  C_2
REMARK    2  A    between atoms: C_5  and  C_6
REMARK    3  A    between atoms: C_7  and  C_8
REMARK    4  A    between atoms: C_8  and  C_9
REMARK    5  A    between atoms: N_11  and  C_12
REMARK    6  A    between atoms: N_11  and  C_13
REMARK    7  A    between atoms: C_13  and  C_14
REMARK    8  A    between atoms: C_14  and  C_15
REMARK    9  A    between atoms: C_15  and  O_16
REMARK                            x       y       z     vdW  Elec       q    Type
REMARK                         _______ _______ _______ _____ _____    ______ ____
ROOT
ATOM      1  C   UNL     1       4.079   4.168  17.017  0.00  0.00    +0.000 C 
ATOM      2  O   UNL     1       4.216   5.388  17.176  0.00  0.00    +0.000 OA
ATOM      3  N   UNL     1       2.972   3.508  17.545  0.00  0.00    +0.000 N 
ATOM      4  C   UNL     1       2.689   2.092  17.360  0.00  0.00    +0.000 C 
ENDROOT
BRANCH   1   5
ATOM      5  C   UNL     1       5.172   3.388  16.292  0.00  0.00    +0.000 C 
BRANCH   5  12
ATOM      6  C   UNL     1       5.709   3.922  13.095  0.00  0.00    +0.000 C 
ATOM      7  C   UNL     1       6.433   4.488  14.264  0.00  0.00    +0.000 A 
ATOM      8  N   UNL     1       7.417   5.369  14.055  0.00  0.00    +0.000 NA
ATOM      9  N   UNL     1       7.821   5.713  15.280  0.00  0.00    +0.000 N 
ATOM     10  C   UNL     1       7.141   5.078  16.283  0.00  0.00    +0.000 A 
ATOM     11  C   UNL     1       7.434   5.365  17.706  0.00  0.00    +0.000 C 
ATOM     12  C   UNL     1       6.219   4.250  15.657  0.00  0.00    +0.000 A 
ATOM     13  H   UNL     1       8.556   6.408  15.360  0.00  0.00    +0.000 HD
ENDBRANCH   5  12
ENDBRANCH   1   5
BRANCH   3  14
ATOM     14  C   UNL     1       1.952   4.298  18.258  0.00  0.00    +0.000 C 
BRANCH  14  15
ATOM     15  C   UNL     1       1.945   4.194  19.808  0.00  0.00    +0.000 C 
ATOM     16  C   UNL     1       0.737   3.335  20.249  0.00  0.00    +0.000 C 
ATOM     17  C   UNL     1       1.094   2.809  21.635  0.00  0.00    +0.000 C 
ATOM     18  C   UNL     1       2.620   2.793  21.695  0.00  0.00    +0.000 C 
ATOM     19  C   UNL     1       3.111   3.353  20.359  0.00  0.00    +0.000 C 
BRANCH  15  20
ATOM     20  C   UNL     1       1.904   5.576  20.498  0.00  0.00    +0.000 C 
BRANCH  20  21
ATOM     21  O   UNL     1       2.770   6.509  19.866  0.00  0.00    +0.000 OA
ATOM     22  H   UNL     1       2.229   7.302  19.649  0.00  0.00    +0.000 HD
ENDBRANCH  20  21
ENDBRANCH  15  20
ENDBRANCH  14  15
ENDBRANCH   3  14
TORSDOF 6
ENDMDL
MODEL 5
REMARK VINA RESULT:      -7.1      2.012      5.541
REMARK  Name = 
REMARK  9 active torsions:
REMARK  status: ('A' for Active; 'I' for Inactive)
REMARK    1  A    between atoms: C_1  and  C_2
REMARK    2  A    between atoms: C_5  and  C_6
REMARK    3  A    between atoms: C_7  and  C_8
REMARK    4  A    between atoms: C_8  and  C_9
REMARK    5  A    between atoms: N_11  and  C_12
REMARK    6  A    between atoms: N_11  and  C_13
REMARK    7  A    between atoms: C_13  and  C_14
REMARK    8  A    between atoms: C_14  and  C_15
REMARK    9  A    between atoms: C_15  and  O_16
REMARK                            x       y       z     vdW  Elec       q    Type
REMARK                         _______ _______ _______ _____ _____    ______ ____
ROOT
ATOM      1  C   UNL     1       3.355   4.808  17.229  0.00  0.00    +0.000 C 
ATOM      2  O   UNL     1       3.924   3.897  16.615  0.00  0.00    +0.000 OA
ATOM      3  N   UNL     1       3.909   6.085  17.271  0.00  0.00    +0.000 N 
ATOM      4  C   UNL     1       3.286   7.234  17.912  0.00  0.00    +0.000 C 
ENDROOT
BRANCH   1   5
ATOM      5  C   UNL     1       2.073   4.495  17.997  0.00  0.00    +0.000 C 
BRANCH   5  12
ATOM      6  C   UNL     1       1.429   5.942  20.875  0.00  0.00    +0.000 C 
ATOM      7  C   UNL     1       2.002   4.594  20.623  0.00  0.00    +0.000 A 
ATOM      8  N   UNL     1       2.276   3.800  21.664  0.00  0.00    +0.000 NA
ATOM      9  N   UNL     1       2.723   2.670  21.110  0.00  0.00    +0.000 N 
ATOM     10  C   UNL     1       2.761   2.703  19.744  0.00  0.00    +0.000 A 
ATOM     11  C   UNL     1       3.198   1.523  18.962  0.00  0.00    +0.000 C 
ATOM     12  C   UNL     1       2.302   3.961  19.377  0.00  0.00    +0.000 A 
ATOM     13  H   UNL     1       2.966   1.902  21.728  0.00  0.00    +0.000 HD
ENDBRANCH   5  12
ENDBRANCH   1   5
BRANCH   3  14
ATOM     14  C   UNL     1       5.160   6.336  16.534  0.00  0.00    +0.000 C 
BRANCH  14  15
ATOM     15  C   UNL     1       6.483   5.952  17.252  0.00  0.00    +0.000 C 
ATOM     16  C   UNL     1       7.309   7.236  17.504  0.00  0.00    +0.000 C 
ATOM     17  C   UNL     1       8.249   6.896  18.656  0.00  0.00    +0.000 C 
ATOM     18  C   UNL     1       7.563   5.779  19.439  0.00  0.00    +0.000 C 
ATOM     19  C   UNL     1       6.263   5.465  18.695  0.00  0.00    +0.000 C 
BRANCH  15  20
ATOM     20  C   UNL     1       7.316   4.922  16.456  0.00  0.00    +0.000 C 
BRANCH  20  21
ATOM     21  O   UNL     1       7.603   5.378  15.140  0.00  0.00    +0.000 OA
ATOM     22  H   UNL     1       8.498   5.786  15.167  0.00  0.00    +0.000 HD
ENDBRANCH  20  21
ENDBRANCH  15  20
ENDBRANCH  14  15
ENDBRANCH   3  14
TORSDOF 6
ENDMDL
MODEL 6
REMARK VINA RESULT:      -6.9      1.881      3.249
REMARK  Name = 
REMARK  9 active torsions:
REMARK  status: ('A' for Active; 'I' for Inactive)
REMARK    1  A    between atoms: C_1  and  C_2
REMARK    2  A    between atoms: C_5  and  C_6
REMARK    3  A    between atoms: C_7  and  C_8
REMARK    4  A    between atoms: C_8  and  C_9
REMARK    5  A    between atoms: N_11  and  C_12
REMARK    6  A    between atoms: N_11  and  C_13
REMARK    7  A    between atoms: C_13  and  C_14
REMARK    8  A    between atoms: C_14  and  C_15
REMARK    9  A    between atoms: C_15  and  O_16
REMARK                            x       y       z     vdW  Elec       q    Type
REMARK                         _______ _______ _______ _____ _____    ______ ____
ROOT
ATOM      1  C   UNL     1       4.274   4.617  17.438  0.00  0.00    +0.000 C 
ATOM      2  O   UNL     1       3.746   5.682  17.093  0.00  0.00    +0.000 OA
ATOM      3  N   UNL     1       4.335   4.263  18.784  0.00  0.00    +0.000 N 
ATOM      4  C   UNL     1       4.876   3.008  19.283  0.00  0.00    +0.000 C 
ENDROOT
BRANCH   1   5
ATOM      5  C   UNL     1       4.916   3.730  16.375  0.00  0.00    +0.000 C 
BRANCH   5  12
ATOM      6  C   UNL     1       5.514   3.655  13.145  0.00  0.00    +0.000 C 
ATOM      7  C   UNL     1       6.269   4.364  14.211  0.00  0.00    +0.000 A 
ATOM      8  N   UNL     1       7.319   5.120  13.871  0.00  0.00    +0.000 NA
ATOM      9  N   UNL     1       7.738   5.643  15.025  0.00  0.00    +0.000 N 
ATOM     10  C   UNL     1       7.006   5.245  16.109  0.00  0.00    +0.000 A 
ATOM     11  C   UNL     1       7.310   5.756  17.467  0.00  0.00    +0.000 C 
ATOM     12  C   UNL     1       6.029   4.389  15.620  0.00  0.00    +0.000 A 
ATOM     13  H   UNL     1       8.523   6.286  14.997  0.00  0.00    +0.000 HD
ENDBRANCH   5  12
ENDBRANCH   1   5
BRANCH   3  14
ATOM     14  C   UNL     1       3.721   5.161  19.779  0.00  0.00    +0.000 C 
BRANCH  14  15
ATOM     15  C   UNL     1       2.346   4.728  20.356  0.00  0.00    +0.000 C 
ATOM     16  C   UNL     1       1.572   3.941  19.273  0.00  0.00    +0.000 C 
ATOM     17  C   UNL     1       0.558   3.091  20.032  0.00  0.00    +0.000 C 
ATOM     18  C   UNL     1       1.147   2.884  21.426  0.00  0.00    +0.000 C 
ATOM     19  C   UNL     1       2.466   3.658  21.457  0.00  0.00    +0.000 C 
BRANCH  15  20
ATOM     20  C   UNL     1       1.505   5.924  20.857  0.00  0.00    +0.000 C 
BRANCH  20  21
ATOM     21  O   UNL     1       2.115   7.169  20.539  0.00  0.00    +0.000 OA
ATOM     22  H   UNL     1       2.627   7.448  21.332  0.00  0.00    +0.000 HD
ENDBRANCH  20  21
ENDBRANCH  15  20
ENDBRANCH  14  15
ENDBRANCH   3  14
TORSDOF 6
ENDMDL
MODEL 7
REMARK VINA RESULT:      -6.9      2.236      5.878
REMARK  Name = 
REMARK  9 active torsions:
REMARK  status: ('A' for Active; 'I' for Inactive)
REMARK    1  A    between atoms: C_1  and  C_2
REMARK    2  A    between atoms: C_5  and  C_6
REMARK    3  A    between atoms: C_7  and  C_8
REMARK    4  A    between atoms: C_8  and  C_9
REMARK    5  A    between atoms: N_11  and  C_12
REMARK    6  A    between atoms: N_11  and  C_13
REMARK    7  A    between atoms: C_13  and  C_14
REMARK    8  A    between atoms: C_14  and  C_15
REMARK    9  A    between atoms: C_15  and  O_16
REMARK                            x       y       z     vdW  Elec       q    Type
REMARK                         _______ _______ _______ _____ _____    ______ ____
ROOT
ATOM      1  C   UNL     1       3.032   5.649  17.672  0.00  0.00    +0.000 C 
ATOM      2  O   UNL     1       2.976   6.843  17.993  0.00  0.00    +0.000 OA
ATOM      3  N   UNL     1       4.103   5.170  16.922  0.00  0.00    +0.000 N 
ATOM      4  C   UNL     1       4.291   3.775  16.550  0.00  0.00    +0.000 C 
ENDROOT
BRANCH   1   5
ATOM      5  C   UNL     1       1.878   4.726  18.052  0.00  0.00    +0.000 C 
BRANCH   5  12
ATOM      6  C   UNL     1       2.715   1.672  18.929  0.00  0.00    +0.000 C 
ATOM      7  C   UNL     1       2.366   2.824  19.802  0.00  0.00    +0.000 A 
ATOM      8  N   UNL     1       2.419   2.674  21.129  0.00  0.00    +0.000 NA
ATOM      9  N   UNL     1       2.102   3.877  21.612  0.00  0.00    +0.000 N 
ATOM     10  C   UNL     1       1.831   4.806  20.645  0.00  0.00    +0.000 A 
ATOM     11  C   UNL     1       1.494   6.204  21.001  0.00  0.00    +0.000 C 
ATOM     12  C   UNL     1       1.984   4.151  19.431  0.00  0.00    +0.000 A 
ATOM     13  H   UNL     1       2.110   4.002  22.619  0.00  0.00    +0.000 HD
ENDBRANCH   5  12
ENDBRANCH   1   5
BRANCH   3  14
ATOM     14  C   UNL     1       5.184   6.103  16.558  0.00  0.00    +0.000 C 
BRANCH  14  15
ATOM     15  C   UNL     1       6.560   5.880  17.245  0.00  0.00    +0.000 C 
ATOM     16  C   UNL     1       7.245   7.251  17.453  0.00  0.00    +0.000 C 
ATOM     17  C   UNL     1       8.247   7.038  18.584  0.00  0.00    +0.000 C 
ATOM     18  C   UNL     1       7.709   5.867  19.403  0.00  0.00    +0.000 C 
ATOM     19  C   UNL     1       6.433   5.398  18.701  0.00  0.00    +0.000 C 
BRANCH  15  20
ATOM     20  C   UNL     1       7.481   4.933  16.442  0.00  0.00    +0.000 C 
BRANCH  20  21
ATOM     21  O   UNL     1       7.563   5.311  15.074  0.00  0.00    +0.000 OA
ATOM     22  H   UNL     1       7.963   6.210  15.048  0.00  0.00    +0.000 HD
ENDBRANCH  20  21
ENDBRANCH  15  20
ENDBRANCH  14  15
ENDBRANCH   3  14
TORSDOF 6
ENDMDL
MODEL 8
REMARK VINA RESULT:      -6.8      1.454      2.533
REMARK  Name = 
REMARK  9 active torsions:
REMARK  status: ('A' for Active; 'I' for Inactive)
REMARK    1  A    between atoms: C_1  and  C_2
REMARK    2  A    between atoms: C_5  and  C_6
REMARK    3  A    between atoms: C_7  and  C_8
REMARK    4  A    between atoms: C_8  and  C_9
REMARK    5  A    between atoms: N_11  and  C_12
REMARK    6  A    between atoms: N_11  and  C_13
REMARK    7  A    between atoms: C_13  and  C_14
REMARK    8  A    between atoms: C_14  and  C_15
REMARK    9  A    between atoms: C_15  and  O_16
REMARK                            x       y       z     vdW  Elec       q    Type
REMARK                         _______ _______ _______ _____ _____    ______ ____
ROOT
ATOM      1  C   UNL     1       4.306   4.293  17.330  0.00  0.00    +0.000 C 
ATOM      2  O   UNL     1       3.709   3.388  16.733  0.00  0.00    +0.000 OA
ATOM      3  N   UNL     1       4.622   4.158  18.680  0.00  0.00    +0.000 N 
ATOM      4  C   UNL     1       5.375   5.135  19.453  0.00  0.00    +0.000 C 
ENDROOT
BRANCH   1   5
ATOM      5  C   UNL     1       4.632   5.584  16.584  0.00  0.00    +0.000 C 
BRANCH   5  12
ATOM      6  C   UNL     1       5.483   4.096  13.781  0.00  0.00    +0.000 C 
ATOM      7  C   UNL     1       6.320   4.939  14.674  0.00  0.00    +0.000 A 
ATOM      8  N   UNL     1       7.586   5.195  14.327  0.00  0.00    +0.000 NA
ATOM      9  N   UNL     1       8.039   5.998  15.293  0.00  0.00    +0.000 N 
ATOM     10  C   UNL     1       7.116   6.264  16.266  0.00  0.00    +0.000 A 
ATOM     11  C   UNL     1       7.436   7.165  17.398  0.00  0.00    +0.000 C 
ATOM     12  C   UNL     1       5.966   5.576  15.904  0.00  0.00    +0.000 A 
ATOM     13  H   UNL     1       8.988   6.347  15.214  0.00  0.00    +0.000 HD
ENDBRANCH   5  12
ENDBRANCH   1   5
BRANCH   3  14
ATOM     14  C   UNL     1       4.267   2.903  19.367  0.00  0.00    +0.000 C 
BRANCH  14  15
ATOM     15  C   UNL     1       2.786   2.741  19.806  0.00  0.00    +0.000 C 
ATOM     16  C   UNL     1       2.735   2.551  21.340  0.00  0.00    +0.000 C 
ATOM     17  C   UNL     1       1.327   2.965  21.755  0.00  0.00    +0.000 C 
ATOM     18  C   UNL     1       0.845   3.942  20.685  0.00  0.00    +0.000 C 
ATOM     19  C   UNL     1       1.968   4.036  19.650  0.00  0.00    +0.000 C 
BRANCH  15  20
ATOM     20  C   UNL     1       2.078   1.566  19.094  0.00  0.00    +0.000 C 
BRANCH  20  21
ATOM     21  O   UNL     1       1.641   1.925  17.789  0.00  0.00    +0.000 OA
ATOM     22  H   UNL     1       2.439   1.940  17.214  0.00  0.00    +0.000 HD
ENDBRANCH  20  21
ENDBRANCH  15  20
ENDBRANCH  14  15
ENDBRANCH   3  14
TORSDOF 6
ENDMDL
MODEL 9
REMARK VINA RESULT:      -6.8      1.878      2.747
REMARK  Name = 
REMARK  9 active torsions:
REMARK  status: ('A' for Active; 'I' for Inactive)
REMARK    1  A    between atoms: C_1  and  C_2
REMARK    2  A    between atoms: C_5  and  C_6
REMARK    3  A    between atoms: C_7  and  C_8
REMARK    4  A    between atoms: C_8  and  C_9
REMARK    5  A    between atoms: N_11  and  C_12
REMARK    6  A    between atoms: N_11  and  C_13
REMARK    7  A    between atoms: C_13  and  C_14
REMARK    8  A    between atoms: C_14  and  C_15
REMARK    9  A    between atoms: C_15  and  O_16
REMARK                            x       y       z     vdW  Elec       q    Type
REMARK                         _______ _______ _______ _____ _____    ______ ____
ROOT
ATOM      1  C   UNL     1       4.258   4.629  17.432  0.00  0.00    +0.000 C 
ATOM      2  O   UNL     1       3.759   5.714  17.110  0.00  0.00    +0.000 OA
ATOM      3  N   UNL     1       4.312   4.246  18.770  0.00  0.00    +0.000 N 
ATOM      4  C   UNL     1       4.820   2.967  19.243  0.00  0.00    +0.000 C 
ENDROOT
BRANCH   1   5
ATOM      5  C   UNL     1       4.873   3.746  16.350  0.00  0.00    +0.000 C 
BRANCH   5  12
ATOM      6  C   UNL     1       7.341   5.655  17.378  0.00  0.00    +0.000 C 
ATOM      7  C   UNL     1       7.005   5.243  15.990  0.00  0.00    +0.000 A 
ATOM      8  N   UNL     1       7.795   5.636  14.985  0.00  0.00    +0.000 NA
ATOM      9  N   UNL     1       7.258   5.074  13.901  0.00  0.00    +0.000 N 
ATOM     10  C   UNL     1       6.136   4.336  14.161  0.00  0.00    +0.000 A 
ATOM     11  C   UNL     1       5.428   3.613  13.078  0.00  0.00    +0.000 C 
ATOM     12  C   UNL     1       5.924   4.428  15.530  0.00  0.00    +0.000 A 
ATOM     13  H   UNL     1       7.723   5.218  13.011  0.00  0.00    +0.000 HD
ENDBRANCH   5  12
ENDBRANCH   1   5
BRANCH   3  14
ATOM     14  C   UNL     1       3.726   5.140  19.785  0.00  0.00    +0.000 C 
BRANCH  14  15
ATOM     15  C   UNL     1       2.354   4.718  20.378  0.00  0.00    +0.000 C 
ATOM     16  C   UNL     1       1.556   3.948  19.300  0.00  0.00    +0.000 C 
ATOM     17  C   UNL     1       0.543   3.104  20.067  0.00  0.00    +0.000 C 
ATOM     18  C   UNL     1       1.148   2.880  21.451  0.00  0.00    +0.000 C 
ATOM     19  C   UNL     1       2.477   3.639  21.469  0.00  0.00    +0.000 C 
BRANCH  15  20
ATOM     20  C   UNL     1       1.534   5.920  20.899  0.00  0.00    +0.000 C 
BRANCH  20  21
ATOM     21  O   UNL     1       2.080   7.160  20.467  0.00  0.00    +0.000 OA
ATOM     22  H   UNL     1       2.614   7.513  21.213  0.00  0.00    +0.000 HD
ENDBRANCH  20  21
ENDBRANCH  15  20
ENDBRANCH  14  15
ENDBRANCH   3  14
TORSDOF 6
ENDMDL
