MODEL 1
REMARK VINA RESULT:      -8.0      0.000      0.000
REMARK  Name = 
REMARK  2 active torsions:
REMARK  status: ('A' for Active; 'I' for Inactive)
REMARK    1  A    between atoms: C_1  and  N_2
REMARK    2  A    between atoms: N_7  and  C_8
REMARK                            x       y       z     vdW  Elec       q    Type
REMARK                         _______ _______ _______ _____ _____    ______ ____
ROOT
ATOM      1  C   UNL     1       0.684  10.389  19.415  0.00  0.00    +0.000 C 
ATOM      2  N   UNL     1       1.376   9.121  19.281  0.00  0.00    +0.000 N 
ATOM      3  C   UNL     1       2.265   8.956  18.236  0.00  0.00    +0.000 A 
ATOM      4  O   UNL     1       2.499   9.867  17.454  0.00  0.00    +0.000 OA
ATOM      5  N   UNL     1       2.911   7.766  18.085  0.00  0.00    +0.000 NA
ATOM      6  C   UNL     1       2.848   6.751  18.890  0.00  0.00    +0.000 A 
ATOM      7  N   UNL     1       3.591   5.555  18.731  0.00  0.00    +0.000 N 
ATOM      8  C   UNL     1       3.357   4.510  19.702  0.00  0.00    +0.000 A 
ATOM      9  C   UNL     1       4.073   3.295  19.730  0.00  0.00    +0.000 A 
ATOM     10  C   UNL     1       3.752   2.262  20.616  0.00  0.00    +0.000 A 
ATOM     11  C   UNL     1       2.765   2.451  21.570  0.00  0.00    +0.000 A 
ATOM     12  C   UNL     1       2.104   3.675  21.629  0.00  0.00    +0.000 A 
ATOM     13  C   UNL     1       2.384   4.698  20.708  0.00  0.00    +0.000 A 
ATOM     14  N   UNL     1       1.675   5.895  20.870  0.00  0.00    +0.000 NA
ATOM     15  C   UNL     1       1.888   6.870  20.045  0.00  0.00    +0.000 A 
ATOM     16  C   UNL     1       1.127   8.159  20.233  0.00  0.00    +0.000 A 
ATOM     17  O   UNL     1       0.358   8.293  21.181  0.00  0.00    +0.000 OA
ENDROOT
BRANCH   7  18
ATOM     18  C   UNL     1       4.460   5.429  17.578  0.00  0.00    +0.000 A 
ATOM     19  C   UNL     1       4.151   4.566  16.505  0.00  0.00    +0.000 A 
ATOM     20  C   UNL     1       5.012   4.390  15.415  0.00  0.00    +0.000 A 
ATOM     21  C   UNL     1       6.173   5.145  15.330  0.00  0.00    +0.000 A 
ATOM     22 BR   UNL     1       7.328   4.935  13.852  0.00  0.00    +0.000 Br
ATOM     23  C   UNL     1       6.496   6.037  16.343  0.00  0.00    +0.000 A 
ATOM     24  C   UNL     1       5.676   6.132  17.475  0.00  0.00    +0.000 A 
ENDBRANCH   7  18
TORSDOF 1
ENDMDL
MODEL 2
REMARK VINA RESULT:      -7.6      3.212      5.488
REMARK  Name = 
REMARK  2 active torsions:
REMARK  status: ('A' for Active; 'I' for Inactive)
REMARK    1  A    between atoms: C_1  and  N_2
REMARK    2  A    between atoms: N_7  and  C_8
REMARK                            x       y       z     vdW  Elec       q    Type
REMARK                         _______ _______ _______ _____ _____    ______ ____
ROOT
ATOM      1  C   UNL     1       6.609   5.013  14.533  0.00  0.00    +0.000 C 
ATOM      2  N   UNL     1       5.654   5.140  15.618  0.00  0.00    +0.000 N 
ATOM      3  C   UNL     1       5.065   6.368  15.846  0.00  0.00    +0.000 A 
ATOM      4  O   UNL     1       5.310   7.331  15.130  0.00  0.00    +0.000 OA
ATOM      5  N   UNL     1       4.178   6.510  16.870  0.00  0.00    +0.000 NA
ATOM      6  C   UNL     1       3.740   5.564  17.642  0.00  0.00    +0.000 A 
ATOM      7  N   UNL     1       2.764   5.742  18.653  0.00  0.00    +0.000 N 
ATOM      8  C   UNL     1       2.432   4.582  19.449  0.00  0.00    +0.000 A 
ATOM      9  C   UNL     1       1.426   4.574  20.437  0.00  0.00    +0.000 A 
ATOM     10  C   UNL     1       1.199   3.467  21.260  0.00  0.00    +0.000 A 
ATOM     11  C   UNL     1       1.910   2.295  21.054  0.00  0.00    +0.000 A 
ATOM     12  C   UNL     1       2.843   2.241  20.023  0.00  0.00    +0.000 A 
ATOM     13  C   UNL     1       3.114   3.366  19.227  0.00  0.00    +0.000 A 
ATOM     14  N   UNL     1       4.059   3.195  18.207  0.00  0.00    +0.000 NA
ATOM     15  C   UNL     1       4.352   4.201  17.445  0.00  0.00    +0.000 A 
ATOM     16  C   UNL     1       5.363   4.006  16.342  0.00  0.00    +0.000 A 
ATOM     17  O   UNL     1       5.858   2.900  16.143  0.00  0.00    +0.000 OA
ENDROOT
BRANCH   7  18
ATOM     18  C   UNL     1       2.233   7.073  18.876  0.00  0.00    +0.000 A 
ATOM     19  C   UNL     1       1.960   7.557  20.173  0.00  0.00    +0.000 A 
ATOM     20  C   UNL     1       1.392   8.816  20.396  0.00  0.00    +0.000 A 
ATOM     21  C   UNL     1       1.159   9.664  19.323  0.00  0.00    +0.000 A 
ATOM     22 BR   UNL     1       0.417  11.375  19.614  0.00  0.00    +0.000 Br
ATOM     23  C   UNL     1       1.452   9.244  18.032  0.00  0.00    +0.000 A 
ATOM     24  C   UNL     1       1.929   7.945  17.813  0.00  0.00    +0.000 A 
ENDBRANCH   7  18
TORSDOF 1
ENDMDL
MODEL 3
REMARK VINA RESULT:      -7.5      3.179      5.434
REMARK  Name = 
REMARK  2 active torsions:
REMARK  status: ('A' for Active; 'I' for Inactive)
REMARK    1  A    between atoms: C_1  and  N_2
REMARK    2  A    between atoms: N_7  and  C_8
REMARK                            x       y       z     vdW  Elec       q    Type
REMARK                         _______ _______ _______ _____ _____    ______ ____
ROOT
ATOM      1  C   UNL     1       6.586   5.093  14.524  0.00  0.00    +0.000 C 
ATOM      2  N   UNL     1       5.669   5.220  15.641  0.00  0.00    +0.000 N 
ATOM      3  C   UNL     1       5.016   6.421  15.834  0.00  0.00    +0.000 A 
ATOM      4  O   UNL     1       5.172   7.358  15.061  0.00  0.00    +0.000 OA
ATOM      5  N   UNL     1       4.164   6.563  16.888  0.00  0.00    +0.000 NA
ATOM      6  C   UNL     1       3.816   5.635  17.723  0.00  0.00    +0.000 A 
ATOM      7  N   UNL     1       2.873   5.808  18.766  0.00  0.00    +0.000 N 
ATOM      8  C   UNL     1       2.645   4.672  19.632  0.00  0.00    +0.000 A 
ATOM      9  C   UNL     1       1.682   4.657  20.662  0.00  0.00    +0.000 A 
ATOM     10  C   UNL     1       1.558   3.582  21.548  0.00  0.00    +0.000 A 
ATOM     11  C   UNL     1       2.329   2.445  21.370  0.00  0.00    +0.000 A 
ATOM     12  C   UNL     1       3.222   2.393  20.303  0.00  0.00    +0.000 A 
ATOM     13  C   UNL     1       3.391   3.489  19.441  0.00  0.00    +0.000 A 
ATOM     14  N   UNL     1       4.302   3.321  18.390  0.00  0.00    +0.000 NA
ATOM     15  C   UNL     1       4.502   4.302  17.568  0.00  0.00    +0.000 A 
ATOM     16  C   UNL     1       5.478   4.109  16.433  0.00  0.00    +0.000 A 
ATOM     17  O   UNL     1       6.031   3.027  16.267  0.00  0.00    +0.000 OA
ENDROOT
BRANCH   7  18
ATOM     18  C   UNL     1       2.271   7.114  18.945  0.00  0.00    +0.000 A 
ATOM     19  C   UNL     1       2.002   7.964  17.852  0.00  0.00    +0.000 A 
ATOM     20  C   UNL     1       1.477   9.251  18.018  0.00  0.00    +0.000 A 
ATOM     21  C   UNL     1       1.126   9.691  19.286  0.00  0.00    +0.000 A 
ATOM     22 BR   UNL     1       0.393  11.414  19.519  0.00  0.00    +0.000 Br
ATOM     23  C   UNL     1       1.335   8.870  20.387  0.00  0.00    +0.000 A 
ATOM     24  C   UNL     1       1.952   7.623  20.218  0.00  0.00    +0.000 A 
ENDBRANCH   7  18
TORSDOF 1
ENDMDL
MODEL 4
REMARK VINA RESULT:      -6.7      4.260      7.183
REMARK  Name = 
REMARK  2 active torsions:
REMARK  status: ('A' for Active; 'I' for Inactive)
REMARK    1  A    between atoms: C_1  and  N_2
REMARK    2  A    between atoms: N_7  and  C_8
REMARK                            x       y       z     vdW  Elec       q    Type
REMARK                         _______ _______ _______ _____ _____    ______ ____
ROOT
ATOM      1  C   UNL     1       1.670  15.576  21.663  0.00  0.00    +0.000 C 
ATOM      2  N   UNL     1       1.161  14.388  21.004  0.00  0.00    +0.000 N 
ATOM      3  C   UNL     1       1.983  13.282  20.899  0.00  0.00    +0.000 A 
ATOM      4  O   UNL     1       3.108  13.281  21.381  0.00  0.00    +0.000 OA
ATOM      5  N   UNL     1       1.528  12.163  20.269  0.00  0.00    +0.000 NA
ATOM      6  C   UNL     1       0.331  11.976  19.806  0.00  0.00    +0.000 A 
ATOM      7  N   UNL     1      -0.121  10.770  19.218  0.00  0.00    +0.000 N 
ATOM      8  C   UNL     1      -1.476  10.760  18.713  0.00  0.00    +0.000 A 
ATOM      9  C   UNL     1      -2.101   9.616  18.175  0.00  0.00    +0.000 A 
ATOM     10  C   UNL     1      -3.375   9.664  17.600  0.00  0.00    +0.000 A 
ATOM     11  C   UNL     1      -4.105  10.841  17.635  0.00  0.00    +0.000 A 
ATOM     12  C   UNL     1      -3.553  11.964  18.245  0.00  0.00    +0.000 A 
ATOM     13  C   UNL     1      -2.253  11.937  18.777  0.00  0.00    +0.000 A 
ATOM     14  N   UNL     1      -1.803  13.117  19.384  0.00  0.00    +0.000 NA
ATOM     15  C   UNL     1      -0.610  13.151  19.886  0.00  0.00    +0.000 A 
ATOM     16  C   UNL     1      -0.137  14.423  20.547  0.00  0.00    +0.000 A 
ATOM     17  O   UNL     1      -0.891  15.386  20.650  0.00  0.00    +0.000 OA
ENDROOT
BRANCH   7  18
ATOM     18  C   UNL     1       0.814   9.670  19.088  0.00  0.00    +0.000 A 
ATOM     19  C   UNL     1       1.524   9.437  17.891  0.00  0.00    +0.000 A 
ATOM     20  C   UNL     1       2.384   8.343  17.733  0.00  0.00    +0.000 A 
ATOM     21  C   UNL     1       2.623   7.498  18.807  0.00  0.00    +0.000 A 
ATOM     22 BR   UNL     1       3.801   6.036  18.614  0.00  0.00    +0.000 Br
ATOM     23  C   UNL     1       1.977   7.716  20.017  0.00  0.00    +0.000 A 
ATOM     24  C   UNL     1       1.045   8.755  20.132  0.00  0.00    +0.000 A 
ENDBRANCH   7  18
TORSDOF 1
ENDMDL
MODEL 5
REMARK VINA RESULT:      -6.6      3.266      5.844
REMARK  Name = 
REMARK  2 active torsions:
REMARK  status: ('A' for Active; 'I' for Inactive)
REMARK    1  A    between atoms: C_1  and  N_2
REMARK    2  A    between atoms: N_7  and  C_8
REMARK                            x       y       z     vdW  Elec       q    Type
REMARK                         _______ _______ _______ _____ _____    ______ ____
ROOT
ATOM      1  C   UNL     1       1.576   3.703  19.564  0.00  0.00    +0.000 C 
ATOM      2  N   UNL     1       2.703   4.179  18.783  0.00  0.00    +0.000 N 
ATOM      3  C   UNL     1       3.524   5.149  19.324  0.00  0.00    +0.000 A 
ATOM      4  O   UNL     1       3.336   5.580  20.454  0.00  0.00    +0.000 OA
ATOM      5  N   UNL     1       4.576   5.621  18.598  0.00  0.00    +0.000 NA
ATOM      6  C   UNL     1       4.964   5.189  17.439  0.00  0.00    +0.000 A 
ATOM      7  N   UNL     1       6.107   5.661  16.748  0.00  0.00    +0.000 N 
ATOM      8  C   UNL     1       6.358   5.095  15.442  0.00  0.00    +0.000 A 
ATOM      9  C   UNL     1       7.494   5.399  14.664  0.00  0.00    +0.000 A 
ATOM     10  C   UNL     1       7.657   4.916  13.362  0.00  0.00    +0.000 A 
ATOM     11  C   UNL     1       6.731   4.032  12.832  0.00  0.00    +0.000 A 
ATOM     12  C   UNL     1       5.647   3.638  13.611  0.00  0.00    +0.000 A 
ATOM     13  C   UNL     1       5.449   4.160  14.900  0.00  0.00    +0.000 A 
ATOM     14  N   UNL     1       4.336   3.682  15.604  0.00  0.00    +0.000 NA
ATOM     15  C   UNL     1       4.102   4.134  16.795  0.00  0.00    +0.000 A 
ATOM     16  C   UNL     1       2.906   3.605  17.549  0.00  0.00    +0.000 A 
ATOM     17  O   UNL     1       2.203   2.727  17.059  0.00  0.00    +0.000 OA
ENDROOT
BRANCH   7  18
ATOM     18  C   UNL     1       6.889   6.723  17.350  0.00  0.00    +0.000 A 
ATOM     19  C   UNL     1       7.815   6.470  18.384  0.00  0.00    +0.000 A 
ATOM     20  C   UNL     1       8.531   7.495  19.013  0.00  0.00    +0.000 A 
ATOM     21  C   UNL     1       8.400   8.800  18.562  0.00  0.00    +0.000 A 
ATOM     22 BR   UNL     1       9.381  10.187  19.386  0.00  0.00    +0.000 Br
ATOM     23  C   UNL     1       7.531   9.089  17.518  0.00  0.00    +0.000 A 
ATOM     24  C   UNL     1       6.747   8.069  16.963  0.00  0.00    +0.000 A 
ENDBRANCH   7  18
TORSDOF 1
ENDMDL
MODEL 6
REMARK VINA RESULT:      -6.5      3.440      6.198
REMARK  Name = 
REMARK  2 active torsions:
REMARK  status: ('A' for Active; 'I' for Inactive)
REMARK    1  A    between atoms: C_1  and  N_2
REMARK    2  A    between atoms: N_7  and  C_8
REMARK                            x       y       z     vdW  Elec       q    Type
REMARK                         _______ _______ _______ _____ _____    ______ ____
ROOT
ATOM      1  C   UNL     1       1.141   0.939  19.164  0.00  0.00    +0.000 C 
ATOM      2  N   UNL     1       1.783   2.218  18.926  0.00  0.00    +0.000 N 
ATOM      3  C   UNL     1       1.090   3.375  19.222  0.00  0.00    +0.000 A 
ATOM      4  O   UNL     1      -0.031   3.335  19.710  0.00  0.00    +0.000 OA
ATOM      5  N   UNL     1       1.671   4.586  18.989  0.00  0.00    +0.000 NA
ATOM      6  C   UNL     1       2.885   4.788  18.580  0.00  0.00    +0.000 A 
ATOM      7  N   UNL     1       3.473   6.066  18.416  0.00  0.00    +0.000 N 
ATOM      8  C   UNL     1       4.824   6.100  17.903  0.00  0.00    +0.000 A 
ATOM      9  C   UNL     1       5.576   7.285  17.760  0.00  0.00    +0.000 A 
ATOM     10  C   UNL     1       6.841   7.297  17.164  0.00  0.00    +0.000 A 
ATOM     11  C   UNL     1       7.435   6.106  16.781  0.00  0.00    +0.000 A 
ATOM     12  C   UNL     1       6.758   4.909  16.997  0.00  0.00    +0.000 A 
ATOM     13  C   UNL     1       5.464   4.894  17.545  0.00  0.00    +0.000 A 
ATOM     14  N   UNL     1       4.882   3.634  17.736  0.00  0.00    +0.000 NA
ATOM     15  C   UNL     1       3.689   3.561  18.233  0.00  0.00    +0.000 A 
ATOM     16  C   UNL     1       3.073   2.200  18.445  0.00  0.00    +0.000 A 
ATOM     17  O   UNL     1       3.714   1.184  18.196  0.00  0.00    +0.000 OA
ENDROOT
BRANCH   7  18
ATOM     18  C   UNL     1       2.666   7.239  18.689  0.00  0.00    +0.000 A 
ATOM     19  C   UNL     1       2.182   7.523  19.984  0.00  0.00    +0.000 A 
ATOM     20  C   UNL     1       1.353   8.620  20.248  0.00  0.00    +0.000 A 
ATOM     21  C   UNL     1       1.054   9.514  19.231  0.00  0.00    +0.000 A 
ATOM     22 BR   UNL     1      -0.043  11.010  19.581  0.00  0.00    +0.000 Br
ATOM     23  C   UNL     1       1.543   9.296  17.950  0.00  0.00    +0.000 A 
ATOM     24  C   UNL     1       2.291   8.143  17.677  0.00  0.00    +0.000 A 
ENDBRANCH   7  18
TORSDOF 1
ENDMDL
MODEL 7
REMARK VINA RESULT:      -6.3      6.696     10.999
REMARK  Name = 
REMARK  2 active torsions:
REMARK  status: ('A' for Active; 'I' for Inactive)
REMARK    1  A    between atoms: C_1  and  N_2
REMARK    2  A    between atoms: N_7  and  C_8
REMARK                            x       y       z     vdW  Elec       q    Type
REMARK                         _______ _______ _______ _____ _____    ______ ____
ROOT
ATOM      1  C   UNL     1       0.731   9.630  17.893  0.00  0.00    +0.000 C 
ATOM      2  N   UNL     1      -0.390  10.355  18.460  0.00  0.00    +0.000 N 
ATOM      3  C   UNL     1      -0.199  11.067  19.628  0.00  0.00    +0.000 A 
ATOM      4  O   UNL     1       0.900  11.122  20.164  0.00  0.00    +0.000 OA
ATOM      5  N   UNL     1      -1.245  11.740  20.184  0.00  0.00    +0.000 NA
ATOM      6  C   UNL     1      -2.433  11.864  19.680  0.00  0.00    +0.000 A 
ATOM      7  N   UNL     1      -3.473  12.632  20.259  0.00  0.00    +0.000 N 
ATOM      8  C   UNL     1      -4.750  12.614  19.579  0.00  0.00    +0.000 A 
ATOM      9  C   UNL     1      -5.859  13.387  19.981  0.00  0.00    +0.000 A 
ATOM     10  C   UNL     1      -7.110  13.271  19.367  0.00  0.00    +0.000 A 
ATOM     11  C   UNL     1      -7.264  12.445  18.265  0.00  0.00    +0.000 A 
ATOM     12  C   UNL     1      -6.163  11.741  17.785  0.00  0.00    +0.000 A 
ATOM     13  C   UNL     1      -4.917  11.812  18.430  0.00  0.00    +0.000 A 
ATOM     14  N   UNL     1      -3.873  11.078  17.852  0.00  0.00    +0.000 NA
ATOM     15  C   UNL     1      -2.704  11.102  18.408  0.00  0.00    +0.000 A 
ATOM     16  C   UNL     1      -1.583  10.316  17.774  0.00  0.00    +0.000 A 
ATOM     17  O   UNL     1      -1.768   9.708  16.724  0.00  0.00    +0.000 OA
ENDROOT
BRANCH   7  18
ATOM     18  C   UNL     1      -3.219  13.305  21.517  0.00  0.00    +0.000 A 
ATOM     19  C   UNL     1      -2.677  14.606  21.567  0.00  0.00    +0.000 A 
ATOM     20  C   UNL     1      -2.371  15.242  22.776  0.00  0.00    +0.000 A 
ATOM     21  C   UNL     1      -2.682  14.620  23.976  0.00  0.00    +0.000 A 
ATOM     22 BR   UNL     1      -2.298  15.479  25.613  0.00  0.00    +0.000 Br
ATOM     23  C   UNL     1      -3.256  13.356  23.973  0.00  0.00    +0.000 A 
ATOM     24  C   UNL     1      -3.466  12.689  22.759  0.00  0.00    +0.000 A 
ENDBRANCH   7  18
TORSDOF 1
ENDMDL
MODEL 8
REMARK VINA RESULT:      -6.3      6.660     10.928
REMARK  Name = 
REMARK  2 active torsions:
REMARK  status: ('A' for Active; 'I' for Inactive)
REMARK    1  A    between atoms: C_1  and  N_2
REMARK    2  A    between atoms: N_7  and  C_8
REMARK                            x       y       z     vdW  Elec       q    Type
REMARK                         _______ _______ _______ _____ _____    ______ ____
ROOT
ATOM      1  C   UNL     1       0.956   9.679  18.059  0.00  0.00    +0.000 C 
ATOM      2  N   UNL     1      -0.194  10.390  18.585  0.00  0.00    +0.000 N 
ATOM      3  C   UNL     1      -0.032  11.176  19.709  0.00  0.00    +0.000 A 
ATOM      4  O   UNL     1       1.063  11.306  20.239  0.00  0.00    +0.000 OA
ATOM      5  N   UNL     1      -1.105  11.838  20.227  0.00  0.00    +0.000 NA
ATOM      6  C   UNL     1      -2.297  11.884  19.719  0.00  0.00    +0.000 A 
ATOM      7  N   UNL     1      -3.367  12.642  20.254  0.00  0.00    +0.000 N 
ATOM      8  C   UNL     1      -4.642  12.534  19.579  0.00  0.00    +0.000 A 
ATOM      9  C   UNL     1      -5.781  13.284  19.937  0.00  0.00    +0.000 A 
ATOM     10  C   UNL     1      -7.026  13.081  19.333  0.00  0.00    +0.000 A 
ATOM     11  C   UNL     1      -7.147  12.188  18.281  0.00  0.00    +0.000 A 
ATOM     12  C   UNL     1      -6.018  11.502  17.841  0.00  0.00    +0.000 A 
ATOM     13  C   UNL     1      -4.776  11.660  18.478  0.00  0.00    +0.000 A 
ATOM     14  N   UNL     1      -3.703  10.936  17.942  0.00  0.00    +0.000 NA
ATOM     15  C   UNL     1      -2.536  11.039  18.494  0.00  0.00    +0.000 A 
ATOM     16  C   UNL     1      -1.384  10.263  17.904  0.00  0.00    +0.000 A 
ATOM     17  O   UNL     1      -1.544   9.589  16.892  0.00  0.00    +0.000 OA
ENDROOT
BRANCH   7  18
ATOM     18  C   UNL     1      -3.141  13.396  21.470  0.00  0.00    +0.000 A 
ATOM     19  C   UNL     1      -3.354  12.832  22.745  0.00  0.00    +0.000 A 
ATOM     20  C   UNL     1      -3.196  13.569  23.925  0.00  0.00    +0.000 A 
ATOM     21  C   UNL     1      -2.735  14.876  23.861  0.00  0.00    +0.000 A 
ATOM     22 BR   UNL     1      -2.495  15.872  25.446  0.00  0.00    +0.000 Br
ATOM     23  C   UNL     1      -2.473  15.458  22.627  0.00  0.00    +0.000 A 
ATOM     24  C   UNL     1      -2.728  14.742  21.451  0.00  0.00    +0.000 A 
ENDBRANCH   7  18
TORSDOF 1
ENDMDL
MODEL 9
REMARK VINA RESULT:      -6.2      2.331      4.839
REMARK  Name = 
REMARK  2 active torsions:
REMARK  status: ('A' for Active; 'I' for Inactive)
REMARK    1  A    between atoms: C_1  and  N_2
REMARK    2  A    between atoms: N_7  and  C_8
REMARK                            x       y       z     vdW  Elec       q    Type
REMARK                         _______ _______ _______ _____ _____    ______ ____
ROOT
ATOM      1  C   UNL     1       3.411   1.322  21.867  0.00  0.00    +0.000 C 
ATOM      2  N   UNL     1       3.501   2.448  20.958  0.00  0.00    +0.000 N 
ATOM      3  C   UNL     1       4.324   2.347  19.853  0.00  0.00    +0.000 A 
ATOM      4  O   UNL     1       4.942   1.318  19.616  0.00  0.00    +0.000 OA
ATOM      5  N   UNL     1       4.433   3.401  18.997  0.00  0.00    +0.000 NA
ATOM      6  C   UNL     1       3.763   4.510  19.055  0.00  0.00    +0.000 A 
ATOM      7  N   UNL     1       3.858   5.555  18.104  0.00  0.00    +0.000 N 
ATOM      8  C   UNL     1       3.070   6.740  18.358  0.00  0.00    +0.000 A 
ATOM      9  C   UNL     1       2.992   7.832  17.468  0.00  0.00    +0.000 A 
ATOM     10  C   UNL     1       2.304   9.007  17.790  0.00  0.00    +0.000 A 
ATOM     11  C   UNL     1       1.590   9.087  18.974  0.00  0.00    +0.000 A 
ATOM     12  C   UNL     1       1.570   7.990  19.830  0.00  0.00    +0.000 A 
ATOM     13  C   UNL     1       2.302   6.827  19.539  0.00  0.00    +0.000 A 
ATOM     14  N   UNL     1       2.196   5.776  20.460  0.00  0.00    +0.000 NA
ATOM     15  C   UNL     1       2.854   4.682  20.245  0.00  0.00    +0.000 A 
ATOM     16  C   UNL     1       2.726   3.552  21.236  0.00  0.00    +0.000 A 
ATOM     17  O   UNL     1       1.972   3.653  22.200  0.00  0.00    +0.000 OA
ENDROOT
BRANCH   7  18
ATOM     18  C   UNL     1       4.787   5.405  17.001  0.00  0.00    +0.000 A 
ATOM     19  C   UNL     1       6.038   6.057  16.989  0.00  0.00    +0.000 A 
ATOM     20  C   UNL     1       6.917   5.966  15.903  0.00  0.00    +0.000 A 
ATOM     21  C   UNL     1       6.600   5.146  14.830  0.00  0.00    +0.000 A 
ATOM     22 BR   UNL     1       7.789   4.997  13.372  0.00  0.00    +0.000 Br
ATOM     23  C   UNL     1       5.397   4.453  14.819  0.00  0.00    +0.000 A 
ATOM     24  C   UNL     1       4.483   4.628  15.866  0.00  0.00    +0.000 A 
ENDBRANCH   7  18
TORSDOF 1
ENDMDL
