MODEL 1
REMARK VINA RESULT:      -6.8      0.000      0.000
REMARK  Name = 
REMARK  4 active torsions:
REMARK  status: ('A' for Active; 'I' for Inactive)
REMARK    1  A    between atoms: C_1  and  C_2
REMARK    2  A    between atoms: N_5  and  C_6
REMARK    3  A    between atoms: C_6  and  C_7
REMARK    4  A    between atoms: C_7  and  C_9
REMARK                            x       y       z     vdW  Elec       q    Type
REMARK                         _______ _______ _______ _____ _____    ______ ____
ROOT
ATOM      1  C   UNL     1       4.510   6.114  18.702  0.00  0.00    +0.000 C 
ENDROOT
BRANCH   1   6
ATOM      2  C   UNL     1       6.073   3.910  13.619  0.00  0.00    +0.000 C 
ATOM      3  C   UNL     1       5.768   4.498  14.967  0.00  0.00    +0.000 A 
ATOM      4  C   UNL     1       5.806   3.722  16.124  0.00  0.00    +0.000 A 
ATOM      5  C   UNL     1       5.445   4.282  17.346  0.00  0.00    +0.000 A 
ATOM      6  N   UNL     1       5.050   5.577  17.427  0.00  0.00    +0.000 N 
ATOM      7  C   UNL     1       5.055   6.358  16.321  0.00  0.00    +0.000 A 
ATOM      8  C   UNL     1       5.400   5.837  15.079  0.00  0.00    +0.000 A 
ENDBRANCH   1   6
BRANCH   1   9
ATOM      9  C   UNL     1       3.009   6.225  18.757  0.00  0.00    +0.000 C 
ATOM     10  O   UNL     1       2.440   7.297  18.568  0.00  0.00    +0.000 OA
BRANCH   9  11
ATOM     11  C   UNL     1       2.217   4.994  19.076  0.00  0.00    +0.000 A 
ATOM     12  C   UNL     1       1.820   4.076  18.092  0.00  0.00    +0.000 A 
ATOM     13  C   UNL     1       1.084   2.941  18.445  0.00  0.00    +0.000 A 
ATOM     14  C   UNL     1       0.747   2.709  19.778  0.00  0.00    +0.000 A 
ATOM     15  C   UNL     1       1.138   3.615  20.760  0.00  0.00    +0.000 A 
ATOM     16  C   UNL     1       1.871   4.752  20.412  0.00  0.00    +0.000 A 
ENDBRANCH   9  11
ENDBRANCH   1   9
TORSDOF 3
ENDMDL
MODEL 2
REMARK VINA RESULT:      -6.7      0.391      1.720
REMARK  Name = 
REMARK  4 active torsions:
REMARK  status: ('A' for Active; 'I' for Inactive)
REMARK    1  A    between atoms: C_1  and  C_2
REMARK    2  A    between atoms: N_5  and  C_6
REMARK    3  A    between atoms: C_6  and  C_7
REMARK    4  A    between atoms: C_7  and  C_9
REMARK                            x       y       z     vdW  Elec       q    Type
REMARK                         _______ _______ _______ _____ _____    ______ ____
ROOT
ATOM      1  C   UNL     1       4.618   5.873  18.833  0.00  0.00    +0.000 C 
ENDROOT
BRANCH   1   6
ATOM      2  C   UNL     1       6.322   4.061  13.642  0.00  0.00    +0.000 C 
ATOM      3  C   UNL     1       5.777   4.529  14.962  0.00  0.00    +0.000 A 
ATOM      4  C   UNL     1       5.445   5.865  15.178  0.00  0.00    +0.000 A 
ATOM      5  C   UNL     1       5.014   6.277  16.436  0.00  0.00    +0.000 A 
ATOM      6  N   UNL     1       4.917   5.393  17.460  0.00  0.00    +0.000 N 
ATOM      7  C   UNL     1       5.188   4.083  17.254  0.00  0.00    +0.000 A 
ATOM      8  C   UNL     1       5.630   3.631  16.015  0.00  0.00    +0.000 A 
ENDBRANCH   1   6
BRANCH   1   9
ATOM      9  C   UNL     1       3.153   6.057  19.134  0.00  0.00    +0.000 C 
ATOM     10  O   UNL     1       2.625   7.165  19.089  0.00  0.00    +0.000 OA
BRANCH   9  11
ATOM     11  C   UNL     1       2.350   4.852  19.519  0.00  0.00    +0.000 A 
ATOM     12  C   UNL     1       2.218   4.427  20.849  0.00  0.00    +0.000 A 
ATOM     13  C   UNL     1       1.453   3.296  21.154  0.00  0.00    +0.000 A 
ATOM     14  C   UNL     1       0.812   2.588  20.139  0.00  0.00    +0.000 A 
ATOM     15  C   UNL     1       0.938   3.004  18.816  0.00  0.00    +0.000 A 
ATOM     16  C   UNL     1       1.703   4.131  18.506  0.00  0.00    +0.000 A 
ENDBRANCH   9  11
ENDBRANCH   1   9
TORSDOF 3
ENDMDL
MODEL 3
REMARK VINA RESULT:      -6.7      2.038      2.909
REMARK  Name = 
REMARK  4 active torsions:
REMARK  status: ('A' for Active; 'I' for Inactive)
REMARK    1  A    between atoms: C_1  and  C_2
REMARK    2  A    between atoms: N_5  and  C_6
REMARK    3  A    between atoms: C_6  and  C_7
REMARK    4  A    between atoms: C_7  and  C_9
REMARK                            x       y       z     vdW  Elec       q    Type
REMARK                         _______ _______ _______ _____ _____    ______ ____
ROOT
ATOM      1  C   UNL     1       4.499   3.311  17.129  0.00  0.00    +0.000 C 
ENDROOT
BRANCH   1   6
ATOM      2  C   UNL     1       7.794   8.007  17.609  0.00  0.00    +0.000 C 
ATOM      3  C   UNL     1       6.881   6.815  17.569  0.00  0.00    +0.000 A 
ATOM      4  C   UNL     1       7.115   5.694  18.364  0.00  0.00    +0.000 A 
ATOM      5  C   UNL     1       6.292   4.577  18.247  0.00  0.00    +0.000 A 
ATOM      6  N   UNL     1       5.264   4.563  17.363  0.00  0.00    +0.000 N 
ATOM      7  C   UNL     1       4.993   5.661  16.619  0.00  0.00    +0.000 A 
ATOM      8  C   UNL     1       5.794   6.794  16.699  0.00  0.00    +0.000 A 
ENDBRANCH   1   6
BRANCH   1   9
ATOM      9  C   UNL     1       3.037   3.387  17.487  0.00  0.00    +0.000 C 
ATOM     10  O   UNL     1       2.167   3.403  16.620  0.00  0.00    +0.000 OA
BRANCH   9  11
ATOM     11  C   UNL     1       2.664   3.473  18.936  0.00  0.00    +0.000 A 
ATOM     12  C   UNL     1       1.765   4.431  19.428  0.00  0.00    +0.000 A 
ATOM     13  C   UNL     1       1.449   4.464  20.789  0.00  0.00    +0.000 A 
ATOM     14  C   UNL     1       2.018   3.541  21.665  0.00  0.00    +0.000 A 
ATOM     15  C   UNL     1       2.910   2.586  21.184  0.00  0.00    +0.000 A 
ATOM     16  C   UNL     1       3.232   2.550  19.825  0.00  0.00    +0.000 A 
ENDBRANCH   9  11
ENDBRANCH   1   9
TORSDOF 3
ENDMDL
MODEL 4
REMARK VINA RESULT:      -6.6      2.036      2.914
REMARK  Name = 
REMARK  4 active torsions:
REMARK  status: ('A' for Active; 'I' for Inactive)
REMARK    1  A    between atoms: C_1  and  C_2
REMARK    2  A    between atoms: N_5  and  C_6
REMARK    3  A    between atoms: C_6  and  C_7
REMARK    4  A    between atoms: C_7  and  C_9
REMARK                            x       y       z     vdW  Elec       q    Type
REMARK                         _______ _______ _______ _____ _____    ______ ____
ROOT
ATOM      1  C   UNL     1       4.544   3.352  17.082  0.00  0.00    +0.000 C 
ENDROOT
BRANCH   1   6
ATOM      2  C   UNL     1       7.802   8.069  17.600  0.00  0.00    +0.000 C 
ATOM      3  C   UNL     1       6.906   6.864  17.557  0.00  0.00    +0.000 A 
ATOM      4  C   UNL     1       7.223   5.698  18.250  0.00  0.00    +0.000 A 
ATOM      5  C   UNL     1       6.409   4.575  18.127  0.00  0.00    +0.000 A 
ATOM      6  N   UNL     1       5.309   4.600  17.334  0.00  0.00    +0.000 N 
ATOM      7  C   UNL     1       4.959   5.740  16.694  0.00  0.00    +0.000 A 
ATOM      8  C   UNL     1       5.749   6.881  16.782  0.00  0.00    +0.000 A 
ENDBRANCH   1   6
BRANCH   1   9
ATOM      9  C   UNL     1       3.090   3.412  17.472  0.00  0.00    +0.000 C 
ATOM     10  O   UNL     1       2.199   3.369  16.628  0.00  0.00    +0.000 OA
BRANCH   9  11
ATOM     11  C   UNL     1       2.750   3.552  18.925  0.00  0.00    +0.000 A 
ATOM     12  C   UNL     1       2.881   2.494  19.836  0.00  0.00    +0.000 A 
ATOM     13  C   UNL     1       2.553   2.680  21.182  0.00  0.00    +0.000 A 
ATOM     14  C   UNL     1       2.100   3.921  21.629  0.00  0.00    +0.000 A 
ATOM     15  C   UNL     1       1.968   4.976  20.731  0.00  0.00    +0.000 A 
ATOM     16  C   UNL     1       2.292   4.794  19.384  0.00  0.00    +0.000 A 
ENDBRANCH   9  11
ENDBRANCH   1   9
TORSDOF 3
ENDMDL
MODEL 5
REMARK VINA RESULT:      -6.6      0.710      1.390
REMARK  Name = 
REMARK  4 active torsions:
REMARK  status: ('A' for Active; 'I' for Inactive)
REMARK    1  A    between atoms: C_1  and  C_2
REMARK    2  A    between atoms: N_5  and  C_6
REMARK    3  A    between atoms: C_6  and  C_7
REMARK    4  A    between atoms: C_7  and  C_9
REMARK                            x       y       z     vdW  Elec       q    Type
REMARK                         _______ _______ _______ _____ _____    ______ ____
ROOT
ATOM      1  C   UNL     1       4.744   5.826  19.297  0.00  0.00    +0.000 C 
ENDROOT
BRANCH   1   6
ATOM      2  C   UNL     1       6.741   4.598  14.040  0.00  0.00    +0.000 C 
ATOM      3  C   UNL     1       6.300   4.986  15.423  0.00  0.00    +0.000 A 
ATOM      4  C   UNL     1       6.865   4.401  16.555  0.00  0.00    +0.000 A 
ATOM      5  C   UNL     1       6.380   4.729  17.819  0.00  0.00    +0.000 A 
ATOM      6  N   UNL     1       5.359   5.611  17.963  0.00  0.00    +0.000 N 
ATOM      7  C   UNL     1       4.834   6.225  16.877  0.00  0.00    +0.000 A 
ATOM      8  C   UNL     1       5.283   5.920  15.597  0.00  0.00    +0.000 A 
ENDBRANCH   1   6
BRANCH   1   9
ATOM      9  C   UNL     1       3.250   6.023  19.280  0.00  0.00    +0.000 C 
ATOM     10  O   UNL     1       2.754   7.144  19.196  0.00  0.00    +0.000 OA
BRANCH   9  11
ATOM     11  C   UNL     1       2.373   4.814  19.397  0.00  0.00    +0.000 A 
ATOM     12  C   UNL     1       1.859   4.370  20.624  0.00  0.00    +0.000 A 
ATOM     13  C   UNL     1       1.042   3.237  20.676  0.00  0.00    +0.000 A 
ATOM     14  C   UNL     1       0.726   2.545  19.508  0.00  0.00    +0.000 A 
ATOM     15  C   UNL     1       1.231   2.980  18.285  0.00  0.00    +0.000 A 
ATOM     16  C   UNL     1       2.050   4.110  18.229  0.00  0.00    +0.000 A 
ENDBRANCH   9  11
ENDBRANCH   1   9
TORSDOF 3
ENDMDL
MODEL 6
REMARK VINA RESULT:      -6.5      0.702      1.300
REMARK  Name = 
REMARK  4 active torsions:
REMARK  status: ('A' for Active; 'I' for Inactive)
REMARK    1  A    between atoms: C_1  and  C_2
REMARK    2  A    between atoms: N_5  and  C_6
REMARK    3  A    between atoms: C_6  and  C_7
REMARK    4  A    between atoms: C_7  and  C_9
REMARK                            x       y       z     vdW  Elec       q    Type
REMARK                         _______ _______ _______ _____ _____    ______ ____
ROOT
ATOM      1  C   UNL     1       4.641   5.885  19.186  0.00  0.00    +0.000 C 
ENDROOT
BRANCH   1   6
ATOM      2  C   UNL     1       7.081   4.795  14.088  0.00  0.00    +0.000 C 
ATOM      3  C   UNL     1       6.369   5.009  15.393  0.00  0.00    +0.000 A 
ATOM      4  C   UNL     1       5.274   5.866  15.492  0.00  0.00    +0.000 A 
ATOM      5  C   UNL     1       4.686   6.098  16.733  0.00  0.00    +0.000 A 
ATOM      6  N   UNL     1       5.169   5.503  17.852  0.00  0.00    +0.000 N 
ATOM      7  C   UNL     1       6.200   4.629  17.765  0.00  0.00    +0.000 A 
ATOM      8  C   UNL     1       6.821   4.375  16.548  0.00  0.00    +0.000 A 
ENDBRANCH   1   6
BRANCH   1   9
ATOM      9  C   UNL     1       3.144   6.040  19.253  0.00  0.00    +0.000 C 
ATOM     10  O   UNL     1       2.617   7.149  19.283  0.00  0.00    +0.000 OA
BRANCH   9  11
ATOM     11  C   UNL     1       2.303   4.801  19.312  0.00  0.00    +0.000 A 
ATOM     12  C   UNL     1       1.996   4.043  18.171  0.00  0.00    +0.000 A 
ATOM     13  C   UNL     1       1.210   2.893  18.282  0.00  0.00    +0.000 A 
ATOM     14  C   UNL     1       0.732   2.487  19.527  0.00  0.00    +0.000 A 
ATOM     15  C   UNL     1       1.032   3.233  20.663  0.00  0.00    +0.000 A 
ATOM     16  C   UNL     1       1.816   4.385  20.558  0.00  0.00    +0.000 A 
ENDBRANCH   9  11
ENDBRANCH   1   9
TORSDOF 3
ENDMDL
MODEL 7
REMARK VINA RESULT:      -6.5      1.985      2.372
REMARK  Name = 
REMARK  4 active torsions:
REMARK  status: ('A' for Active; 'I' for Inactive)
REMARK    1  A    between atoms: C_1  and  C_2
REMARK    2  A    between atoms: N_5  and  C_6
REMARK    3  A    between atoms: C_6  and  C_7
REMARK    4  A    between atoms: C_7  and  C_9
REMARK                            x       y       z     vdW  Elec       q    Type
REMARK                         _______ _______ _______ _____ _____    ______ ____
ROOT
ATOM      1  C   UNL     1       5.217   4.697  19.348  0.00  0.00    +0.000 C 
ENDROOT
BRANCH   1   6
ATOM      2  C   UNL     1       6.849   4.604  13.829  0.00  0.00    +0.000 C 
ATOM      3  C   UNL     1       6.453   4.729  15.273  0.00  0.00    +0.000 A 
ATOM      4  C   UNL     1       7.390   4.605  16.297  0.00  0.00    +0.000 A 
ATOM      5  C   UNL     1       6.976   4.652  17.625  0.00  0.00    +0.000 A 
ATOM      6  N   UNL     1       5.666   4.814  17.938  0.00  0.00    +0.000 N 
ATOM      7  C   UNL     1       4.750   4.986  16.956  0.00  0.00    +0.000 A 
ATOM      8  C   UNL     1       5.120   4.937  15.616  0.00  0.00    +0.000 A 
ENDBRANCH   1   6
BRANCH   1   9
ATOM      9  C   UNL     1       4.562   3.386  19.697  0.00  0.00    +0.000 C 
ATOM     10  O   UNL     1       5.228   2.391  19.972  0.00  0.00    +0.000 OA
BRANCH   9  11
ATOM     11  C   UNL     1       3.065   3.311  19.673  0.00  0.00    +0.000 A 
ATOM     12  C   UNL     1       2.256   4.148  20.457  0.00  0.00    +0.000 A 
ATOM     13  C   UNL     1       0.864   4.038  20.394  0.00  0.00    +0.000 A 
ATOM     14  C   UNL     1       0.270   3.102  19.548  0.00  0.00    +0.000 A 
ATOM     15  C   UNL     1       1.067   2.269  18.767  0.00  0.00    +0.000 A 
ATOM     16  C   UNL     1       2.459   2.373  18.828  0.00  0.00    +0.000 A 
ENDBRANCH   9  11
ENDBRANCH   1   9
TORSDOF 3
ENDMDL
MODEL 8
REMARK VINA RESULT:      -6.5      1.961      6.230
REMARK  Name = 
REMARK  4 active torsions:
REMARK  status: ('A' for Active; 'I' for Inactive)
REMARK    1  A    between atoms: C_1  and  C_2
REMARK    2  A    between atoms: N_5  and  C_6
REMARK    3  A    between atoms: C_6  and  C_7
REMARK    4  A    between atoms: C_7  and  C_9
REMARK                            x       y       z     vdW  Elec       q    Type
REMARK                         _______ _______ _______ _____ _____    ______ ____
ROOT
ATOM      1  C   UNL     1       5.170   5.683  16.532  0.00  0.00    +0.000 C 
ENDROOT
BRANCH   1   6
ATOM      2  C   UNL     1       0.882   2.533  18.727  0.00  0.00    +0.000 C 
ATOM      3  C   UNL     1       2.040   3.363  18.252  0.00  0.00    +0.000 A 
ATOM      4  C   UNL     1       2.018   4.755  18.334  0.00  0.00    +0.000 A 
ATOM      5  C   UNL     1       3.076   5.496  17.815  0.00  0.00    +0.000 A 
ATOM      6  N   UNL     1       4.131   4.880  17.226  0.00  0.00    +0.000 N 
ATOM      7  C   UNL     1       4.192   3.529  17.183  0.00  0.00    +0.000 A 
ATOM      8  C   UNL     1       3.152   2.751  17.682  0.00  0.00    +0.000 A 
ENDBRANCH   1   6
BRANCH   1   9
ATOM      9  C   UNL     1       6.390   4.907  16.107  0.00  0.00    +0.000 C 
ATOM     10  O   UNL     1       7.226   4.532  16.925  0.00  0.00    +0.000 OA
BRANCH   9  11
ATOM     11  C   UNL     1       6.579   4.624  14.648  0.00  0.00    +0.000 A 
ATOM     12  C   UNL     1       5.796   3.691  13.952  0.00  0.00    +0.000 A 
ATOM     13  C   UNL     1       6.013   3.468  12.590  0.00  0.00    +0.000 A 
ATOM     14  C   UNL     1       7.003   4.176  11.911  0.00  0.00    +0.000 A 
ATOM     15  C   UNL     1       7.784   5.104  12.594  0.00  0.00    +0.000 A 
ATOM     16  C   UNL     1       7.573   5.330  13.956  0.00  0.00    +0.000 A 
ENDBRANCH   9  11
ENDBRANCH   1   9
TORSDOF 3
ENDMDL
MODEL 9
REMARK VINA RESULT:      -6.4      1.903      1.993
REMARK  Name = 
REMARK  4 active torsions:
REMARK  status: ('A' for Active; 'I' for Inactive)
REMARK    1  A    between atoms: C_1  and  C_2
REMARK    2  A    between atoms: N_5  and  C_6
REMARK    3  A    between atoms: C_6  and  C_7
REMARK    4  A    between atoms: C_7  and  C_9
REMARK                            x       y       z     vdW  Elec       q    Type
REMARK                         _______ _______ _______ _____ _____    ______ ____
ROOT
ATOM      1  C   UNL     1       5.142   4.822  19.105  0.00  0.00    +0.000 C 
ENDROOT
BRANCH   1   6
ATOM      2  C   UNL     1       6.853   4.500  13.618  0.00  0.00    +0.000 C 
ATOM      3  C   UNL     1       6.444   4.683  15.052  0.00  0.00    +0.000 A 
ATOM      4  C   UNL     1       7.352   4.510  16.095  0.00  0.00    +0.000 A 
ATOM      5  C   UNL     1       6.921   4.614  17.414  0.00  0.00    +0.000 A 
ATOM      6  N   UNL     1       5.622   4.878  17.701  0.00  0.00    +0.000 N 
ATOM      7  C   UNL     1       4.737   5.098  16.700  0.00  0.00    +0.000 A 
ATOM      8  C   UNL     1       5.124   4.996  15.368  0.00  0.00    +0.000 A 
ENDBRANCH   1   6
BRANCH   1   9
ATOM      9  C   UNL     1       4.544   3.502  19.517  0.00  0.00    +0.000 C 
ATOM     10  O   UNL     1       5.252   2.566  19.881  0.00  0.00    +0.000 OA
BRANCH   9  11
ATOM     11  C   UNL     1       3.056   3.344  19.448  0.00  0.00    +0.000 A 
ATOM     12  C   UNL     1       2.432   2.468  18.547  0.00  0.00    +0.000 A 
ATOM     13  C   UNL     1       1.038   2.356  18.526  0.00  0.00    +0.000 A 
ATOM     14  C   UNL     1       0.261   3.108  19.406  0.00  0.00    +0.000 A 
ATOM     15  C   UNL     1       0.873   3.978  20.303  0.00  0.00    +0.000 A 
ATOM     16  C   UNL     1       2.265   4.096  20.326  0.00  0.00    +0.000 A 
ENDBRANCH   9  11
ENDBRANCH   1   9
TORSDOF 3
ENDMDL
