MODEL 1
REMARK VINA RESULT:      -4.6      0.000      0.000
REMARK  Name = 
REMARK  1 active torsions:
REMARK  status: ('A' for Active; 'I' for Inactive)
REMARK    1  A    between atoms: O_1  and  C_2
REMARK                            x       y       z     vdW  Elec       q    Type
REMARK                         _______ _______ _______ _____ _____    ______ ____
ROOT
ATOM      1  C   UNL     1       3.880   2.668  19.782  0.00  0.00    +0.000 C 
ATOM      2  C   UNL     1       3.277   2.113  18.497  0.00  0.00    +0.000 C 
ATOM      3  C   UNL     1       1.974   2.773  18.056  0.00  0.00    +0.000 C 
ATOM      4  C   UNL     1       0.796   2.417  18.961  0.00  0.00    +0.000 C 
ATOM      5  N   UNL     1       0.620   3.242  20.149  0.00  0.00    +0.000 NA
ATOM      6  C   UNL     1       1.815   3.668  20.864  0.00  0.00    +0.000 C 
ATOM      7  C   UNL     1       2.943   2.648  20.986  0.00  0.00    +0.000 C 
ATOM      8  H   UNL     1      -0.012   2.763  20.791  0.00  0.00    +0.000 HD
ENDROOT
BRANCH   1   9
ATOM      9  O   UNL     1       5.029   1.880  20.113  0.00  0.00    +0.000 OA
ATOM     10  H   UNL     1       5.191   1.275  19.370  0.00  0.00    +0.000 HD
ENDBRANCH   1   9
TORSDOF 1
ENDMDL
MODEL 2
REMARK VINA RESULT:      -4.5      2.544      3.069
REMARK  Name = 
REMARK  1 active torsions:
REMARK  status: ('A' for Active; 'I' for Inactive)
REMARK    1  A    between atoms: O_1  and  C_2
REMARK                            x       y       z     vdW  Elec       q    Type
REMARK                         _______ _______ _______ _____ _____    ______ ____
ROOT
ATOM      1  C   UNL     1       1.339   2.986  18.990  0.00  0.00    +0.000 C 
ATOM      2  C   UNL     1       1.642   4.101  17.995  0.00  0.00    +0.000 C 
ATOM      3  C   UNL     1       2.739   5.071  18.424  0.00  0.00    +0.000 C 
ATOM      4  C   UNL     1       2.305   5.982  19.572  0.00  0.00    +0.000 C 
ATOM      5  N   UNL     1       2.473   5.453  20.918  0.00  0.00    +0.000 NA
ATOM      6  C   UNL     1       2.185   4.042  21.135  0.00  0.00    +0.000 C 
ATOM      7  C   UNL     1       0.984   3.464  20.394  0.00  0.00    +0.000 C 
ATOM      8  H   UNL     1       1.924   6.019  21.565  0.00  0.00    +0.000 HD
ENDROOT
BRANCH   1   9
ATOM      9  O   UNL     1       0.227   2.234  18.492  0.00  0.00    +0.000 OA
ATOM     10  H   UNL     1      -0.569   2.780  18.609  0.00  0.00    +0.000 HD
ENDBRANCH   1   9
TORSDOF 1
ENDMDL
MODEL 3
REMARK VINA RESULT:      -4.5      2.511      3.080
REMARK  Name = 
REMARK  1 active torsions:
REMARK  status: ('A' for Active; 'I' for Inactive)
REMARK    1  A    between atoms: O_1  and  C_2
REMARK                            x       y       z     vdW  Elec       q    Type
REMARK                         _______ _______ _______ _____ _____    ______ ____
ROOT
ATOM      1  C   UNL     1       1.709   2.705  19.611  0.00  0.00    +0.000 C 
ATOM      2  C   UNL     1       1.797   3.445  18.281  0.00  0.00    +0.000 C 
ATOM      3  C   UNL     1       3.076   3.199  17.487  0.00  0.00    +0.000 C 
ATOM      4  C   UNL     1       4.301   3.854  18.124  0.00  0.00    +0.000 C 
ATOM      5  N   UNL     1       4.986   3.083  19.152  0.00  0.00    +0.000 NA
ATOM      6  C   UNL     1       4.171   2.312  20.081  0.00  0.00    +0.000 C 
ATOM      7  C   UNL     1       2.876   2.961  20.560  0.00  0.00    +0.000 C 
ATOM      8  H   UNL     1       5.604   3.706  19.674  0.00  0.00    +0.000 HD
ENDROOT
BRANCH   1   9
ATOM      9  O   UNL     1       0.511   3.121  20.275  0.00  0.00    +0.000 OA
ATOM     10  H   UNL     1       0.014   3.682  19.655  0.00  0.00    +0.000 HD
ENDBRANCH   1   9
TORSDOF 1
ENDMDL
MODEL 4
REMARK VINA RESULT:      -4.4      0.897      2.306
REMARK  Name = 
REMARK  1 active torsions:
REMARK  status: ('A' for Active; 'I' for Inactive)
REMARK    1  A    between atoms: O_1  and  C_2
REMARK                            x       y       z     vdW  Elec       q    Type
REMARK                         _______ _______ _______ _____ _____    ______ ____
ROOT
ATOM      1  C   UNL     1       3.192   2.000  18.783  0.00  0.00    +0.000 C 
ATOM      2  C   UNL     1       3.725   2.579  20.089  0.00  0.00    +0.000 C 
ATOM      3  C   UNL     1       2.700   2.689  21.214  0.00  0.00    +0.000 C 
ATOM      4  C   UNL     1       1.660   3.779  20.959  0.00  0.00    +0.000 C 
ATOM      5  N   UNL     1       0.502   3.396  20.163  0.00  0.00    +0.000 NA
ATOM      6  C   UNL     1       0.719   2.503  19.034  0.00  0.00    +0.000 C 
ATOM      7  C   UNL     1       1.982   2.731  18.210  0.00  0.00    +0.000 C 
ATOM      8  H   UNL     1       0.026   4.241  19.846  0.00  0.00    +0.000 HD
ENDROOT
BRANCH   1   9
ATOM      9  O   UNL     1       4.239   2.062  17.808  0.00  0.00    +0.000 OA
ATOM     10  H   UNL     1       3.821   2.190  16.939  0.00  0.00    +0.000 HD
ENDBRANCH   1   9
TORSDOF 1
ENDMDL
MODEL 5
REMARK VINA RESULT:      -4.4      2.085      2.814
REMARK  Name = 
REMARK  1 active torsions:
REMARK  status: ('A' for Active; 'I' for Inactive)
REMARK    1  A    between atoms: O_1  and  C_2
REMARK                            x       y       z     vdW  Elec       q    Type
REMARK                         _______ _______ _______ _____ _____    ______ ____
ROOT
ATOM      1  C   UNL     1       3.070   4.476  19.999  0.00  0.00    +0.000 C 
ATOM      2  C   UNL     1       1.575   4.410  20.292  0.00  0.00    +0.000 C 
ATOM      3  C   UNL     1       0.963   3.013  20.222  0.00  0.00    +0.000 C 
ATOM      4  C   UNL     1       0.878   2.477  18.794  0.00  0.00    +0.000 C 
ATOM      5  N   UNL     1       2.064   1.805  18.283  0.00  0.00    +0.000 NA
ATOM      6  C   UNL     1       3.364   2.357  18.636  0.00  0.00    +0.000 C 
ATOM      7  C   UNL     1       3.482   3.877  18.657  0.00  0.00    +0.000 C 
ATOM      8  H   UNL     1       1.987   1.728  17.268  0.00  0.00    +0.000 HD
ENDROOT
BRANCH   1   9
ATOM      9  O   UNL     1       3.464   5.852  20.000  0.00  0.00    +0.000 OA
ATOM     10  H   UNL     1       3.082   6.264  20.793  0.00  0.00    +0.000 HD
ENDBRANCH   1   9
TORSDOF 1
ENDMDL
MODEL 6
REMARK VINA RESULT:      -4.4      2.436      3.167
REMARK  Name = 
REMARK  1 active torsions:
REMARK  status: ('A' for Active; 'I' for Inactive)
REMARK    1  A    between atoms: O_1  and  C_2
REMARK                            x       y       z     vdW  Elec       q    Type
REMARK                         _______ _______ _______ _____ _____    ______ ____
ROOT
ATOM      1  C   UNL     1       1.715   3.953  18.021  0.00  0.00    +0.000 C 
ATOM      2  C   UNL     1       1.288   2.958  19.095  0.00  0.00    +0.000 C 
ATOM      3  C   UNL     1       0.908   3.577  20.436  0.00  0.00    +0.000 C 
ATOM      4  C   UNL     1       2.114   4.132  21.193  0.00  0.00    +0.000 C 
ATOM      5  N   UNL     1       2.515   5.493  20.865  0.00  0.00    +0.000 NA
ATOM      6  C   UNL     1       2.445   5.904  19.470  0.00  0.00    +0.000 C 
ATOM      7  C   UNL     1       2.864   4.872  18.427  0.00  0.00    +0.000 C 
ATOM      8  H   UNL     1       3.456   5.654  21.224  0.00  0.00    +0.000 HD
ENDROOT
BRANCH   1   9
ATOM      9  O   UNL     1       2.137   3.214  16.870  0.00  0.00    +0.000 OA
ATOM     10  H   UNL     1       2.909   2.684  17.131  0.00  0.00    +0.000 HD
ENDBRANCH   1   9
TORSDOF 1
ENDMDL
MODEL 7
REMARK VINA RESULT:      -4.3      1.164      2.228
REMARK  Name = 
REMARK  1 active torsions:
REMARK  status: ('A' for Active; 'I' for Inactive)
REMARK    1  A    between atoms: O_1  and  C_2
REMARK                            x       y       z     vdW  Elec       q    Type
REMARK                         _______ _______ _______ _____ _____    ______ ____
ROOT
ATOM      1  C   UNL     1       3.849   2.153  19.605  0.00  0.00    +0.000 C 
ATOM      2  C   UNL     1       2.966   2.729  20.706  0.00  0.00    +0.000 C 
ATOM      3  C   UNL     1       1.481   2.815  20.366  0.00  0.00    +0.000 C 
ATOM      4  C   UNL     1       1.175   3.892  19.326  0.00  0.00    +0.000 C 
ATOM      5  N   UNL     1       1.304   3.499  17.930  0.00  0.00    +0.000 NA
ATOM      6  C   UNL     1       2.406   2.618  17.570  0.00  0.00    +0.000 C 
ATOM      7  C   UNL     1       3.741   2.871  18.262  0.00  0.00    +0.000 C 
ATOM      8  H   UNL     1       1.334   4.340  17.353  0.00  0.00    +0.000 HD
ENDROOT
BRANCH   1   9
ATOM      9  O   UNL     1       5.211   2.238  20.035  0.00  0.00    +0.000 OA
ATOM     10  H   UNL     1       5.773   2.066  19.260  0.00  0.00    +0.000 HD
ENDBRANCH   1   9
TORSDOF 1
ENDMDL
MODEL 8
REMARK VINA RESULT:      -4.3      1.824      2.579
REMARK  Name = 
REMARK  1 active torsions:
REMARK  status: ('A' for Active; 'I' for Inactive)
REMARK    1  A    between atoms: O_1  and  C_2
REMARK                            x       y       z     vdW  Elec       q    Type
REMARK                         _______ _______ _______ _____ _____    ______ ____
ROOT
ATOM      1  C   UNL     1       4.146   2.334  19.671  0.00  0.00    +0.000 C 
ATOM      2  C   UNL     1       4.681   3.721  19.330  0.00  0.00    +0.000 C 
ATOM      3  C   UNL     1       3.655   4.681  18.737  0.00  0.00    +0.000 C 
ATOM      4  C   UNL     1       3.247   4.304  17.313  0.00  0.00    +0.000 C 
ATOM      5  N   UNL     1       2.169   3.333  17.184  0.00  0.00    +0.000 NA
ATOM      6  C   UNL     1       2.135   2.225  18.128  0.00  0.00    +0.000 C 
ATOM      7  C   UNL     1       3.476   1.606  18.509  0.00  0.00    +0.000 C 
ATOM      8  H   UNL     1       2.164   2.972  16.230  0.00  0.00    +0.000 HD
ENDROOT
BRANCH   1   9
ATOM      9  O   UNL     1       5.244   1.529  20.113  0.00  0.00    +0.000 OA
ATOM     10  H   UNL     1       4.936   0.607  20.143  0.00  0.00    +0.000 HD
ENDBRANCH   1   9
TORSDOF 1
ENDMDL
MODEL 9
REMARK VINA RESULT:      -4.3      2.491      3.566
REMARK  Name = 
REMARK  1 active torsions:
REMARK  status: ('A' for Active; 'I' for Inactive)
REMARK    1  A    between atoms: O_1  and  C_2
REMARK                            x       y       z     vdW  Elec       q    Type
REMARK                         _______ _______ _______ _____ _____    ______ ____
ROOT
ATOM      1  C   UNL     1       1.482   2.627  18.729  0.00  0.00    +0.000 C 
ATOM      2  C   UNL     1       1.668   2.430  20.230  0.00  0.00    +0.000 C 
ATOM      3  C   UNL     1       2.933   3.054  20.812  0.00  0.00    +0.000 C 
ATOM      4  C   UNL     1       4.204   2.321  20.387  0.00  0.00    +0.000 C 
ATOM      5  N   UNL     1       4.789   2.722  19.115  0.00  0.00    +0.000 NA
ATOM      6  C   UNL     1       3.883   3.031  18.018  0.00  0.00    +0.000 C 
ATOM      7  C   UNL     1       2.650   2.145  17.874  0.00  0.00    +0.000 C 
ATOM      8  H   UNL     1       5.455   2.008  18.820  0.00  0.00    +0.000 HD
ENDROOT
BRANCH   1   9
ATOM      9  O   UNL     1       0.318   1.898  18.325  0.00  0.00    +0.000 OA
ATOM     10  H   UNL     1      -0.458   2.434  18.561  0.00  0.00    +0.000 HD
ENDBRANCH   1   9
TORSDOF 1
ENDMDL
