MODEL 1
REMARK VINA RESULT:      -6.1      0.000      0.000
REMARK  Name = 
REMARK  1 active torsions:
REMARK  status: ('A' for Active; 'I' for Inactive)
REMARK    1  A    between atoms: C_1  and  N_2
REMARK                            x       y       z     vdW  Elec       q    Type
REMARK                         _______ _______ _______ _____ _____    ______ ____
ROOT
ATOM      1  C   UNL     1       7.787   8.262  17.520  0.00  0.00    +0.000 C 
ATOM      2  N   UNL     1       7.616   6.959  16.918  0.00  0.00    +0.000 N 
ATOM      3  C   UNL     1       6.473   6.279  17.168  0.00  0.00    +0.000 A 
ATOM      4  N   UNL     1       5.324   6.819  17.489  0.00  0.00    +0.000 NA
ATOM      5  C   UNL     1       4.348   5.843  17.664  0.00  0.00    +0.000 A 
ATOM      6  C   UNL     1       2.984   6.010  17.984  0.00  0.00    +0.000 A 
ATOM      7 CL   UNL     1       2.432   7.620  18.158  0.00  0.00    +0.000 Cl
ATOM      8  C   UNL     1       2.122   4.926  18.144  0.00  0.00    +0.000 A 
ATOM      9  C   UNL     1       2.624   3.641  17.992  0.00  0.00    +0.000 A 
ATOM     10 CL   UNL     1       1.574   2.292  18.197  0.00  0.00    +0.000 Cl
ATOM     11  C   UNL     1       3.965   3.416  17.671  0.00  0.00    +0.000 A 
ATOM     12  C   UNL     1       4.806   4.531  17.502  0.00  0.00    +0.000 A 
ATOM     13  S   UNL     1       6.472   4.562  17.080  0.00  0.00    +0.000 S 
ATOM     14  H   UNL     1       8.463   6.403  16.865  0.00  0.00    +0.000 HD
ENDROOT
TORSDOF 0
ENDMDL
MODEL 2
REMARK VINA RESULT:      -5.9      1.005      1.034
REMARK  Name = 
REMARK  1 active torsions:
REMARK  status: ('A' for Active; 'I' for Inactive)
REMARK    1  A    between atoms: C_1  and  N_2
REMARK                            x       y       z     vdW  Elec       q    Type
REMARK                         _______ _______ _______ _____ _____    ______ ____
ROOT
ATOM      1  C   UNL     1       7.440   7.414  17.398  0.00  0.00    +0.000 C 
ATOM      2  N   UNL     1       6.852   6.377  16.580  0.00  0.00    +0.000 N 
ATOM      3  C   UNL     1       5.722   5.774  17.019  0.00  0.00    +0.000 A 
ATOM      4  N   UNL     1       4.844   6.307  17.831  0.00  0.00    +0.000 NA
ATOM      5  C   UNL     1       3.792   5.429  18.071  0.00  0.00    +0.000 A 
ATOM      6  C   UNL     1       2.640   5.631  18.861  0.00  0.00    +0.000 A 
ATOM      7 CL   UNL     1       2.486   7.162  19.609  0.00  0.00    +0.000 Cl
ATOM      8  C   UNL     1       1.669   4.643  19.022  0.00  0.00    +0.000 A 
ATOM      9  C   UNL     1       1.846   3.419  18.392  0.00  0.00    +0.000 A 
ATOM     10 CL   UNL     1       0.661   2.186  18.590  0.00  0.00    +0.000 Cl
ATOM     11  C   UNL     1       2.965   3.165  17.594  0.00  0.00    +0.000 A 
ATOM     12  C   UNL     1       3.920   4.187  17.440  0.00  0.00    +0.000 A 
ATOM     13  S   UNL     1       5.363   4.173  16.507  0.00  0.00    +0.000 S 
ATOM     14  H   UNL     1       7.521   5.779  16.109  0.00  0.00    +0.000 HD
ENDROOT
TORSDOF 0
ENDMDL
MODEL 3
REMARK VINA RESULT:      -5.8      3.431      4.878
REMARK  Name = 
REMARK  1 active torsions:
REMARK  status: ('A' for Active; 'I' for Inactive)
REMARK    1  A    between atoms: C_1  and  N_2
REMARK                            x       y       z     vdW  Elec       q    Type
REMARK                         _______ _______ _______ _____ _____    ______ ____
ROOT
ATOM      1  C   UNL     1       2.209   4.180  21.203  0.00  0.00    +0.000 C 
ATOM      2  N   UNL     1       2.281   3.396  19.990  0.00  0.00    +0.000 N 
ATOM      3  C   UNL     1       3.242   3.696  19.085  0.00  0.00    +0.000 A 
ATOM      4  N   UNL     1       4.384   4.276  19.355  0.00  0.00    +0.000 NA
ATOM      5  C   UNL     1       5.148   4.427  18.203  0.00  0.00    +0.000 A 
ATOM      6  C   UNL     1       6.443   4.975  18.071  0.00  0.00    +0.000 A 
ATOM      7 CL   UNL     1       7.197   5.506  19.513  0.00  0.00    +0.000 Cl
ATOM      8  C   UNL     1       7.083   5.075  16.837  0.00  0.00    +0.000 A 
ATOM      9  C   UNL     1       6.423   4.629  15.701  0.00  0.00    +0.000 A 
ATOM     10 CL   UNL     1       7.197   4.756  14.168  0.00  0.00    +0.000 Cl
ATOM     11  C   UNL     1       5.143   4.074  15.771  0.00  0.00    +0.000 A 
ATOM     12  C   UNL     1       4.529   3.974  17.034  0.00  0.00    +0.000 A 
ATOM     13  S   UNL     1       2.992   3.315  17.428  0.00  0.00    +0.000 S 
ATOM     14  H   UNL     1       1.382   3.120  19.611  0.00  0.00    +0.000 HD
ENDROOT
TORSDOF 0
ENDMDL
MODEL 4
REMARK VINA RESULT:      -5.8      2.258      3.343
REMARK  Name = 
REMARK  1 active torsions:
REMARK  status: ('A' for Active; 'I' for Inactive)
REMARK    1  A    between atoms: C_1  and  N_2
REMARK                            x       y       z     vdW  Elec       q    Type
REMARK                         _______ _______ _______ _____ _____    ______ ____
ROOT
ATOM      1  C   UNL     1       6.351   4.062  13.801  0.00  0.00    +0.000 C 
ATOM      2  N   UNL     1       6.401   5.140  14.762  0.00  0.00    +0.000 N 
ATOM      3  C   UNL     1       5.540   5.113  15.806  0.00  0.00    +0.000 A 
ATOM      4  N   UNL     1       4.998   4.034  16.315  0.00  0.00    +0.000 NA
ATOM      5  C   UNL     1       4.171   4.352  17.387  0.00  0.00    +0.000 A 
ATOM      6  C   UNL     1       3.433   3.482  18.217  0.00  0.00    +0.000 A 
ATOM      7 CL   UNL     1       3.581   1.808  17.893  0.00  0.00    +0.000 Cl
ATOM      8  C   UNL     1       2.628   3.952  19.254  0.00  0.00    +0.000 A 
ATOM      9  C   UNL     1       2.545   5.320  19.472  0.00  0.00    +0.000 A 
ATOM     10 CL   UNL     1       1.547   5.916  20.742  0.00  0.00    +0.000 Cl
ATOM     11  C   UNL     1       3.257   6.228  18.684  0.00  0.00    +0.000 A 
ATOM     12  C   UNL     1       4.071   5.722  17.655  0.00  0.00    +0.000 A 
ATOM     13  S   UNL     1       5.075   6.586  16.560  0.00  0.00    +0.000 S 
ATOM     14  H   UNL     1       6.590   6.053  14.364  0.00  0.00    +0.000 HD
ENDROOT
TORSDOF 0
ENDMDL
MODEL 5
REMARK VINA RESULT:      -5.7      3.047      4.593
REMARK  Name = 
REMARK  1 active torsions:
REMARK  status: ('A' for Active; 'I' for Inactive)
REMARK    1  A    between atoms: C_1  and  N_2
REMARK                            x       y       z     vdW  Elec       q    Type
REMARK                         _______ _______ _______ _____ _____    ______ ____
ROOT
ATOM      1  C   UNL     1       0.869   3.740  20.413  0.00  0.00    +0.000 C 
ATOM      2  N   UNL     1       2.055   3.001  20.041  0.00  0.00    +0.000 N 
ATOM      3  C   UNL     1       2.844   3.500  19.061  0.00  0.00    +0.000 A 
ATOM      4  N   UNL     1       2.937   4.764  18.731  0.00  0.00    +0.000 NA
ATOM      5  C   UNL     1       3.846   4.940  17.693  0.00  0.00    +0.000 A 
ATOM      6  C   UNL     1       4.251   6.142  17.073  0.00  0.00    +0.000 A 
ATOM      7 CL   UNL     1       3.562   7.585  17.682  0.00  0.00    +0.000 Cl
ATOM      8  C   UNL     1       5.169   6.162  16.024  0.00  0.00    +0.000 A 
ATOM      9  C   UNL     1       5.695   4.961  15.570  0.00  0.00    +0.000 A 
ATOM     10 CL   UNL     1       6.822   4.968  14.268  0.00  0.00    +0.000 Cl
ATOM     11  C   UNL     1       5.334   3.741  16.149  0.00  0.00    +0.000 A 
ATOM     12  C   UNL     1       4.416   3.756  17.215  0.00  0.00    +0.000 A 
ATOM     13  S   UNL     1       3.818   2.431  18.132  0.00  0.00    +0.000 S 
ATOM     14  H   UNL     1       1.947   1.993  20.057  0.00  0.00    +0.000 HD
ENDROOT
TORSDOF 0
ENDMDL
MODEL 6
REMARK VINA RESULT:      -5.6      4.411      5.118
REMARK  Name = 
REMARK  1 active torsions:
REMARK  status: ('A' for Active; 'I' for Inactive)
REMARK    1  A    between atoms: C_1  and  N_2
REMARK                            x       y       z     vdW  Elec       q    Type
REMARK                         _______ _______ _______ _____ _____    ______ ____
ROOT
ATOM      1  C   UNL     1       7.689   7.489  17.804  0.00  0.00    +0.000 C 
ATOM      2  N   UNL     1       7.068   6.183  17.777  0.00  0.00    +0.000 N 
ATOM      3  C   UNL     1       6.857   5.595  16.576  0.00  0.00    +0.000 A 
ATOM      4  N   UNL     1       7.546   5.828  15.486  0.00  0.00    +0.000 NA
ATOM      5  C   UNL     1       7.082   5.049  14.431  0.00  0.00    +0.000 A 
ATOM      6  C   UNL     1       7.568   4.980  13.107  0.00  0.00    +0.000 A 
ATOM      7 CL   UNL     1       8.923   5.960  12.740  0.00  0.00    +0.000 Cl
ATOM      8  C   UNL     1       6.987   4.156  12.145  0.00  0.00    +0.000 A 
ATOM      9  C   UNL     1       5.890   3.383  12.499  0.00  0.00    +0.000 A 
ATOM     10 CL   UNL     1       5.154   2.368  11.319  0.00  0.00    +0.000 Cl
ATOM     11  C   UNL     1       5.368   3.407  13.795  0.00  0.00    +0.000 A 
ATOM     12  C   UNL     1       5.986   4.239  14.747  0.00  0.00    +0.000 A 
ATOM     13  S   UNL     1       5.589   4.448  16.406  0.00  0.00    +0.000 S 
ATOM     14  H   UNL     1       6.345   6.044  18.474  0.00  0.00    +0.000 HD
ENDROOT
TORSDOF 0
ENDMDL
MODEL 7
REMARK VINA RESULT:      -5.4      2.909      3.455
REMARK  Name = 
REMARK  1 active torsions:
REMARK  status: ('A' for Active; 'I' for Inactive)
REMARK    1  A    between atoms: C_1  and  N_2
REMARK                            x       y       z     vdW  Elec       q    Type
REMARK                         _______ _______ _______ _____ _____    ______ ____
ROOT
ATOM      1  C   UNL     1       8.952   5.808  13.076  0.00  0.00    +0.000 C 
ATOM      2  N   UNL     1       7.580   5.359  13.152  0.00  0.00    +0.000 N 
ATOM      3  C   UNL     1       7.039   5.143  14.374  0.00  0.00    +0.000 A 
ATOM      4  N   UNL     1       7.423   5.720  15.486  0.00  0.00    +0.000 NA
ATOM      5  C   UNL     1       6.651   5.288  16.560  0.00  0.00    +0.000 A 
ATOM      6  C   UNL     1       6.724   5.687  17.912  0.00  0.00    +0.000 A 
ATOM      7 CL   UNL     1       7.894   6.877  18.295  0.00  0.00    +0.000 Cl
ATOM      8  C   UNL     1       5.887   5.152  18.889  0.00  0.00    +0.000 A 
ATOM      9  C   UNL     1       4.957   4.189  18.522  0.00  0.00    +0.000 A 
ATOM     10 CL   UNL     1       3.923   3.510  19.720  0.00  0.00    +0.000 Cl
ATOM     11  C   UNL     1       4.837   3.759  17.198  0.00  0.00    +0.000 A 
ATOM     12  C   UNL     1       5.687   4.329  16.232  0.00  0.00    +0.000 A 
ATOM     13  S   UNL     1       5.746   4.024  14.542  0.00  0.00    +0.000 S 
ATOM     14  H   UNL     1       7.307   4.709  12.423  0.00  0.00    +0.000 HD
ENDROOT
TORSDOF 0
ENDMDL
MODEL 8
REMARK VINA RESULT:      -5.3      2.370      2.847
REMARK  Name = 
REMARK  1 active torsions:
REMARK  status: ('A' for Active; 'I' for Inactive)
REMARK    1  A    between atoms: C_1  and  N_2
REMARK                            x       y       z     vdW  Elec       q    Type
REMARK                         _______ _______ _______ _____ _____    ______ ____
ROOT
ATOM      1  C   UNL     1       5.701   5.818  15.585  0.00  0.00    +0.000 C 
ATOM      2  N   UNL     1       5.003   4.564  15.762  0.00  0.00    +0.000 N 
ATOM      3  C   UNL     1       4.301   4.374  16.904  0.00  0.00    +0.000 A 
ATOM      4  N   UNL     1       3.789   5.323  17.647  0.00  0.00    +0.000 NA
ATOM      5  C   UNL     1       3.117   4.789  18.742  0.00  0.00    +0.000 A 
ATOM      6  C   UNL     1       2.410   5.467  19.757  0.00  0.00    +0.000 A 
ATOM      7 CL   UNL     1       2.337   7.172  19.629  0.00  0.00    +0.000 Cl
ATOM      8  C   UNL     1       1.794   4.792  20.810  0.00  0.00    +0.000 A 
ATOM      9  C   UNL     1       1.886   3.408  20.864  0.00  0.00    +0.000 A 
ATOM     10 CL   UNL     1       1.139   2.560  22.164  0.00  0.00    +0.000 Cl
ATOM     11  C   UNL     1       2.569   2.683  19.884  0.00  0.00    +0.000 A 
ATOM     12  C   UNL     1       3.168   3.393  18.827  0.00  0.00    +0.000 A 
ATOM     13  S   UNL     1       4.037   2.776  17.479  0.00  0.00    +0.000 S 
ATOM     14  H   UNL     1       5.491   3.754  15.399  0.00  0.00    +0.000 HD
ENDROOT
TORSDOF 0
ENDMDL
MODEL 9
REMARK VINA RESULT:      -5.2      2.032      2.134
REMARK  Name = 
REMARK  1 active torsions:
REMARK  status: ('A' for Active; 'I' for Inactive)
REMARK    1  A    between atoms: C_1  and  N_2
REMARK                            x       y       z     vdW  Elec       q    Type
REMARK                         _______ _______ _______ _____ _____    ______ ____
ROOT
ATOM      1  C   UNL     1       6.859   7.263  17.160  0.00  0.00    +0.000 C 
ATOM      2  N   UNL     1       6.437   5.882  17.095  0.00  0.00    +0.000 N 
ATOM      3  C   UNL     1       5.435   5.476  17.909  0.00  0.00    +0.000 A 
ATOM      4  N   UNL     1       4.497   6.247  18.400  0.00  0.00    +0.000 NA
ATOM      5  C   UNL     1       3.614   5.514  19.187  0.00  0.00    +0.000 A 
ATOM      6  C   UNL     1       2.461   5.962  19.866  0.00  0.00    +0.000 A 
ATOM      7 CL   UNL     1       2.067   7.618  19.690  0.00  0.00    +0.000 Cl
ATOM      8  C   UNL     1       1.675   5.107  20.637  0.00  0.00    +0.000 A 
ATOM      9  C   UNL     1       2.042   3.773  20.745  0.00  0.00    +0.000 A 
ATOM     10 CL   UNL     1       1.087   2.706  21.701  0.00  0.00    +0.000 Cl
ATOM     11  C   UNL     1       3.171   3.272  20.091  0.00  0.00    +0.000 A 
ATOM     12  C   UNL     1       3.936   4.158  19.310  0.00  0.00    +0.000 A 
ATOM     13  S   UNL     1       5.341   3.825  18.377  0.00  0.00    +0.000 S 
ATOM     14  H   UNL     1       7.188   5.217  16.947  0.00  0.00    +0.000 HD
ENDROOT
TORSDOF 0
ENDMDL
