MODEL 1
REMARK VINA RESULT:      -6.8      0.000      0.000
REMARK  Name = 
REMARK  8 active torsions:
REMARK  status: ('A' for Active; 'I' for Inactive)
REMARK    1  A    between atoms: C_1  and  C_2
REMARK    2  A    between atoms: C_5  and  C_6
REMARK    3  A    between atoms: C_7  and  N_8
REMARK    4  A    between atoms: N_8  and  C_9
REMARK    5  A    between atoms: C_9  and  C_10
REMARK    6  A    between atoms: C_10  and  N_11
REMARK    7  A    between atoms: C_14  and  C_15
REMARK    8  A    between atoms: C_16  and  C_17
REMARK                            x       y       z     vdW  Elec       q    Type
REMARK                         _______ _______ _______ _____ _____    ______ ____
ROOT
ATOM      1  N   UNL     1       5.153   4.011  17.233  0.00  0.00    +0.000 N 
ATOM      2  H   UNL     1       5.268   4.749  17.924  0.00  0.00    +0.000 HD
ENDROOT
BRANCH   1   9
ATOM      3  C   UNL     1       6.001   3.375  12.502  0.00  0.00    +0.000 C 
ATOM      4  C   UNL     1       6.323   4.052  13.800  0.00  0.00    +0.000 A 
ATOM      5  C   UNL     1       7.350   4.981  13.883  0.00  0.00    +0.000 A 
ATOM      6  N   UNL     1       7.661   5.620  15.026  0.00  0.00    +0.000 NA
ATOM      7  C   UNL     1       6.921   5.285  16.115  0.00  0.00    +0.000 A 
ATOM      8  C   UNL     1       7.258   5.985  17.395  0.00  0.00    +0.000 C 
ATOM      9  C   UNL     1       5.869   4.349  16.060  0.00  0.00    +0.000 A 
ATOM     10  N   UNL     1       5.577   3.729  14.888  0.00  0.00    +0.000 NA
ENDBRANCH   1   9
BRANCH   1  11
ATOM     11  C   UNL     1       3.758   3.663  16.955  0.00  0.00    +0.000 C 
BRANCH  11  12
ATOM     12  C   UNL     1       2.742   4.584  17.631  0.00  0.00    +0.000 C 
BRANCH  12  13
ATOM     13  N   UNL     1       2.465   4.262  19.011  0.00  0.00    +0.000 N 
ATOM     14  C   UNL     1       2.854   5.073  20.057  0.00  0.00    +0.000 A 
ATOM     15  N   UNL     1       2.477   4.602  21.213  0.00  0.00    +0.000 NA
ATOM     16  C   UNL     1       1.805   3.438  20.929  0.00  0.00    +0.000 A 
ATOM     17  C   UNL     1       1.232   2.594  22.002  0.00  0.00    +0.000 C 
ATOM     18  C   UNL     1       1.768   3.209  19.559  0.00  0.00    +0.000 A 
ATOM     19  C   UNL     1       1.128   2.075  18.854  0.00  0.00    +0.000 C 
ENDBRANCH  12  13
ENDBRANCH  11  12
ENDBRANCH   1  11
TORSDOF 4
ENDMDL
MODEL 2
REMARK VINA RESULT:      -6.8      1.577      2.467
REMARK  Name = 
REMARK  8 active torsions:
REMARK  status: ('A' for Active; 'I' for Inactive)
REMARK    1  A    between atoms: C_1  and  C_2
REMARK    2  A    between atoms: C_5  and  C_6
REMARK    3  A    between atoms: C_7  and  N_8
REMARK    4  A    between atoms: N_8  and  C_9
REMARK    5  A    between atoms: C_9  and  C_10
REMARK    6  A    between atoms: C_10  and  N_11
REMARK    7  A    between atoms: C_14  and  C_15
REMARK    8  A    between atoms: C_16  and  C_17
REMARK                            x       y       z     vdW  Elec       q    Type
REMARK                         _______ _______ _______ _____ _____    ______ ____
ROOT
ATOM      1  N   UNL     1       5.391   3.611  17.443  0.00  0.00    +0.000 N 
ATOM      2  H   UNL     1       5.919   3.937  18.250  0.00  0.00    +0.000 HD
ENDROOT
BRANCH   1   9
ATOM      3  C   UNL     1       5.912   3.446  12.627  0.00  0.00    +0.000 C 
ATOM      4  C   UNL     1       6.289   4.030  13.954  0.00  0.00    +0.000 A 
ATOM      5  C   UNL     1       7.257   5.018  14.048  0.00  0.00    +0.000 A 
ATOM      6  N   UNL     1       7.615   5.577  15.220  0.00  0.00    +0.000 NA
ATOM      7  C   UNL     1       6.983   5.098  16.324  0.00  0.00    +0.000 A 
ATOM      8  C   UNL     1       7.372   5.707  17.635  0.00  0.00    +0.000 C 
ATOM      9  C   UNL     1       5.992   4.098  16.259  0.00  0.00    +0.000 A 
ATOM     10  N   UNL     1       5.651   3.563  15.059  0.00  0.00    +0.000 NA
ENDBRANCH   1   9
BRANCH   1  11
ATOM     11  C   UNL     1       3.959   3.907  17.506  0.00  0.00    +0.000 C 
BRANCH  11  12
ATOM     12  C   UNL     1       3.632   5.400  17.476  0.00  0.00    +0.000 C 
BRANCH  12  13
ATOM     13  N   UNL     1       2.946   5.888  18.650  0.00  0.00    +0.000 N 
ATOM     14  C   UNL     1       2.737   5.107  19.767  0.00  0.00    +0.000 A 
ATOM     15  N   UNL     1       2.122   5.757  20.716  0.00  0.00    +0.000 NA
ATOM     16  C   UNL     1       1.920   7.021  20.218  0.00  0.00    +0.000 A 
ATOM     17  C   UNL     1       1.225   8.062  21.008  0.00  0.00    +0.000 C 
ATOM     18  C   UNL     1       2.440   7.136  18.934  0.00  0.00    +0.000 A 
ATOM     19  C   UNL     1       2.435   8.336  18.067  0.00  0.00    +0.000 C 
ENDBRANCH  12  13
ENDBRANCH  11  12
ENDBRANCH   1  11
TORSDOF 4
ENDMDL
MODEL 3
REMARK VINA RESULT:      -6.7      1.013      1.149
REMARK  Name = 
REMARK  8 active torsions:
REMARK  status: ('A' for Active; 'I' for Inactive)
REMARK    1  A    between atoms: C_1  and  C_2
REMARK    2  A    between atoms: C_5  and  C_6
REMARK    3  A    between atoms: C_7  and  N_8
REMARK    4  A    between atoms: N_8  and  C_9
REMARK    5  A    between atoms: C_9  and  C_10
REMARK    6  A    between atoms: C_10  and  N_11
REMARK    7  A    between atoms: C_14  and  C_15
REMARK    8  A    between atoms: C_16  and  C_17
REMARK                            x       y       z     vdW  Elec       q    Type
REMARK                         _______ _______ _______ _____ _____    ______ ____
ROOT
ATOM      1  N   UNL     1       5.234   3.938  17.047  0.00  0.00    +0.000 N 
ATOM      2  H   UNL     1       5.907   3.795  17.797  0.00  0.00    +0.000 HD
ENDROOT
BRANCH   1   9
ATOM      3  C   UNL     1       5.939   3.307  12.292  0.00  0.00    +0.000 C 
ATOM      4  C   UNL     1       6.306   3.975  13.582  0.00  0.00    +0.000 A 
ATOM      5  C   UNL     1       7.347   4.890  13.638  0.00  0.00    +0.000 A 
ATOM      6  N   UNL     1       7.700   5.521  14.774  0.00  0.00    +0.000 NA
ATOM      7  C   UNL     1       6.987   5.193  15.883  0.00  0.00    +0.000 A 
ATOM      8  C   UNL     1       7.370   5.884  17.154  0.00  0.00    +0.000 C 
ATOM      9  C   UNL     1       5.921   4.271  15.856  0.00  0.00    +0.000 A 
ATOM     10  N   UNL     1       5.588   3.658  14.690  0.00  0.00    +0.000 NA
ENDBRANCH   1   9
BRANCH   1  11
ATOM     11  C   UNL     1       4.176   4.898  17.368  0.00  0.00    +0.000 C 
BRANCH  11  12
ATOM     12  C   UNL     1       4.215   5.406  18.809  0.00  0.00    +0.000 C 
BRANCH  12  13
ATOM     13  N   UNL     1       3.216   4.828  19.677  0.00  0.00    +0.000 N 
ATOM     14  C   UNL     1       2.067   5.500  20.039  0.00  0.00    +0.000 A 
ATOM     15  N   UNL     1       1.295   4.781  20.806  0.00  0.00    +0.000 NA
ATOM     16  C   UNL     1       1.949   3.581  20.955  0.00  0.00    +0.000 A 
ATOM     17  C   UNL     1       1.386   2.492  21.784  0.00  0.00    +0.000 C 
ATOM     18  C   UNL     1       3.144   3.577  20.247  0.00  0.00    +0.000 A 
ATOM     19  C   UNL     1       4.123   2.472  20.143  0.00  0.00    +0.000 C 
ENDBRANCH  12  13
ENDBRANCH  11  12
ENDBRANCH   1  11
TORSDOF 4
ENDMDL
MODEL 4
REMARK VINA RESULT:      -6.6      1.532      2.059
REMARK  Name = 
REMARK  8 active torsions:
REMARK  status: ('A' for Active; 'I' for Inactive)
REMARK    1  A    between atoms: C_1  and  C_2
REMARK    2  A    between atoms: C_5  and  C_6
REMARK    3  A    between atoms: C_7  and  N_8
REMARK    4  A    between atoms: N_8  and  C_9
REMARK    5  A    between atoms: C_9  and  C_10
REMARK    6  A    between atoms: C_10  and  N_11
REMARK    7  A    between atoms: C_14  and  C_15
REMARK    8  A    between atoms: C_16  and  C_17
REMARK                            x       y       z     vdW  Elec       q    Type
REMARK                         _______ _______ _______ _____ _____    ______ ____
ROOT
ATOM      1  N   UNL     1       5.049   7.245  17.301  0.00  0.00    +0.000 N 
ATOM      2  H   UNL     1       4.994   8.061  16.695  0.00  0.00    +0.000 HD
ENDROOT
BRANCH   1   9
ATOM      3  C   UNL     1       5.411   4.047  13.675  0.00  0.00    +0.000 C 
ATOM      4  C   UNL     1       5.957   4.651  14.933  0.00  0.00    +0.000 A 
ATOM      5  C   UNL     1       7.138   4.187  15.491  0.00  0.00    +0.000 A 
ATOM      6  N   UNL     1       7.669   4.711  16.612  0.00  0.00    +0.000 NA
ATOM      7  C   UNL     1       6.963   5.720  17.188  0.00  0.00    +0.000 A 
ATOM      8  C   UNL     1       7.538   6.312  18.437  0.00  0.00    +0.000 C 
ATOM      9  C   UNL     1       5.763   6.216  16.641  0.00  0.00    +0.000 A 
ATOM     10  N   UNL     1       5.261   5.668  15.505  0.00  0.00    +0.000 NA
ENDBRANCH   1   9
BRANCH   1  11
ATOM     11  C   UNL     1       3.754   6.789  17.810  0.00  0.00    +0.000 C 
BRANCH  11  12
ATOM     12  C   UNL     1       3.843   6.009  19.122  0.00  0.00    +0.000 C 
BRANCH  12  13
ATOM     13  N   UNL     1       2.793   5.037  19.314  0.00  0.00    +0.000 N 
ATOM     14  C   UNL     1       1.864   5.136  20.329  0.00  0.00    +0.000 A 
ATOM     15  N   UNL     1       0.994   4.165  20.299  0.00  0.00    +0.000 NA
ATOM     16  C   UNL     1       1.349   3.394  19.219  0.00  0.00    +0.000 A 
ATOM     17  C   UNL     1       0.597   2.170  18.862  0.00  0.00    +0.000 C 
ATOM     18  C   UNL     1       2.460   3.924  18.575  0.00  0.00    +0.000 A 
ATOM     19  C   UNL     1       3.137   3.397  17.369  0.00  0.00    +0.000 C 
ENDBRANCH  12  13
ENDBRANCH  11  12
ENDBRANCH   1  11
TORSDOF 4
ENDMDL
MODEL 5
REMARK VINA RESULT:      -6.5      2.061      5.807
REMARK  Name = 
REMARK  8 active torsions:
REMARK  status: ('A' for Active; 'I' for Inactive)
REMARK    1  A    between atoms: C_1  and  C_2
REMARK    2  A    between atoms: C_5  and  C_6
REMARK    3  A    between atoms: C_7  and  N_8
REMARK    4  A    between atoms: N_8  and  C_9
REMARK    5  A    between atoms: C_9  and  C_10
REMARK    6  A    between atoms: C_10  and  N_11
REMARK    7  A    between atoms: C_14  and  C_15
REMARK    8  A    between atoms: C_16  and  C_17
REMARK                            x       y       z     vdW  Elec       q    Type
REMARK                         _______ _______ _______ _____ _____    ______ ____
ROOT
ATOM      1  N   UNL     1       1.597   3.392  17.991  0.00  0.00    +0.000 N 
ATOM      2  H   UNL     1       0.677   3.381  17.555  0.00  0.00    +0.000 HD
ENDROOT
BRANCH   1   9
ATOM      3  C   UNL     1       2.810   8.084  17.889  0.00  0.00    +0.000 C 
ATOM      4  C   UNL     1       2.388   6.869  18.656  0.00  0.00    +0.000 A 
ATOM      5  C   UNL     1       2.218   6.919  20.032  0.00  0.00    +0.000 A 
ATOM      6  N   UNL     1       1.827   5.853  20.756  0.00  0.00    +0.000 NA
ATOM      7  C   UNL     1       1.626   4.703  20.059  0.00  0.00    +0.000 A 
ATOM      8  C   UNL     1       1.194   3.508  20.851  0.00  0.00    +0.000 C 
ATOM      9  C   UNL     1       1.785   4.623  18.662  0.00  0.00    +0.000 A 
ATOM     10  N   UNL     1       2.173   5.721  17.963  0.00  0.00    +0.000 NA
ENDBRANCH   1   9
BRANCH   1  11
ATOM     11  C   UNL     1       2.697   3.079  17.077  0.00  0.00    +0.000 C 
BRANCH  11  12
ATOM     12  C   UNL     1       3.987   2.657  17.780  0.00  0.00    +0.000 C 
BRANCH  12  13
ATOM     13  N   UNL     1       4.918   3.734  18.023  0.00  0.00    +0.000 N 
ATOM     14  C   UNL     1       5.278   4.133  19.293  0.00  0.00    +0.000 A 
ATOM     15  N   UNL     1       6.149   5.104  19.277  0.00  0.00    +0.000 NA
ATOM     16  C   UNL     1       6.385   5.358  17.948  0.00  0.00    +0.000 A 
ATOM     17  C   UNL     1       7.319   6.422  17.518  0.00  0.00    +0.000 C 
ATOM     18  C   UNL     1       5.641   4.505  17.141  0.00  0.00    +0.000 A 
ATOM     19  C   UNL     1       5.627   4.453  15.662  0.00  0.00    +0.000 C 
ENDBRANCH  12  13
ENDBRANCH  11  12
ENDBRANCH   1  11
TORSDOF 4
ENDMDL
MODEL 6
REMARK VINA RESULT:      -6.5      2.004      2.392
REMARK  Name = 
REMARK  8 active torsions:
REMARK  status: ('A' for Active; 'I' for Inactive)
REMARK    1  A    between atoms: C_1  and  C_2
REMARK    2  A    between atoms: C_5  and  C_6
REMARK    3  A    between atoms: C_7  and  N_8
REMARK    4  A    between atoms: N_8  and  C_9
REMARK    5  A    between atoms: C_9  and  C_10
REMARK    6  A    between atoms: C_10  and  N_11
REMARK    7  A    between atoms: C_14  and  C_15
REMARK    8  A    between atoms: C_16  and  C_17
REMARK                            x       y       z     vdW  Elec       q    Type
REMARK                         _______ _______ _______ _____ _____    ______ ____
ROOT
ATOM      1  N   UNL     1       5.164   7.329  17.278  0.00  0.00    +0.000 N 
ATOM      2  H   UNL     1       5.324   8.204  16.782  0.00  0.00    +0.000 HD
ENDROOT
BRANCH   1   9
ATOM      3  C   UNL     1       5.400   4.079  13.689  0.00  0.00    +0.000 C 
ATOM      4  C   UNL     1       5.982   4.691  14.926  0.00  0.00    +0.000 A 
ATOM      5  C   UNL     1       7.168   4.216  15.467  0.00  0.00    +0.000 A 
ATOM      6  N   UNL     1       7.729   4.747  16.569  0.00  0.00    +0.000 NA
ATOM      7  C   UNL     1       7.051   5.774  17.145  0.00  0.00    +0.000 A 
ATOM      8  C   UNL     1       7.662   6.373  18.374  0.00  0.00    +0.000 C 
ATOM      9  C   UNL     1       5.847   6.281  16.617  0.00  0.00    +0.000 A 
ATOM     10  N   UNL     1       5.313   5.726  15.499  0.00  0.00    +0.000 NA
ENDBRANCH   1   9
BRANCH   1  11
ATOM     11  C   UNL     1       3.750   7.020  17.503  0.00  0.00    +0.000 C 
BRANCH  11  12
ATOM     12  C   UNL     1       3.466   6.369  18.857  0.00  0.00    +0.000 C 
BRANCH  12  13
ATOM     13  N   UNL     1       3.741   4.953  18.911  0.00  0.00    +0.000 N 
ATOM     14  C   UNL     1       4.828   4.431  19.581  0.00  0.00    +0.000 A 
ATOM     15  N   UNL     1       4.868   3.129  19.521  0.00  0.00    +0.000 NA
ATOM     16  C   UNL     1       3.761   2.766  18.791  0.00  0.00    +0.000 A 
ATOM     17  C   UNL     1       3.465   1.348  18.490  0.00  0.00    +0.000 C 
ATOM     18  C   UNL     1       3.030   3.885  18.411  0.00  0.00    +0.000 A 
ATOM     19  C   UNL     1       1.773   3.914  17.631  0.00  0.00    +0.000 C 
ENDBRANCH  12  13
ENDBRANCH  11  12
ENDBRANCH   1  11
TORSDOF 4
ENDMDL
MODEL 7
REMARK VINA RESULT:      -6.4      1.245      1.531
REMARK  Name = 
REMARK  8 active torsions:
REMARK  status: ('A' for Active; 'I' for Inactive)
REMARK    1  A    between atoms: C_1  and  C_2
REMARK    2  A    between atoms: C_5  and  C_6
REMARK    3  A    between atoms: C_7  and  N_8
REMARK    4  A    between atoms: N_8  and  C_9
REMARK    5  A    between atoms: C_9  and  C_10
REMARK    6  A    between atoms: C_10  and  N_11
REMARK    7  A    between atoms: C_14  and  C_15
REMARK    8  A    between atoms: C_16  and  C_17
REMARK                            x       y       z     vdW  Elec       q    Type
REMARK                         _______ _______ _______ _____ _____    ______ ____
ROOT
ATOM      1  N   UNL     1       4.585   4.969  16.696  0.00  0.00    +0.000 N 
ATOM      2  H   UNL     1       3.654   5.112  16.310  0.00  0.00    +0.000 HD
ENDROOT
BRANCH   1   9
ATOM      3  C   UNL     1       5.912   3.338  12.328  0.00  0.00    +0.000 C 
ATOM      4  C   UNL     1       6.210   4.132  13.563  0.00  0.00    +0.000 A 
ATOM      5  C   UNL     1       7.424   4.788  13.713  0.00  0.00    +0.000 A 
ATOM      6  N   UNL     1       7.724   5.521  14.801  0.00  0.00    +0.000 NA
ATOM      7  C   UNL     1       6.771   5.568  15.768  0.00  0.00    +0.000 A 
ATOM      8  C   UNL     1       7.092   6.377  16.986  0.00  0.00    +0.000 C 
ATOM      9  C   UNL     1       5.528   4.917  15.642  0.00  0.00    +0.000 A 
ATOM     10  N   UNL     1       5.255   4.192  14.527  0.00  0.00    +0.000 NA
ENDBRANCH   1   9
BRANCH   1  11
ATOM     11  C   UNL     1       4.689   3.820  17.597  0.00  0.00    +0.000 C 
BRANCH  11  12
ATOM     12  C   UNL     1       3.519   2.842  17.494  0.00  0.00    +0.000 C 
BRANCH  12  13
ATOM     13  N   UNL     1       2.632   2.844  18.634  0.00  0.00    +0.000 N 
ATOM     14  C   UNL     1       1.281   3.100  18.524  0.00  0.00    +0.000 A 
ATOM     15  N   UNL     1       0.670   3.025  19.674  0.00  0.00    +0.000 NA
ATOM     16  C   UNL     1       1.647   2.699  20.584  0.00  0.00    +0.000 A 
ATOM     17  C   UNL     1       1.341   2.540  22.023  0.00  0.00    +0.000 C 
ATOM     18  C   UNL     1       2.881   2.564  19.958  0.00  0.00    +0.000 A 
ATOM     19  C   UNL     1       4.172   2.209  20.588  0.00  0.00    +0.000 C 
ENDBRANCH  12  13
ENDBRANCH  11  12
ENDBRANCH   1  11
TORSDOF 4
ENDMDL
MODEL 8
REMARK VINA RESULT:      -6.3      1.492      2.417
REMARK  Name = 
REMARK  8 active torsions:
REMARK  status: ('A' for Active; 'I' for Inactive)
REMARK    1  A    between atoms: C_1  and  C_2
REMARK    2  A    between atoms: C_5  and  C_6
REMARK    3  A    between atoms: C_7  and  N_8
REMARK    4  A    between atoms: N_8  and  C_9
REMARK    5  A    between atoms: C_9  and  C_10
REMARK    6  A    between atoms: C_10  and  N_11
REMARK    7  A    between atoms: C_14  and  C_15
REMARK    8  A    between atoms: C_16  and  C_17
REMARK                            x       y       z     vdW  Elec       q    Type
REMARK                         _______ _______ _______ _____ _____    ______ ____
ROOT
ATOM      1  N   UNL     1       5.205   3.567  18.664  0.00  0.00    +0.000 N 
ATOM      2  H   UNL     1       5.063   4.266  19.390  0.00  0.00    +0.000 HD
ENDROOT
BRANCH   1   9
ATOM      3  C   UNL     1       5.867   3.854  13.870  0.00  0.00    +0.000 C 
ATOM      4  C   UNL     1       6.196   4.318  15.256  0.00  0.00    +0.000 A 
ATOM      5  C   UNL     1       7.144   5.308  15.469  0.00  0.00    +0.000 A 
ATOM      6  N   UNL     1       7.458   5.761  16.697  0.00  0.00    +0.000 NA
ATOM      7  C   UNL     1       6.803   5.174  17.734  0.00  0.00    +0.000 A 
ATOM      8  C   UNL     1       7.144   5.665  19.106  0.00  0.00    +0.000 C 
ATOM      9  C   UNL     1       5.832   4.170  17.548  0.00  0.00    +0.000 A 
ATOM     10  N   UNL     1       5.534   3.742  16.294  0.00  0.00    +0.000 NA
ENDBRANCH   1   9
BRANCH   1  11
ATOM     11  C   UNL     1       3.995   2.831  18.296  0.00  0.00    +0.000 C 
BRANCH  11  12
ATOM     12  C   UNL     1       2.839   3.724  17.844  0.00  0.00    +0.000 C 
BRANCH  12  13
ATOM     13  N   UNL     1       2.383   4.666  18.840  0.00  0.00    +0.000 N 
ATOM     14  C   UNL     1       1.694   4.278  19.970  0.00  0.00    +0.000 A 
ATOM     15  N   UNL     1       1.404   5.288  20.743  0.00  0.00    +0.000 NA
ATOM     16  C   UNL     1       1.926   6.390  20.110  0.00  0.00    +0.000 A 
ATOM     17  C   UNL     1       1.783   7.748  20.679  0.00  0.00    +0.000 C 
ATOM     18  C   UNL     1       2.558   6.028  18.926  0.00  0.00    +0.000 A 
ATOM     19  C   UNL     1       3.252   6.920  17.970  0.00  0.00    +0.000 C 
ENDBRANCH  12  13
ENDBRANCH  11  12
ENDBRANCH   1  11
TORSDOF 4
ENDMDL
MODEL 9
REMARK VINA RESULT:      -6.3      1.579      1.894
REMARK  Name = 
REMARK  8 active torsions:
REMARK  status: ('A' for Active; 'I' for Inactive)
REMARK    1  A    between atoms: C_1  and  C_2
REMARK    2  A    between atoms: C_5  and  C_6
REMARK    3  A    between atoms: C_7  and  N_8
REMARK    4  A    between atoms: N_8  and  C_9
REMARK    5  A    between atoms: C_9  and  C_10
REMARK    6  A    between atoms: C_10  and  N_11
REMARK    7  A    between atoms: C_14  and  C_15
REMARK    8  A    between atoms: C_16  and  C_17
REMARK                            x       y       z     vdW  Elec       q    Type
REMARK                         _______ _______ _______ _____ _____    ______ ____
ROOT
ATOM      1  N   UNL     1       4.782   6.136  18.273  0.00  0.00    +0.000 N 
ATOM      2  H   UNL     1       5.354   6.519  19.023  0.00  0.00    +0.000 HD
ENDROOT
BRANCH   1   9
ATOM      3  C   UNL     1       5.373   4.113  13.907  0.00  0.00    +0.000 C 
ATOM      4  C   UNL     1       5.933   4.521  15.235  0.00  0.00    +0.000 A 
ATOM      5  C   UNL     1       7.257   4.265  15.559  0.00  0.00    +0.000 A 
ATOM      6  N   UNL     1       7.801   4.627  16.736  0.00  0.00    +0.000 NA
ATOM      7  C   UNL     1       6.966   5.245  17.612  0.00  0.00    +0.000 A 
ATOM      8  C   UNL     1       7.556   5.650  18.927  0.00  0.00    +0.000 C 
ATOM      9  C   UNL     1       5.618   5.522  17.310  0.00  0.00    +0.000 A 
ATOM     10  N   UNL     1       5.105   5.150  16.109  0.00  0.00    +0.000 NA
ENDBRANCH   1   9
BRANCH   1  11
ATOM     11  C   UNL     1       3.856   7.100  17.675  0.00  0.00    +0.000 C 
BRANCH  11  12
ATOM     12  C   UNL     1       2.412   6.952  18.154  0.00  0.00    +0.000 C 
BRANCH  12  13
ATOM     13  N   UNL     1       2.191   5.850  19.061  0.00  0.00    +0.000 N 
ATOM     14  C   UNL     1       2.094   6.018  20.427  0.00  0.00    +0.000 A 
ATOM     15  N   UNL     1       1.868   4.894  21.049  0.00  0.00    +0.000 NA
ATOM     16  C   UNL     1       1.804   3.941  20.061  0.00  0.00    +0.000 A 
ATOM     17  C   UNL     1       1.574   2.513  20.379  0.00  0.00    +0.000 C 
ATOM     18  C   UNL     1       1.986   4.512  18.808  0.00  0.00    +0.000 A 
ATOM     19  C   UNL     1       1.971   3.825  17.497  0.00  0.00    +0.000 C 
ENDBRANCH  12  13
ENDBRANCH  11  12
ENDBRANCH   1  11
TORSDOF 4
ENDMDL
