MODEL 1
REMARK VINA RESULT:      -6.6      0.000      0.000
REMARK  Name = 
REMARK  6 active torsions:
REMARK  status: ('A' for Active; 'I' for Inactive)
REMARK    1  A    between atoms: C_1  and  C_2
REMARK    2  A    between atoms: C_2  and  N_3
REMARK    3  A    between atoms: C_5  and  C_6
REMARK    4  A    between atoms: C_7  and  N_8
REMARK    5  A    between atoms: C_9  and  C_11
REMARK    6  A    between atoms: C_18  and  C_19
REMARK                            x       y       z     vdW  Elec       q    Type
REMARK                         _______ _______ _______ _____ _____    ______ ____
ROOT
ATOM      1  N   UNL     1       2.875   6.532  19.017  0.00  0.00    +0.000 N 
ATOM      2  C   UNL     1       2.348   7.721  18.546  0.00  0.00    +0.000 C 
ATOM      3  O   UNL     1       2.330   8.085  17.371  0.00  0.00    +0.000 OA
ATOM      4  H   UNL     1       2.461   6.165  19.866  0.00  0.00    +0.000 HD
ENDROOT
BRANCH   1   9
ATOM      5  N   UNL     1       4.733   4.452  16.811  0.00  0.00    +0.000 N 
ATOM      6  N   UNL     1       3.634   3.679  16.931  0.00  0.00    +0.000 NA
ATOM      7  C   UNL     1       2.836   4.376  17.749  0.00  0.00    +0.000 A 
ATOM      8  C   UNL     1       1.462   3.902  18.035  0.00  0.00    +0.000 C 
ATOM      9  C   UNL     1       3.438   5.589  18.170  0.00  0.00    +0.000 A 
ATOM     10  C   UNL     1       4.686   5.595  17.577  0.00  0.00    +0.000 A 
ATOM     11  C   UNL     1       5.836   6.532  17.686  0.00  0.00    +0.000 C 
BRANCH   5  13
ATOM     12  C   UNL     1       5.610   4.499  14.503  0.00  0.00    +0.000 C 
ATOM     13  C   UNL     1       5.800   4.014  15.929  0.00  0.00    +0.000 C 
ENDBRANCH   5  13
ENDBRANCH   1   9
BRANCH   2  14
ATOM     14  C   UNL     1       1.661   8.571  19.561  0.00  0.00    +0.000 A 
ATOM     15  C   UNL     1       1.108   9.817  19.233  0.00  0.00    +0.000 A 
ATOM     16  C   UNL     1       0.385  10.534  20.196  0.00  0.00    +0.000 A 
ATOM     17  C   UNL     1       0.219  10.011  21.479  0.00  0.00    +0.000 A 
ATOM     18 CL   UNL     1      -0.716  10.872  22.639  0.00  0.00    +0.000 Cl
ATOM     19  C   UNL     1       0.789   8.787  21.820  0.00  0.00    +0.000 A 
ATOM     20  C   UNL     1       1.507   8.067  20.862  0.00  0.00    +0.000 A 
ENDBRANCH   2  14
TORSDOF 3
ENDMDL
MODEL 2
REMARK VINA RESULT:      -6.6      0.462      1.203
REMARK  Name = 
REMARK  6 active torsions:
REMARK  status: ('A' for Active; 'I' for Inactive)
REMARK    1  A    between atoms: C_1  and  C_2
REMARK    2  A    between atoms: C_2  and  N_3
REMARK    3  A    between atoms: C_5  and  C_6
REMARK    4  A    between atoms: C_7  and  N_8
REMARK    5  A    between atoms: C_9  and  C_11
REMARK    6  A    between atoms: C_18  and  C_19
REMARK                            x       y       z     vdW  Elec       q    Type
REMARK                         _______ _______ _______ _____ _____    ______ ____
ROOT
ATOM      1  N   UNL     1       3.076   6.596  18.763  0.00  0.00    +0.000 N 
ATOM      2  C   UNL     1       2.505   7.782  18.337  0.00  0.00    +0.000 C 
ATOM      3  O   UNL     1       2.542   8.228  17.192  0.00  0.00    +0.000 OA
ATOM      4  H   UNL     1       2.632   6.144  19.553  0.00  0.00    +0.000 HD
ENDROOT
BRANCH   1   9
ATOM      5  N   UNL     1       5.186   4.824  16.514  0.00  0.00    +0.000 N 
ATOM      6  N   UNL     1       4.198   3.913  16.617  0.00  0.00    +0.000 NA
ATOM      7  C   UNL     1       3.317   4.481  17.448  0.00  0.00    +0.000 A 
ATOM      8  C   UNL     1       2.018   3.826  17.723  0.00  0.00    +0.000 C 
ATOM      9  C   UNL     1       3.757   5.753  17.897  0.00  0.00    +0.000 A 
ATOM     10  C   UNL     1       4.992   5.935  17.305  0.00  0.00    +0.000 A 
ATOM     11  C   UNL     1       6.011   7.012  17.435  0.00  0.00    +0.000 C 
BRANCH   5  13
ATOM     12  C   UNL     1       5.846   4.174  14.225  0.00  0.00    +0.000 C 
ATOM     13  C   UNL     1       6.300   4.549  15.624  0.00  0.00    +0.000 C 
ENDBRANCH   5  13
ENDBRANCH   1   9
BRANCH   2  14
ATOM     14  C   UNL     1       1.697   8.512  19.356  0.00  0.00    +0.000 A 
ATOM     15  C   UNL     1       1.548   8.036  20.666  0.00  0.00    +0.000 A 
ATOM     16  C   UNL     1       0.864   8.806  21.616  0.00  0.00    +0.000 A 
ATOM     17  C   UNL     1       0.330  10.045  21.257  0.00  0.00    +0.000 A 
ATOM     18 CL   UNL     1      -0.462  11.010  22.442  0.00  0.00    +0.000 Cl
ATOM     19  C   UNL     1       0.450  10.513  19.951  0.00  0.00    +0.000 A 
ATOM     20  C   UNL     1       1.135   9.749  19.002  0.00  0.00    +0.000 A 
ENDBRANCH   2  14
TORSDOF 3
ENDMDL
MODEL 3
REMARK VINA RESULT:      -6.5      1.143      1.164
REMARK  Name = 
REMARK  6 active torsions:
REMARK  status: ('A' for Active; 'I' for Inactive)
REMARK    1  A    between atoms: C_1  and  C_2
REMARK    2  A    between atoms: C_2  and  N_3
REMARK    3  A    between atoms: C_5  and  C_6
REMARK    4  A    between atoms: C_7  and  N_8
REMARK    5  A    between atoms: C_9  and  C_11
REMARK    6  A    between atoms: C_18  and  C_19
REMARK                            x       y       z     vdW  Elec       q    Type
REMARK                         _______ _______ _______ _____ _____    ______ ____
ROOT
ATOM      1  N   UNL     1       2.850   6.752  18.066  0.00  0.00    +0.000 N 
ATOM      2  C   UNL     1       2.513   6.804  19.406  0.00  0.00    +0.000 C 
ATOM      3  O   UNL     1       2.856   5.994  20.267  0.00  0.00    +0.000 OA
ATOM      4  H   UNL     1       2.889   7.640  17.580  0.00  0.00    +0.000 HD
ENDROOT
BRANCH   1   9
ATOM      5  N   UNL     1       5.286   4.571  16.666  0.00  0.00    +0.000 N 
ATOM      6  N   UNL     1       4.299   3.671  16.852  0.00  0.00    +0.000 NA
ATOM      7  C   UNL     1       3.300   4.389  17.376  0.00  0.00    +0.000 A 
ATOM      8  C   UNL     1       1.978   3.767  17.617  0.00  0.00    +0.000 C 
ATOM      9  C   UNL     1       3.659   5.751  17.548  0.00  0.00    +0.000 A 
ATOM     10  C   UNL     1       4.968   5.834  17.114  0.00  0.00    +0.000 A 
ATOM     11  C   UNL     1       5.949   6.953  17.114  0.00  0.00    +0.000 C 
BRANCH   5  13
ATOM     12  C   UNL     1       6.469   4.206  14.530  0.00  0.00    +0.000 C 
ATOM     13  C   UNL     1       6.523   4.132  16.045  0.00  0.00    +0.000 C 
ENDBRANCH   5  13
ENDBRANCH   1   9
BRANCH   2  14
ATOM     14  C   UNL     1       1.747   8.010  19.834  0.00  0.00    +0.000 A 
ATOM     15  C   UNL     1       1.491   9.075  18.959  0.00  0.00    +0.000 A 
ATOM     16  C   UNL     1       0.681  10.141  19.375  0.00  0.00    +0.000 A 
ATOM     17  C   UNL     1       0.133  10.143  20.658  0.00  0.00    +0.000 A 
ATOM     18 CL   UNL     1      -0.904  11.428  21.142  0.00  0.00    +0.000 Cl
ATOM     19  C   UNL     1       0.405   9.102  21.543  0.00  0.00    +0.000 A 
ATOM     20  C   UNL     1       1.208   8.035  21.130  0.00  0.00    +0.000 A 
ENDBRANCH   2  14
TORSDOF 3
ENDMDL
MODEL 4
REMARK VINA RESULT:      -6.4      1.217      1.635
REMARK  Name = 
REMARK  6 active torsions:
REMARK  status: ('A' for Active; 'I' for Inactive)
REMARK    1  A    between atoms: C_1  and  C_2
REMARK    2  A    between atoms: C_2  and  N_3
REMARK    3  A    between atoms: C_5  and  C_6
REMARK    4  A    between atoms: C_7  and  N_8
REMARK    5  A    between atoms: C_9  and  C_11
REMARK    6  A    between atoms: C_18  and  C_19
REMARK                            x       y       z     vdW  Elec       q    Type
REMARK                         _______ _______ _______ _____ _____    ______ ____
ROOT
ATOM      1  N   UNL     1       2.949   6.650  18.035  0.00  0.00    +0.000 N 
ATOM      2  C   UNL     1       2.622   6.676  19.379  0.00  0.00    +0.000 C 
ATOM      3  O   UNL     1       3.013   5.879  20.231  0.00  0.00    +0.000 OA
ATOM      4  H   UNL     1       2.939   7.542  17.555  0.00  0.00    +0.000 HD
ENDROOT
BRANCH   1   9
ATOM      5  N   UNL     1       5.480   4.599  16.608  0.00  0.00    +0.000 N 
ATOM      6  N   UNL     1       4.529   3.656  16.768  0.00  0.00    +0.000 NA
ATOM      7  C   UNL     1       3.499   4.322  17.301  0.00  0.00    +0.000 A 
ATOM      8  C   UNL     1       2.201   3.642  17.519  0.00  0.00    +0.000 C 
ATOM      9  C   UNL     1       3.801   5.694  17.502  0.00  0.00    +0.000 A 
ATOM     10  C   UNL     1       5.108   5.839  17.079  0.00  0.00    +0.000 A 
ATOM     11  C   UNL     1       6.042   6.996  17.109  0.00  0.00    +0.000 C 
BRANCH   5  13
ATOM     12  C   UNL     1       6.704   4.369  14.476  0.00  0.00    +0.000 C 
ATOM     13  C   UNL     1       6.737   4.225  15.987  0.00  0.00    +0.000 C 
ENDBRANCH   5  13
ENDBRANCH   1   9
BRANCH   2  14
ATOM     14  C   UNL     1       1.801   7.840  19.823  0.00  0.00    +0.000 A 
ATOM     15  C   UNL     1       1.306   7.943  21.130  0.00  0.00    +0.000 A 
ATOM     16  C   UNL     1       0.626   9.102  21.529  0.00  0.00    +0.000 A 
ATOM     17  C   UNL     1       0.439  10.149  20.626  0.00  0.00    +0.000 A 
ATOM     18 CL   UNL     1      -0.349  11.590  21.138  0.00  0.00    +0.000 Cl
ATOM     19  C   UNL     1       0.905  10.043  19.317  0.00  0.00    +0.000 A 
ATOM     20  C   UNL     1       1.587   8.891  18.917  0.00  0.00    +0.000 A 
ENDBRANCH   2  14
TORSDOF 3
ENDMDL
MODEL 5
REMARK VINA RESULT:      -6.3      4.362      7.528
REMARK  Name = 
REMARK  6 active torsions:
REMARK  status: ('A' for Active; 'I' for Inactive)
REMARK    1  A    between atoms: C_1  and  C_2
REMARK    2  A    between atoms: C_2  and  N_3
REMARK    3  A    between atoms: C_5  and  C_6
REMARK    4  A    between atoms: C_7  and  N_8
REMARK    5  A    between atoms: C_9  and  C_11
REMARK    6  A    between atoms: C_18  and  C_19
REMARK                            x       y       z     vdW  Elec       q    Type
REMARK                         _______ _______ _______ _____ _____    ______ ____
ROOT
ATOM      1  N   UNL     1       4.095   4.726  17.248  0.00  0.00    +0.000 N 
ATOM      2  C   UNL     1       5.469   4.661  17.099  0.00  0.00    +0.000 C 
ATOM      3  O   UNL     1       6.293   4.660  18.012  0.00  0.00    +0.000 OA
ATOM      4  H   UNL     1       3.545   4.297  16.514  0.00  0.00    +0.000 HD
ENDROOT
BRANCH   1   9
ATOM      5  N   UNL     1       2.694   4.345  20.495  0.00  0.00    +0.000 N 
ATOM      6  N   UNL     1       2.333   5.625  20.273  0.00  0.00    +0.000 NA
ATOM      7  C   UNL     1       2.805   5.888  19.050  0.00  0.00    +0.000 A 
ATOM      8  C   UNL     1       2.503   7.182  18.394  0.00  0.00    +0.000 C 
ATOM      9  C   UNL     1       3.491   4.777  18.496  0.00  0.00    +0.000 A 
ATOM     10  C   UNL     1       3.438   3.800  19.471  0.00  0.00    +0.000 A 
ATOM     11  C   UNL     1       4.038   2.441  19.555  0.00  0.00    +0.000 C 
BRANCH   5  13
ATOM     12  C   UNL     1       1.202   2.664  21.516  0.00  0.00    +0.000 C 
ATOM     13  C   UNL     1       2.283   3.707  21.733  0.00  0.00    +0.000 C 
ENDBRANCH   5  13
ENDBRANCH   1   9
BRANCH   2  14
ATOM     14  C   UNL     1       5.959   4.481  15.702  0.00  0.00    +0.000 A 
ATOM     15  C   UNL     1       5.241   3.740  14.753  0.00  0.00    +0.000 A 
ATOM     16  C   UNL     1       5.690   3.682  13.427  0.00  0.00    +0.000 A 
ATOM     17  C   UNL     1       6.852   4.357  13.053  0.00  0.00    +0.000 A 
ATOM     18 CL   UNL     1       7.368   4.325  11.411  0.00  0.00    +0.000 Cl
ATOM     19  C   UNL     1       7.587   5.072  13.995  0.00  0.00    +0.000 A 
ATOM     20  C   UNL     1       7.140   5.136  15.318  0.00  0.00    +0.000 A 
ENDBRANCH   2  14
TORSDOF 3
ENDMDL
MODEL 6
REMARK VINA RESULT:      -6.2      4.315      7.504
REMARK  Name = 
REMARK  6 active torsions:
REMARK  status: ('A' for Active; 'I' for Inactive)
REMARK    1  A    between atoms: C_1  and  C_2
REMARK    2  A    between atoms: C_2  and  N_3
REMARK    3  A    between atoms: C_5  and  C_6
REMARK    4  A    between atoms: C_7  and  N_8
REMARK    5  A    between atoms: C_9  and  C_11
REMARK    6  A    between atoms: C_18  and  C_19
REMARK                            x       y       z     vdW  Elec       q    Type
REMARK                         _______ _______ _______ _____ _____    ______ ____
ROOT
ATOM      1  N   UNL     1       3.625   4.686  17.089  0.00  0.00    +0.000 N 
ATOM      2  C   UNL     1       4.997   4.511  17.057  0.00  0.00    +0.000 C 
ATOM      3  O   UNL     1       5.713   4.254  18.025  0.00  0.00    +0.000 OA
ATOM      4  H   UNL     1       3.126   4.461  16.236  0.00  0.00    +0.000 HD
ENDROOT
BRANCH   1   9
ATOM      5  N   UNL     1       1.738   3.847  19.984  0.00  0.00    +0.000 N 
ATOM      6  N   UNL     1       1.787   5.183  20.161  0.00  0.00    +0.000 NA
ATOM      7  C   UNL     1       2.479   5.625  19.105  0.00  0.00    +0.000 A 
ATOM      8  C   UNL     1       2.647   7.078  18.876  0.00  0.00    +0.000 C 
ATOM      9  C   UNL     1       2.894   4.563  18.261  0.00  0.00    +0.000 A 
ATOM     10  C   UNL     1       2.432   3.414  18.876  0.00  0.00    +0.000 A 
ATOM     11  C   UNL     1       2.608   1.973  18.554  0.00  0.00    +0.000 C 
BRANCH   5  13
ATOM     12  C   UNL     1       1.879   2.498  22.048  0.00  0.00    +0.000 C 
ATOM     13  C   UNL     1       0.997   3.043  20.939  0.00  0.00    +0.000 C 
ENDBRANCH   5  13
ENDBRANCH   1   9
BRANCH   2  14
ATOM     14  C   UNL     1       5.623   4.547  15.704  0.00  0.00    +0.000 A 
ATOM     15  C   UNL     1       6.892   5.100  15.488  0.00  0.00    +0.000 A 
ATOM     16  C   UNL     1       7.482   5.021  14.219  0.00  0.00    +0.000 A 
ATOM     17  C   UNL     1       6.804   4.395  13.172  0.00  0.00    +0.000 A 
ATOM     18 CL   UNL     1       7.557   4.253  11.630  0.00  0.00    +0.000 Cl
ATOM     19  C   UNL     1       5.531   3.866  13.371  0.00  0.00    +0.000 A 
ATOM     20  C   UNL     1       4.942   3.940  14.637  0.00  0.00    +0.000 A 
ENDBRANCH   2  14
TORSDOF 3
ENDMDL
MODEL 7
REMARK VINA RESULT:      -6.1      4.775      8.097
REMARK  Name = 
REMARK  6 active torsions:
REMARK  status: ('A' for Active; 'I' for Inactive)
REMARK    1  A    between atoms: C_1  and  C_2
REMARK    2  A    between atoms: C_2  and  N_3
REMARK    3  A    between atoms: C_5  and  C_6
REMARK    4  A    between atoms: C_7  and  N_8
REMARK    5  A    between atoms: C_9  and  C_11
REMARK    6  A    between atoms: C_18  and  C_19
REMARK                            x       y       z     vdW  Elec       q    Type
REMARK                         _______ _______ _______ _____ _____    ______ ____
ROOT
ATOM      1  N   UNL     1       4.956   4.255  16.366  0.00  0.00    +0.000 N 
ATOM      2  C   UNL     1       5.302   5.165  15.383  0.00  0.00    +0.000 C 
ATOM      3  O   UNL     1       5.253   6.390  15.487  0.00  0.00    +0.000 OA
ATOM      4  H   UNL     1       5.428   3.360  16.332  0.00  0.00    +0.000 HD
ENDROOT
BRANCH   1   9
ATOM      5  N   UNL     1       3.351   5.184  19.401  0.00  0.00    +0.000 N 
ATOM      6  N   UNL     1       4.625   5.436  19.766  0.00  0.00    +0.000 NA
ATOM      7  C   UNL     1       5.341   5.128  18.679  0.00  0.00    +0.000 A 
ATOM      8  C   UNL     1       6.799   5.385  18.646  0.00  0.00    +0.000 C 
ATOM      9  C   UNL     1       4.522   4.655  17.621  0.00  0.00    +0.000 A 
ATOM     10  C   UNL     1       3.237   4.665  18.130  0.00  0.00    +0.000 A 
ATOM     11  C   UNL     1       1.939   4.207  17.566  0.00  0.00    +0.000 C 
BRANCH   5  13
ATOM     12  C   UNL     1       1.964   4.283  21.234  0.00  0.00    +0.000 C 
ATOM     13  C   UNL     1       2.285   5.470  20.343  0.00  0.00    +0.000 C 
ENDBRANCH   5  13
ENDBRANCH   1   9
BRANCH   2  14
ATOM     14  C   UNL     1       5.873   4.583  14.134  0.00  0.00    +0.000 A 
ATOM     15  C   UNL     1       7.171   4.886  13.700  0.00  0.00    +0.000 A 
ATOM     16  C   UNL     1       7.701   4.237  12.576  0.00  0.00    +0.000 A 
ATOM     17  C   UNL     1       6.936   3.294  11.889  0.00  0.00    +0.000 A 
ATOM     18 CL   UNL     1       7.612   2.462  10.543  0.00  0.00    +0.000 Cl
ATOM     19  C   UNL     1       5.635   3.007  12.298  0.00  0.00    +0.000 A 
ATOM     20  C   UNL     1       5.106   3.649  13.420  0.00  0.00    +0.000 A 
ENDBRANCH   2  14
TORSDOF 3
ENDMDL
MODEL 8
REMARK VINA RESULT:      -6.1      3.901      5.222
REMARK  Name = 
REMARK  6 active torsions:
REMARK  status: ('A' for Active; 'I' for Inactive)
REMARK    1  A    between atoms: C_1  and  C_2
REMARK    2  A    between atoms: C_2  and  N_3
REMARK    3  A    between atoms: C_5  and  C_6
REMARK    4  A    between atoms: C_7  and  N_8
REMARK    5  A    between atoms: C_9  and  C_11
REMARK    6  A    between atoms: C_18  and  C_19
REMARK                            x       y       z     vdW  Elec       q    Type
REMARK                         _______ _______ _______ _____ _____    ______ ____
ROOT
ATOM      1  N   UNL     1       5.287   4.132  17.486  0.00  0.00    +0.000 N 
ATOM      2  C   UNL     1       4.150   4.791  17.919  0.00  0.00    +0.000 C 
ATOM      3  O   UNL     1       3.710   5.844  17.460  0.00  0.00    +0.000 OA
ATOM      4  H   UNL     1       5.299   3.128  17.619  0.00  0.00    +0.000 HD
ENDROOT
BRANCH   1   9
ATOM      5  N   UNL     1       7.012   4.983  14.494  0.00  0.00    +0.000 N 
ATOM      6  N   UNL     1       7.623   5.849  15.328  0.00  0.00    +0.000 NA
ATOM      7  C   UNL     1       7.055   5.613  16.516  0.00  0.00    +0.000 A 
ATOM      8  C   UNL     1       7.550   6.298  17.731  0.00  0.00    +0.000 C 
ATOM      9  C   UNL     1       6.059   4.606  16.435  0.00  0.00    +0.000 A 
ATOM     10  C   UNL     1       6.024   4.241  15.103  0.00  0.00    +0.000 A 
ATOM     11  C   UNL     1       5.144   3.309  14.348  0.00  0.00    +0.000 C 
BRANCH   5  13
ATOM     12  C   UNL     1       8.595   5.869  12.820  0.00  0.00    +0.000 C 
ATOM     13  C   UNL     1       7.438   4.929  13.108  0.00  0.00    +0.000 C 
ENDBRANCH   5  13
ENDBRANCH   1   9
BRANCH   2  14
ATOM     14  C   UNL     1       3.357   4.090  18.970  0.00  0.00    +0.000 A 
ATOM     15  C   UNL     1       3.915   3.088  19.776  0.00  0.00    +0.000 A 
ATOM     16  C   UNL     1       3.161   2.529  20.816  0.00  0.00    +0.000 A 
ATOM     17  C   UNL     1       1.857   2.966  21.048  0.00  0.00    +0.000 A 
ATOM     18 CL   UNL     1       0.956   2.313  22.361  0.00  0.00    +0.000 Cl
ATOM     19  C   UNL     1       1.286   3.942  20.234  0.00  0.00    +0.000 A 
ATOM     20  C   UNL     1       2.036   4.505  19.198  0.00  0.00    +0.000 A 
ENDBRANCH   2  14
TORSDOF 3
ENDMDL
MODEL 9
REMARK VINA RESULT:      -6.0      1.441      2.723
REMARK  Name = 
REMARK  6 active torsions:
REMARK  status: ('A' for Active; 'I' for Inactive)
REMARK    1  A    between atoms: C_1  and  C_2
REMARK    2  A    between atoms: C_2  and  N_3
REMARK    3  A    between atoms: C_5  and  C_6
REMARK    4  A    between atoms: C_7  and  N_8
REMARK    5  A    between atoms: C_9  and  C_11
REMARK    6  A    between atoms: C_18  and  C_19
REMARK                            x       y       z     vdW  Elec       q    Type
REMARK                         _______ _______ _______ _____ _____    ______ ____
ROOT
ATOM      1  N   UNL     1       4.216   6.744  18.297  0.00  0.00    +0.000 N 
ATOM      2  C   UNL     1       3.222   7.601  17.859  0.00  0.00    +0.000 C 
ATOM      3  O   UNL     1       3.032   7.947  16.693  0.00  0.00    +0.000 OA
ATOM      4  H   UNL     1       4.014   6.217  19.138  0.00  0.00    +0.000 HD
ENDROOT
BRANCH   1   9
ATOM      5  N   UNL     1       6.172   4.827  16.027  0.00  0.00    +0.000 N 
ATOM      6  N   UNL     1       7.018   5.865  16.189  0.00  0.00    +0.000 NA
ATOM      7  C   UNL     1       6.384   6.669  17.050  0.00  0.00    +0.000 A 
ATOM      8  C   UNL     1       7.055   7.881  17.574  0.00  0.00    +0.000 C 
ATOM      9  C   UNL     1       5.117   6.152  17.423  0.00  0.00    +0.000 A 
ATOM     10  C   UNL     1       4.987   4.973  16.714  0.00  0.00    +0.000 A 
ATOM     11  C   UNL     1       3.865   4.005  16.588  0.00  0.00    +0.000 C 
BRANCH   5  13
ATOM     12  C   UNL     1       6.183   3.918  13.732  0.00  0.00    +0.000 C 
ATOM     13  C   UNL     1       6.580   3.718  15.183  0.00  0.00    +0.000 C 
ENDBRANCH   5  13
ENDBRANCH   1   9
BRANCH   2  14
ATOM     14  C   UNL     1       2.254   8.052  18.898  0.00  0.00    +0.000 A 
ATOM     15  C   UNL     1       2.111   7.382  20.121  0.00  0.00    +0.000 A 
ATOM     16  C   UNL     1       1.262   7.901  21.107  0.00  0.00    +0.000 A 
ATOM     17  C   UNL     1       0.556   9.081  20.871  0.00  0.00    +0.000 A 
ATOM     18 CL   UNL     1      -0.443   9.741  22.107  0.00  0.00    +0.000 Cl
ATOM     19  C   UNL     1       0.671   9.739  19.649  0.00  0.00    +0.000 A 
ATOM     20  C   UNL     1       1.521   9.227  18.665  0.00  0.00    +0.000 A 
ENDBRANCH   2  14
TORSDOF 3
ENDMDL
