MODEL 1
REMARK VINA RESULT:      -6.6      0.000      0.000
REMARK  Name = 
REMARK  15 active torsions:
REMARK  status: ('A' for Active; 'I' for Inactive)
REMARK    1  A    between atoms: C_1  and  O_2
REMARK    2  A    between atoms: O_2  and  C_3
REMARK    3  A    between atoms: C_6  and  C_7
REMARK    4  A    between atoms: C_7  and  N_8
REMARK    5  A    between atoms: C_7  and  C_16
REMARK    6  A    between atoms: C_9  and  O_11
REMARK    7  A    between atoms: O_11  and  C_12
REMARK    8  A    between atoms: C_12  and  C_13
REMARK    9  A    between atoms: C_12  and  C_14
REMARK   10  A    between atoms: C_12  and  C_15
REMARK   11  A    between atoms: C_16  and  O_18
REMARK   12  A    between atoms: O_18  and  C_19
REMARK   13  A    between atoms: C_19  and  C_20
REMARK   14  A    between atoms: C_19  and  C_21
REMARK   15  A    between atoms: C_19  and  C_22
REMARK                            x       y       z     vdW  Elec       q    Type
REMARK                         _______ _______ _______ _____ _____    ______ ____
ROOT
ATOM      1  C   UNL     1       3.086   7.089  17.618  0.00  0.00    +0.000 C 
ENDROOT
BRANCH   1   5
ATOM      2  C   UNL     1       1.334   3.844  19.933  0.00  0.00    +0.000 A 
ATOM      3  C   UNL     1       1.892   4.958  20.561  0.00  0.00    +0.000 A 
ATOM      4  C   UNL     1       2.449   5.996  19.810  0.00  0.00    +0.000 A 
ATOM      5  C   UNL     1       2.473   5.938  18.408  0.00  0.00    +0.000 A 
ATOM      6  C   UNL     1       1.923   4.807  17.785  0.00  0.00    +0.000 A 
ATOM      7  C   UNL     1       1.348   3.774  18.541  0.00  0.00    +0.000 A 
BRANCH   2   9
ATOM      8  C   UNL     1       1.684   2.526  21.879  0.00  0.00    +0.000 C 
ATOM      9  O   UNL     1       0.854   2.884  20.780  0.00  0.00    +0.000 OA
ENDBRANCH   2   9
ENDBRANCH   1   5
BRANCH   1  10
ATOM     10  N   UNL     1       2.888   8.356  18.306  0.00  0.00    +0.000 N 
ATOM     11  C   UNL     1       1.801   9.123  18.006  0.00  0.00    +0.000 C 
ATOM     12  O   UNL     1       1.001   8.838  17.127  0.00  0.00    +0.000 OA
ATOM     13  H   UNL     1       3.493   8.645  19.061  0.00  0.00    +0.000 HD
BRANCH  11  14
ATOM     14  O   UNL     1       1.737  10.212  18.815  0.00  0.00    +0.000 OA
BRANCH  14  15
ATOM     15  C   UNL     1       0.686  10.291  19.821  0.00  0.00    +0.000 C 
ATOM     16  C   UNL     1       0.713   9.081  20.767  0.00  0.00    +0.000 C 
ATOM     17  C   UNL     1       0.990  11.549  20.653  0.00  0.00    +0.000 C 
ATOM     18  C   UNL     1      -0.694  10.476  19.174  0.00  0.00    +0.000 C 
ENDBRANCH  14  15
ENDBRANCH  11  14
ENDBRANCH   1  10
BRANCH   1  19
ATOM     19  C   UNL     1       4.527   6.775  17.146  0.00  0.00    +0.000 C 
ATOM     20  O   UNL     1       4.892   7.025  15.996  0.00  0.00    +0.000 OA
BRANCH  19  21
ATOM     21  O   UNL     1       5.313   6.181  18.088  0.00  0.00    +0.000 OA
BRANCH  21  22
ATOM     22  C   UNL     1       5.830   4.839  17.829  0.00  0.00    +0.000 C 
ATOM     23  C   UNL     1       7.368   4.846  17.791  0.00  0.00    +0.000 C 
ATOM     24  C   UNL     1       5.400   3.948  19.008  0.00  0.00    +0.000 C 
ATOM     25  C   UNL     1       5.216   4.236  16.557  0.00  0.00    +0.000 C 
ENDBRANCH  21  22
ENDBRANCH  19  21
ENDBRANCH   1  19
TORSDOF 8
ENDMDL
MODEL 2
REMARK VINA RESULT:      -6.5      1.703      6.164
REMARK  Name = 
REMARK  15 active torsions:
REMARK  status: ('A' for Active; 'I' for Inactive)
REMARK    1  A    between atoms: C_1  and  O_2
REMARK    2  A    between atoms: O_2  and  C_3
REMARK    3  A    between atoms: C_6  and  C_7
REMARK    4  A    between atoms: C_7  and  N_8
REMARK    5  A    between atoms: C_7  and  C_16
REMARK    6  A    between atoms: C_9  and  O_11
REMARK    7  A    between atoms: O_11  and  C_12
REMARK    8  A    between atoms: C_12  and  C_13
REMARK    9  A    between atoms: C_12  and  C_14
REMARK   10  A    between atoms: C_12  and  C_15
REMARK   11  A    between atoms: C_16  and  O_18
REMARK   12  A    between atoms: O_18  and  C_19
REMARK   13  A    between atoms: C_19  and  C_20
REMARK   14  A    between atoms: C_19  and  C_21
REMARK   15  A    between atoms: C_19  and  C_22
REMARK                            x       y       z     vdW  Elec       q    Type
REMARK                         _______ _______ _______ _____ _____    ______ ____
ROOT
ATOM      1  C   UNL     1       2.801   6.001  18.336  0.00  0.00    +0.000 C 
ENDROOT
BRANCH   1   5
ATOM      2  C   UNL     1       1.027   9.821  19.442  0.00  0.00    +0.000 A 
ATOM      3  C   UNL     1       1.373   9.544  18.119  0.00  0.00    +0.000 A 
ATOM      4  C   UNL     1       1.940   8.314  17.772  0.00  0.00    +0.000 A 
ATOM      5  C   UNL     1       2.184   7.334  18.747  0.00  0.00    +0.000 A 
ATOM      6  C   UNL     1       1.847   7.627  20.078  0.00  0.00    +0.000 A 
ATOM      7  C   UNL     1       1.262   8.856  20.420  0.00  0.00    +0.000 A 
BRANCH   2   9
ATOM      8  C   UNL     1       1.301  12.170  19.210  0.00  0.00    +0.000 C 
ATOM      9  O   UNL     1       0.515  11.071  19.654  0.00  0.00    +0.000 OA
ENDBRANCH   2   9
ENDBRANCH   1   5
BRANCH   1  10
ATOM     10  N   UNL     1       4.054   5.768  19.040  0.00  0.00    +0.000 N 
ATOM     11  C   UNL     1       5.050   5.069  18.425  0.00  0.00    +0.000 C 
ATOM     12  O   UNL     1       4.930   4.557  17.322  0.00  0.00    +0.000 OA
ATOM     13  H   UNL     1       4.235   6.181  19.942  0.00  0.00    +0.000 HD
BRANCH  11  14
ATOM     14  O   UNL     1       6.169   5.039  19.196  0.00  0.00    +0.000 OA
BRANCH  14  15
ATOM     15  C   UNL     1       7.435   5.485  18.632  0.00  0.00    +0.000 C 
ATOM     16  C   UNL     1       7.300   6.850  17.939  0.00  0.00    +0.000 C 
ATOM     17  C   UNL     1       8.395   5.652  19.823  0.00  0.00    +0.000 C 
ATOM     18  C   UNL     1       8.031   4.428  17.691  0.00  0.00    +0.000 C 
ENDBRANCH  14  15
ENDBRANCH  11  14
ENDBRANCH   1  10
BRANCH   1  19
ATOM     19  C   UNL     1       1.770   4.846  18.358  0.00  0.00    +0.000 C 
ATOM     20  O   UNL     1       1.263   4.421  17.317  0.00  0.00    +0.000 OA
BRANCH  19  21
ATOM     21  O   UNL     1       1.461   4.388  19.604  0.00  0.00    +0.000 OA
BRANCH  21  22
ATOM     22  C   UNL     1       1.633   2.966  19.893  0.00  0.00    +0.000 C 
ATOM     23  C   UNL     1       1.437   2.688  21.393  0.00  0.00    +0.000 C 
ATOM     24  C   UNL     1       0.529   2.208  19.134  0.00  0.00    +0.000 C 
ATOM     25  C   UNL     1       2.981   2.445  19.373  0.00  0.00    +0.000 C 
ENDBRANCH  21  22
ENDBRANCH  19  21
ENDBRANCH   1  19
TORSDOF 8
ENDMDL
MODEL 3
REMARK VINA RESULT:      -6.4      1.674      6.042
REMARK  Name = 
REMARK  15 active torsions:
REMARK  status: ('A' for Active; 'I' for Inactive)
REMARK    1  A    between atoms: C_1  and  O_2
REMARK    2  A    between atoms: O_2  and  C_3
REMARK    3  A    between atoms: C_6  and  C_7
REMARK    4  A    between atoms: C_7  and  N_8
REMARK    5  A    between atoms: C_7  and  C_16
REMARK    6  A    between atoms: C_9  and  O_11
REMARK    7  A    between atoms: O_11  and  C_12
REMARK    8  A    between atoms: C_12  and  C_13
REMARK    9  A    between atoms: C_12  and  C_14
REMARK   10  A    between atoms: C_12  and  C_15
REMARK   11  A    between atoms: C_16  and  O_18
REMARK   12  A    between atoms: O_18  and  C_19
REMARK   13  A    between atoms: C_19  and  C_20
REMARK   14  A    between atoms: C_19  and  C_21
REMARK   15  A    between atoms: C_19  and  C_22
REMARK                            x       y       z     vdW  Elec       q    Type
REMARK                         _______ _______ _______ _____ _____    ______ ____
ROOT
ATOM      1  C   UNL     1       2.741   6.082  18.292  0.00  0.00    +0.000 C 
ENDROOT
BRANCH   1   5
ATOM      2  C   UNL     1       0.919   9.851  19.494  0.00  0.00    +0.000 A 
ATOM      3  C   UNL     1       1.217   8.863  20.433  0.00  0.00    +0.000 A 
ATOM      4  C   UNL     1       1.804   7.657  20.039  0.00  0.00    +0.000 A 
ATOM      5  C   UNL     1       2.097   7.407  18.689  0.00  0.00    +0.000 A 
ATOM      6  C   UNL     1       1.780   8.400  17.749  0.00  0.00    +0.000 A 
ATOM      7  C   UNL     1       1.207   9.616  18.150  0.00  0.00    +0.000 A 
BRANCH   2   9
ATOM      8  C   UNL     1       1.150  11.885  20.699  0.00  0.00    +0.000 C 
ATOM      9  O   UNL     1       0.315  10.967  20.002  0.00  0.00    +0.000 OA
ENDBRANCH   2   9
ENDBRANCH   1   5
BRANCH   1  10
ATOM     10  N   UNL     1       4.004   5.889  18.990  0.00  0.00    +0.000 N 
ATOM     11  C   UNL     1       5.017   5.217  18.371  0.00  0.00    +0.000 C 
ATOM     12  O   UNL     1       4.905   4.697  17.271  0.00  0.00    +0.000 OA
ATOM     13  H   UNL     1       4.179   6.310  19.889  0.00  0.00    +0.000 HD
BRANCH  11  14
ATOM     14  O   UNL     1       6.140   5.223  19.135  0.00  0.00    +0.000 OA
BRANCH  14  15
ATOM     15  C   UNL     1       7.415   5.581  18.526  0.00  0.00    +0.000 C 
ATOM     16  C   UNL     1       7.335   6.929  17.795  0.00  0.00    +0.000 C 
ATOM     17  C   UNL     1       8.412   5.731  19.688  0.00  0.00    +0.000 C 
ATOM     18  C   UNL     1       7.927   4.464  17.606  0.00  0.00    +0.000 C 
ENDBRANCH  14  15
ENDBRANCH  11  14
ENDBRANCH   1  10
BRANCH   1  19
ATOM     19  C   UNL     1       1.737   4.904  18.340  0.00  0.00    +0.000 C 
ATOM     20  O   UNL     1       1.215   4.467  17.312  0.00  0.00    +0.000 OA
BRANCH  19  21
ATOM     21  O   UNL     1       1.468   4.441  19.594  0.00  0.00    +0.000 OA
BRANCH  21  22
ATOM     22  C   UNL     1       1.648   3.018  19.871  0.00  0.00    +0.000 C 
ATOM     23  C   UNL     1       1.396   2.716  21.358  0.00  0.00    +0.000 C 
ATOM     24  C   UNL     1       0.585   2.256  19.058  0.00  0.00    +0.000 C 
ATOM     25  C   UNL     1       3.023   2.521  19.398  0.00  0.00    +0.000 C 
ENDBRANCH  21  22
ENDBRANCH  19  21
ENDBRANCH   1  19
TORSDOF 8
ENDMDL
MODEL 4
REMARK VINA RESULT:      -6.4      1.727      5.996
REMARK  Name = 
REMARK  15 active torsions:
REMARK  status: ('A' for Active; 'I' for Inactive)
REMARK    1  A    between atoms: C_1  and  O_2
REMARK    2  A    between atoms: O_2  and  C_3
REMARK    3  A    between atoms: C_6  and  C_7
REMARK    4  A    between atoms: C_7  and  N_8
REMARK    5  A    between atoms: C_7  and  C_16
REMARK    6  A    between atoms: C_9  and  O_11
REMARK    7  A    between atoms: O_11  and  C_12
REMARK    8  A    between atoms: C_12  and  C_13
REMARK    9  A    between atoms: C_12  and  C_14
REMARK   10  A    between atoms: C_12  and  C_15
REMARK   11  A    between atoms: C_16  and  O_18
REMARK   12  A    between atoms: O_18  and  C_19
REMARK   13  A    between atoms: C_19  and  C_20
REMARK   14  A    between atoms: C_19  and  C_21
REMARK   15  A    between atoms: C_19  and  C_22
REMARK                            x       y       z     vdW  Elec       q    Type
REMARK                         _______ _______ _______ _____ _____    ______ ____
ROOT
ATOM      1  C   UNL     1       2.822   5.937  18.226  0.00  0.00    +0.000 C 
ENDROOT
BRANCH   1   5
ATOM      2  C   UNL     1       1.154   9.775  19.431  0.00  0.00    +0.000 A 
ATOM      3  C   UNL     1       1.349   8.751  20.358  0.00  0.00    +0.000 A 
ATOM      4  C   UNL     1       1.888   7.523  19.964  0.00  0.00    +0.000 A 
ATOM      5  C   UNL     1       2.233   7.287  18.624  0.00  0.00    +0.000 A 
ATOM      6  C   UNL     1       2.020   8.316  17.695  0.00  0.00    +0.000 A 
ATOM      7  C   UNL     1       1.496   9.554  18.097  0.00  0.00    +0.000 A 
BRANCH   2   9
ATOM      8  C   UNL     1      -0.781  11.140  19.626  0.00  0.00    +0.000 C 
ATOM      9  O   UNL     1       0.589  10.912  19.937  0.00  0.00    +0.000 OA
ENDBRANCH   2   9
ENDBRANCH   1   5
BRANCH   1  10
ATOM     10  N   UNL     1       4.094   5.706  18.896  0.00  0.00    +0.000 N 
ATOM     11  C   UNL     1       5.006   4.862  18.334  0.00  0.00    +0.000 C 
ATOM     12  O   UNL     1       4.790   4.222  17.316  0.00  0.00    +0.000 OA
ATOM     13  H   UNL     1       4.352   6.218  19.726  0.00  0.00    +0.000 HD
BRANCH  11  14
ATOM     14  O   UNL     1       6.161   4.851  19.049  0.00  0.00    +0.000 OA
BRANCH  14  15
ATOM     15  C   UNL     1       7.343   5.507  18.505  0.00  0.00    +0.000 C 
ATOM     16  C   UNL     1       8.341   5.886  19.609  0.00  0.00    +0.000 C 
ATOM     17  C   UNL     1       8.019   4.471  17.591  0.00  0.00    +0.000 C 
ATOM     18  C   UNL     1       6.961   6.719  17.643  0.00  0.00    +0.000 C 
ENDBRANCH  14  15
ENDBRANCH  11  14
ENDBRANCH   1  10
BRANCH   1  19
ATOM     19  C   UNL     1       1.779   4.795  18.310  0.00  0.00    +0.000 C 
ATOM     20  O   UNL     1       1.222   4.364  17.298  0.00  0.00    +0.000 OA
BRANCH  19  21
ATOM     21  O   UNL     1       1.521   4.356  19.574  0.00  0.00    +0.000 OA
BRANCH  21  22
ATOM     22  C   UNL     1       1.592   2.923  19.850  0.00  0.00    +0.000 C 
ATOM     23  C   UNL     1       3.006   2.384  19.576  0.00  0.00    +0.000 C 
ATOM     24  C   UNL     1       1.307   2.732  21.351  0.00  0.00    +0.000 C 
ATOM     25  C   UNL     1       0.511   2.148  19.081  0.00  0.00    +0.000 C 
ENDBRANCH  21  22
ENDBRANCH  19  21
ENDBRANCH   1  19
TORSDOF 8
ENDMDL
MODEL 5
REMARK VINA RESULT:      -6.3      0.851      1.396
REMARK  Name = 
REMARK  15 active torsions:
REMARK  status: ('A' for Active; 'I' for Inactive)
REMARK    1  A    between atoms: C_1  and  O_2
REMARK    2  A    between atoms: O_2  and  C_3
REMARK    3  A    between atoms: C_6  and  C_7
REMARK    4  A    between atoms: C_7  and  N_8
REMARK    5  A    between atoms: C_7  and  C_16
REMARK    6  A    between atoms: C_9  and  O_11
REMARK    7  A    between atoms: O_11  and  C_12
REMARK    8  A    between atoms: C_12  and  C_13
REMARK    9  A    between atoms: C_12  and  C_14
REMARK   10  A    between atoms: C_12  and  C_15
REMARK   11  A    between atoms: C_16  and  O_18
REMARK   12  A    between atoms: O_18  and  C_19
REMARK   13  A    between atoms: C_19  and  C_20
REMARK   14  A    between atoms: C_19  and  C_21
REMARK   15  A    between atoms: C_19  and  C_22
REMARK                            x       y       z     vdW  Elec       q    Type
REMARK                         _______ _______ _______ _____ _____    ______ ____
ROOT
ATOM      1  C   UNL     1       3.217   7.143  17.507  0.00  0.00    +0.000 C 
ENDROOT
BRANCH   1   5
ATOM      2  C   UNL     1       1.495   3.988  19.966  0.00  0.00    +0.000 A 
ATOM      3  C   UNL     1       1.520   3.886  18.575  0.00  0.00    +0.000 A 
ATOM      4  C   UNL     1       2.077   4.902  17.793  0.00  0.00    +0.000 A 
ATOM      5  C   UNL     1       2.614   6.054  18.388  0.00  0.00    +0.000 A 
ATOM      6  C   UNL     1       2.572   6.156  19.787  0.00  0.00    +0.000 A 
ATOM      7  C   UNL     1       2.028   5.126  20.570  0.00  0.00    +0.000 A 
BRANCH   2   9
ATOM      8  C   UNL     1       1.478   2.527  21.839  0.00  0.00    +0.000 C 
ATOM      9  O   UNL     1       0.893   2.945  20.611  0.00  0.00    +0.000 OA
ENDBRANCH   2   9
ENDBRANCH   1   5
BRANCH   1  10
ATOM     10  N   UNL     1       2.998   8.461  18.086  0.00  0.00    +0.000 N 
ATOM     11  C   UNL     1       1.797   9.082  17.910  0.00  0.00    +0.000 C 
ATOM     12  O   UNL     1       0.896   8.620  17.225  0.00  0.00    +0.000 OA
ATOM     13  H   UNL     1       3.685   8.894  18.685  0.00  0.00    +0.000 HD
BRANCH  11  14
ATOM     14  O   UNL     1       1.748  10.250  18.601  0.00  0.00    +0.000 OA
BRANCH  14  15
ATOM     15  C   UNL     1       0.736  10.426  19.634  0.00  0.00    +0.000 C 
ATOM     16  C   UNL     1       0.723   9.250  20.623  0.00  0.00    +0.000 C 
ATOM     17  C   UNL     1       1.138  11.692  20.410  0.00  0.00    +0.000 C 
ATOM     18  C   UNL     1      -0.650  10.669  19.021  0.00  0.00    +0.000 C 
ENDBRANCH  14  15
ENDBRANCH  11  14
ENDBRANCH   1  10
BRANCH   1  19
ATOM     19  C   UNL     1       4.666   6.811  17.073  0.00  0.00    +0.000 C 
ATOM     20  O   UNL     1       5.029   6.947  15.902  0.00  0.00    +0.000 OA
BRANCH  19  21
ATOM     21  O   UNL     1       5.461   6.334  18.072  0.00  0.00    +0.000 OA
BRANCH  21  22
ATOM     22  C   UNL     1       6.893   6.187  17.823  0.00  0.00    +0.000 C 
ATOM     23  C   UNL     1       7.522   7.540  17.449  0.00  0.00    +0.000 C 
ATOM     24  C   UNL     1       7.541   5.725  19.141  0.00  0.00    +0.000 C 
ATOM     25  C   UNL     1       7.174   5.101  16.774  0.00  0.00    +0.000 C 
ENDBRANCH  21  22
ENDBRANCH  19  21
ENDBRANCH   1  19
TORSDOF 8
ENDMDL
MODEL 6
REMARK VINA RESULT:      -6.3      1.741      6.108
REMARK  Name = 
REMARK  15 active torsions:
REMARK  status: ('A' for Active; 'I' for Inactive)
REMARK    1  A    between atoms: C_1  and  O_2
REMARK    2  A    between atoms: O_2  and  C_3
REMARK    3  A    between atoms: C_6  and  C_7
REMARK    4  A    between atoms: C_7  and  N_8
REMARK    5  A    between atoms: C_7  and  C_16
REMARK    6  A    between atoms: C_9  and  O_11
REMARK    7  A    between atoms: O_11  and  C_12
REMARK    8  A    between atoms: C_12  and  C_13
REMARK    9  A    between atoms: C_12  and  C_14
REMARK   10  A    between atoms: C_12  and  C_15
REMARK   11  A    between atoms: C_16  and  O_18
REMARK   12  A    between atoms: O_18  and  C_19
REMARK   13  A    between atoms: C_19  and  C_20
REMARK   14  A    between atoms: C_19  and  C_21
REMARK   15  A    between atoms: C_19  and  C_22
REMARK                            x       y       z     vdW  Elec       q    Type
REMARK                         _______ _______ _______ _____ _____    ______ ____
ROOT
ATOM      1  C   UNL     1       2.778   5.974  18.331  0.00  0.00    +0.000 C 
ENDROOT
BRANCH   1   5
ATOM      2  C   UNL     1       1.042   9.773  19.560  0.00  0.00    +0.000 A 
ATOM      3  C   UNL     1       1.405   9.542  18.233  0.00  0.00    +0.000 A 
ATOM      4  C   UNL     1       1.959   8.319  17.846  0.00  0.00    +0.000 A 
ATOM      5  C   UNL     1       2.174   7.298  18.786  0.00  0.00    +0.000 A 
ATOM      6  C   UNL     1       1.820   7.544  20.121  0.00  0.00    +0.000 A 
ATOM      7  C   UNL     1       1.248   8.767  20.503  0.00  0.00    +0.000 A 
BRANCH   2   9
ATOM      8  C   UNL     1       0.902  12.051  18.900  0.00  0.00    +0.000 C 
ATOM      9  O   UNL     1       0.544  11.020  19.814  0.00  0.00    +0.000 OA
ENDBRANCH   2   9
ENDBRANCH   1   5
BRANCH   1  10
ATOM     10  N   UNL     1       4.044   5.720  19.005  0.00  0.00    +0.000 N 
ATOM     11  C   UNL     1       4.982   4.936  18.402  0.00  0.00    +0.000 C 
ATOM     12  O   UNL     1       4.796   4.365  17.337  0.00  0.00    +0.000 OA
ATOM     13  H   UNL     1       4.278   6.177  19.874  0.00  0.00    +0.000 HD
BRANCH  11  14
ATOM     14  O   UNL     1       6.125   4.896  19.134  0.00  0.00    +0.000 OA
BRANCH  14  15
ATOM     15  C   UNL     1       7.360   5.412  18.557  0.00  0.00    +0.000 C 
ATOM     16  C   UNL     1       7.956   4.437  17.530  0.00  0.00    +0.000 C 
ATOM     17  C   UNL     1       6.974   6.703  17.816  0.00  0.00    +0.000 C 
ATOM     18  C   UNL     1       8.375   5.779  19.649  0.00  0.00    +0.000 C 
ENDBRANCH  14  15
ENDBRANCH  11  14
ENDBRANCH   1  10
BRANCH   1  19
ATOM     19  C   UNL     1       1.744   4.821  18.346  0.00  0.00    +0.000 C 
ATOM     20  O   UNL     1       1.230   4.410  17.304  0.00  0.00    +0.000 OA
BRANCH  19  21
ATOM     21  O   UNL     1       1.442   4.349  19.589  0.00  0.00    +0.000 OA
BRANCH  21  22
ATOM     22  C   UNL     1       1.580   2.918  19.851  0.00  0.00    +0.000 C 
ATOM     23  C   UNL     1       3.015   2.447  19.559  0.00  0.00    +0.000 C 
ATOM     24  C   UNL     1       1.319   2.702  21.353  0.00  0.00    +0.000 C 
ATOM     25  C   UNL     1       0.528   2.101  19.085  0.00  0.00    +0.000 C 
ENDBRANCH  21  22
ENDBRANCH  19  21
ENDBRANCH   1  19
TORSDOF 8
ENDMDL
MODEL 7
REMARK VINA RESULT:      -6.3      1.643      4.455
REMARK  Name = 
REMARK  15 active torsions:
REMARK  status: ('A' for Active; 'I' for Inactive)
REMARK    1  A    between atoms: C_1  and  O_2
REMARK    2  A    between atoms: O_2  and  C_3
REMARK    3  A    between atoms: C_6  and  C_7
REMARK    4  A    between atoms: C_7  and  N_8
REMARK    5  A    between atoms: C_7  and  C_16
REMARK    6  A    between atoms: C_9  and  O_11
REMARK    7  A    between atoms: O_11  and  C_12
REMARK    8  A    between atoms: C_12  and  C_13
REMARK    9  A    between atoms: C_12  and  C_14
REMARK   10  A    between atoms: C_12  and  C_15
REMARK   11  A    between atoms: C_16  and  O_18
REMARK   12  A    between atoms: O_18  and  C_19
REMARK   13  A    between atoms: C_19  and  C_20
REMARK   14  A    between atoms: C_19  and  C_21
REMARK   15  A    between atoms: C_19  and  C_22
REMARK                            x       y       z     vdW  Elec       q    Type
REMARK                         _______ _______ _______ _____ _____    ______ ____
ROOT
ATOM      1  C   UNL     1       3.026   6.144  19.608  0.00  0.00    +0.000 C 
ENDROOT
BRANCH   1   5
ATOM      2  C   UNL     1       6.454   5.288  17.062  0.00  0.00    +0.000 A 
ATOM      3  C   UNL     1       5.313   5.907  16.551  0.00  0.00    +0.000 A 
ATOM      4  C   UNL     1       4.218   6.181  17.375  0.00  0.00    +0.000 A 
ATOM      5  C   UNL     1       4.236   5.829  18.734  0.00  0.00    +0.000 A 
ATOM      6  C   UNL     1       5.381   5.193  19.238  0.00  0.00    +0.000 A 
ATOM      7  C   UNL     1       6.486   4.936  18.411  0.00  0.00    +0.000 A 
BRANCH   2   9
ATOM      8  C   UNL     1       7.020   4.707  14.830  0.00  0.00    +0.000 C 
ATOM      9  O   UNL     1       7.439   5.045  16.146  0.00  0.00    +0.000 OA
ENDBRANCH   2   9
ENDBRANCH   1   5
BRANCH   1  10
ATOM     10  N   UNL     1       2.267   7.260  19.062  0.00  0.00    +0.000 N 
ATOM     11  C   UNL     1       1.804   8.232  19.899  0.00  0.00    +0.000 C 
ATOM     12  O   UNL     1       1.932   8.189  21.113  0.00  0.00    +0.000 OA
ATOM     13  H   UNL     1       2.143   7.376  18.067  0.00  0.00    +0.000 HD
BRANCH  11  14
ATOM     14  O   UNL     1       1.208   9.232  19.199  0.00  0.00    +0.000 OA
BRANCH  14  15
ATOM     15  C   UNL     1       0.245  10.096  19.869  0.00  0.00    +0.000 C 
ATOM     16  C   UNL     1       0.899  11.390  20.375  0.00  0.00    +0.000 C 
ATOM     17  C   UNL     1      -0.795  10.478  18.802  0.00  0.00    +0.000 C 
ATOM     18  C   UNL     1      -0.486   9.350  20.994  0.00  0.00    +0.000 C 
ENDBRANCH  14  15
ENDBRANCH  11  14
ENDBRANCH   1  10
BRANCH   1  19
ATOM     19  C   UNL     1       2.221   4.874  19.975  0.00  0.00    +0.000 C 
ATOM     20  O   UNL     1       1.235   4.933  20.713  0.00  0.00    +0.000 OA
BRANCH  19  21
ATOM     21  O   UNL     1       2.717   3.718  19.450  0.00  0.00    +0.000 OA
BRANCH  21  22
ATOM     22  C   UNL     1       1.995   3.075  18.356  0.00  0.00    +0.000 C 
ATOM     23  C   UNL     1       2.928   2.153  17.554  0.00  0.00    +0.000 C 
ATOM     24  C   UNL     1       0.902   2.191  18.986  0.00  0.00    +0.000 C 
ATOM     25  C   UNL     1       1.286   4.107  17.466  0.00  0.00    +0.000 C 
ENDBRANCH  21  22
ENDBRANCH  19  21
ENDBRANCH   1  19
TORSDOF 8
ENDMDL
MODEL 8
REMARK VINA RESULT:      -6.2      1.716      6.052
REMARK  Name = 
REMARK  15 active torsions:
REMARK  status: ('A' for Active; 'I' for Inactive)
REMARK    1  A    between atoms: C_1  and  O_2
REMARK    2  A    between atoms: O_2  and  C_3
REMARK    3  A    between atoms: C_6  and  C_7
REMARK    4  A    between atoms: C_7  and  N_8
REMARK    5  A    between atoms: C_7  and  C_16
REMARK    6  A    between atoms: C_9  and  O_11
REMARK    7  A    between atoms: O_11  and  C_12
REMARK    8  A    between atoms: C_12  and  C_13
REMARK    9  A    between atoms: C_12  and  C_14
REMARK   10  A    between atoms: C_12  and  C_15
REMARK   11  A    between atoms: C_16  and  O_18
REMARK   12  A    between atoms: O_18  and  C_19
REMARK   13  A    between atoms: C_19  and  C_20
REMARK   14  A    between atoms: C_19  and  C_21
REMARK   15  A    between atoms: C_19  and  C_22
REMARK                            x       y       z     vdW  Elec       q    Type
REMARK                         _______ _______ _______ _____ _____    ______ ____
ROOT
ATOM      1  C   UNL     1       2.777   6.084  18.317  0.00  0.00    +0.000 C 
ENDROOT
BRANCH   1   5
ATOM      2  C   UNL     1       0.958   9.871  19.461  0.00  0.00    +0.000 A 
ATOM      3  C   UNL     1       1.204   8.875  20.407  0.00  0.00    +0.000 A 
ATOM      4  C   UNL     1       1.791   7.663  20.032  0.00  0.00    +0.000 A 
ATOM      5  C   UNL     1       2.135   7.415  18.694  0.00  0.00    +0.000 A 
ATOM      6  C   UNL     1       1.870   8.416  17.746  0.00  0.00    +0.000 A 
ATOM      7  C   UNL     1       1.297   9.639  18.129  0.00  0.00    +0.000 A 
BRANCH   2   9
ATOM      8  C   UNL     1       0.180  12.077  19.044  0.00  0.00    +0.000 C 
ATOM      9  O   UNL     1       0.349  10.993  19.951  0.00  0.00    +0.000 OA
ENDBRANCH   2   9
ENDBRANCH   1   5
BRANCH   1  10
ATOM     10  N   UNL     1       4.025   5.885  19.040  0.00  0.00    +0.000 N 
ATOM     11  C   UNL     1       5.064   5.251  18.425  0.00  0.00    +0.000 C 
ATOM     12  O   UNL     1       4.989   4.770  17.304  0.00  0.00    +0.000 OA
ATOM     13  H   UNL     1       4.169   6.277  19.958  0.00  0.00    +0.000 HD
BRANCH  11  14
ATOM     14  O   UNL     1       6.167   5.248  19.218  0.00  0.00    +0.000 OA
BRANCH  14  15
ATOM     15  C   UNL     1       7.473   5.502  18.623  0.00  0.00    +0.000 C 
ATOM     16  C   UNL     1       7.816   4.466  17.541  0.00  0.00    +0.000 C 
ATOM     17  C   UNL     1       7.370   6.878  17.945  0.00  0.00    +0.000 C 
ATOM     18  C   UNL     1       8.568   5.586  19.697  0.00  0.00    +0.000 C 
ENDBRANCH  14  15
ENDBRANCH  11  14
ENDBRANCH   1  10
BRANCH   1  19
ATOM     19  C   UNL     1       1.763   4.913  18.352  0.00  0.00    +0.000 C 
ATOM     20  O   UNL     1       1.223   4.505  17.322  0.00  0.00    +0.000 OA
BRANCH  19  21
ATOM     21  O   UNL     1       1.509   4.422  19.598  0.00  0.00    +0.000 OA
BRANCH  21  22
ATOM     22  C   UNL     1       1.650   2.987  19.831  0.00  0.00    +0.000 C 
ATOM     23  C   UNL     1       3.095   2.531  19.564  0.00  0.00    +0.000 C 
ATOM     24  C   UNL     1       1.353   2.735  21.321  0.00  0.00    +0.000 C 
ATOM     25  C   UNL     1       0.623   2.182  19.021  0.00  0.00    +0.000 C 
ENDBRANCH  21  22
ENDBRANCH  19  21
ENDBRANCH   1  19
TORSDOF 8
ENDMDL
MODEL 9
REMARK VINA RESULT:      -6.2      1.749      4.546
REMARK  Name = 
REMARK  15 active torsions:
REMARK  status: ('A' for Active; 'I' for Inactive)
REMARK    1  A    between atoms: C_1  and  O_2
REMARK    2  A    between atoms: O_2  and  C_3
REMARK    3  A    between atoms: C_6  and  C_7
REMARK    4  A    between atoms: C_7  and  N_8
REMARK    5  A    between atoms: C_7  and  C_16
REMARK    6  A    between atoms: C_9  and  O_11
REMARK    7  A    between atoms: O_11  and  C_12
REMARK    8  A    between atoms: C_12  and  C_13
REMARK    9  A    between atoms: C_12  and  C_14
REMARK   10  A    between atoms: C_12  and  C_15
REMARK   11  A    between atoms: C_16  and  O_18
REMARK   12  A    between atoms: O_18  and  C_19
REMARK   13  A    between atoms: C_19  and  C_20
REMARK   14  A    between atoms: C_19  and  C_21
REMARK   15  A    between atoms: C_19  and  C_22
REMARK                            x       y       z     vdW  Elec       q    Type
REMARK                         _______ _______ _______ _____ _____    ______ ____
ROOT
ATOM      1  C   UNL     1       2.736   5.979  18.425  0.00  0.00    +0.000 C 
ENDROOT
BRANCH   1   5
ATOM      2  C   UNL     1       6.235   5.326  15.916  0.00  0.00    +0.000 A 
ATOM      3  C   UNL     1       5.904   6.602  16.374  0.00  0.00    +0.000 A 
ATOM      4  C   UNL     1       4.781   6.802  17.181  0.00  0.00    +0.000 A 
ATOM      5  C   UNL     1       3.953   5.727  17.540  0.00  0.00    +0.000 A 
ATOM      6  C   UNL     1       4.284   4.450  17.063  0.00  0.00    +0.000 A 
ATOM      7  C   UNL     1       5.422   4.249  16.268  0.00  0.00    +0.000 A 
BRANCH   2   9
ATOM      8  C   UNL     1       7.136   4.783  13.786  0.00  0.00    +0.000 C 
ATOM      9  O   UNL     1       7.336   5.271  15.108  0.00  0.00    +0.000 OA
ENDBRANCH   2   9
ENDBRANCH   1   5
BRANCH   1  10
ATOM     10  N   UNL     1       2.176   7.299  18.176  0.00  0.00    +0.000 N 
ATOM     11  C   UNL     1       1.925   8.133  19.226  0.00  0.00    +0.000 C 
ATOM     12  O   UNL     1       2.083   7.808  20.394  0.00  0.00    +0.000 OA
ATOM     13  H   UNL     1       2.043   7.646  17.238  0.00  0.00    +0.000 HD
BRANCH  11  14
ATOM     14  O   UNL     1       1.500   9.347  18.791  0.00  0.00    +0.000 OA
BRANCH  14  15
ATOM     15  C   UNL     1       0.469  10.052  19.541  0.00  0.00    +0.000 C 
ATOM     16  C   UNL     1       0.978  11.398  20.080  0.00  0.00    +0.000 C 
ATOM     17  C   UNL     1      -0.662  10.340  18.539  0.00  0.00    +0.000 C 
ATOM     18  C   UNL     1      -0.106   9.173  20.661  0.00  0.00    +0.000 C 
ENDBRANCH  14  15
ENDBRANCH  11  14
ENDBRANCH   1  10
BRANCH   1  19
ATOM     19  C   UNL     1       1.742   4.791  18.407  0.00  0.00    +0.000 C 
ATOM     20  O   UNL     1       1.273   4.366  17.349  0.00  0.00    +0.000 OA
BRANCH  19  21
ATOM     21  O   UNL     1       1.419   4.306  19.639  0.00  0.00    +0.000 OA
BRANCH  21  22
ATOM     22  C   UNL     1       1.926   2.994  20.034  0.00  0.00    +0.000 C 
ATOM     23  C   UNL     1       3.461   3.009  20.126  0.00  0.00    +0.000 C 
ATOM     24  C   UNL     1       1.381   2.698  21.443  0.00  0.00    +0.000 C 
ATOM     25  C   UNL     1       1.407   1.886  19.104  0.00  0.00    +0.000 C 
ENDBRANCH  21  22
ENDBRANCH  19  21
ENDBRANCH   1  19
TORSDOF 8
ENDMDL
