MODEL 1
REMARK VINA RESULT:      -8.3      0.000      0.000
REMARK  Name = 
REMARK  15 active torsions:
REMARK  status: ('A' for Active; 'I' for Inactive)
REMARK    1  A    between atoms: C_1  and  C_2
REMARK    2  A    between atoms: C_2  and  O_3
REMARK    3  A    between atoms: O_3  and  C_4
REMARK    4  A    between atoms: C_4  and  C_6
REMARK    5  A    between atoms: C_6  and  C_7
REMARK    6  A    between atoms: C_6  and  C_8
REMARK    7  A    between atoms: C_6  and  N_9
REMARK    8  A    between atoms: N_9  and  P_10
REMARK    9  A    between atoms: P_10  and  C_12
REMARK   10  A    between atoms: P_10  and  N_27
REMARK   11  A    between atoms: C_15  and  C_16
REMARK   12  A    between atoms: C_21  and  C_22
REMARK   13  A    between atoms: C_22  and  C_23
REMARK   14  A    between atoms: C_23  and  C_24
REMARK   15  A    between atoms: C_23  and  C_25
REMARK                            x       y       z     vdW  Elec       q    Type
REMARK                         _______ _______ _______ _____ _____    ______ ____
ROOT
ATOM      1  P   UNL     1       3.844   5.076  18.637  0.00  0.00    +0.000 P 
ATOM      2  O   UNL     1       4.950   5.428  19.655  0.00  0.00    +0.000 OA
ENDROOT
BRANCH   1   3
ATOM      3  C   UNL     1       2.604   6.617  18.784  0.00  0.00    +0.000 A 
ATOM      4  C   UNL     1       2.538   7.531  17.748  0.00  0.00    +0.000 A 
ATOM      5  C   UNL     1       1.873   8.664  18.257  0.00  0.00    +0.000 A 
ATOM      6  C   UNL     1       1.562   8.422  19.588  0.00  0.00    +0.000 A 
ATOM      7  O   UNL     1       1.999   7.139  19.917  0.00  0.00    +0.000 OA
BRANCH   6   8
ATOM      8  C   UNL     1       0.911   9.502  20.453  0.00  0.00    +0.000 A 
ATOM      9  N   UNL     1       0.279   9.111  21.639  0.00  0.00    +0.000 NA
ATOM     10  C   UNL     1      -0.270  10.122  22.245  0.00  0.00    +0.000 A 
ATOM     11  N   UNL     1      -1.011  10.022  23.362  0.00  0.00    +0.000 N 
ATOM     12  S   UNL     1      -0.006  11.638  21.506  0.00  0.00    +0.000 S 
ATOM     13  C   UNL     1       0.801  10.857  20.182  0.00  0.00    +0.000 A 
ATOM     14  H   UNL     1      -0.970   9.131  23.861  0.00  0.00    +0.000 HD
ATOM     15  H   UNL     1      -1.169  10.833  23.939  0.00  0.00    +0.000 HD
BRANCH  13  16
ATOM     16  C   UNL     1       1.202  11.711  19.025  0.00  0.00    +0.000 C 
BRANCH  16  17
ATOM     17  C   UNL     1       0.709  13.164  19.139  0.00  0.00    +0.000 C 
ATOM     18  C   UNL     1       1.797  14.210  18.871  0.00  0.00    +0.000 C 
ATOM     19  C   UNL     1      -0.463  13.369  18.182  0.00  0.00    +0.000 C 
ENDBRANCH  16  17
ENDBRANCH  13  16
ENDBRANCH   6   8
ENDBRANCH   1   3
BRANCH   1  20
ATOM     20  N   UNL     1       2.847   4.301  19.892  0.00  0.00    +0.000 NA
ATOM     21  C   UNL     1       3.330   2.917  20.132  0.00  0.00    +0.000 C 
ATOM     22  C   UNL     1       2.533   2.083  19.151  0.00  0.00    +0.000 C 
ATOM     23  C   UNL     1       1.151   2.654  19.330  0.00  0.00    +0.000 C 
ATOM     24  C   UNL     1       1.409   4.140  19.581  0.00  0.00    +0.000 C 
ENDBRANCH   1  20
BRANCH   1  25
ATOM     25  N   UNL     1       4.842   5.852  17.383  0.00  0.00    +0.000 NA
ATOM     26  H   UNL     1       4.331   6.609  16.944  0.00  0.00    +0.000 HD
BRANCH  25  27
ATOM     27  C   UNL     1       5.751   5.174  16.462  0.00  0.00    +0.000 C 
ATOM     28  C   UNL     1       5.505   5.862  15.102  0.00  0.00    +0.000 C 
ATOM     29  C   UNL     1       5.418   3.687  16.353  0.00  0.00    +0.000 C 
BRANCH  27  30
ATOM     30  C   UNL     1       7.249   5.339  16.795  0.00  0.00    +0.000 C 
ATOM     31  O   UNL     1       7.965   4.413  17.161  0.00  0.00    +0.000 OA
BRANCH  30  32
ATOM     32  O   UNL     1       7.662   6.637  16.756  0.00  0.00    +0.000 OA
BRANCH  32  34
ATOM     33  C   UNL     1       8.077   8.744  17.907  0.00  0.00    +0.000 C 
ATOM     34  C   UNL     1       7.882   7.242  18.044  0.00  0.00    +0.000 C 
ENDBRANCH  32  34
ENDBRANCH  30  32
ENDBRANCH  27  30
ENDBRANCH  25  27
ENDBRANCH   1  25
TORSDOF 10
ENDMDL
MODEL 2
REMARK VINA RESULT:      -8.0      1.105      2.026
REMARK  Name = 
REMARK  15 active torsions:
REMARK  status: ('A' for Active; 'I' for Inactive)
REMARK    1  A    between atoms: C_1  and  C_2
REMARK    2  A    between atoms: C_2  and  O_3
REMARK    3  A    between atoms: O_3  and  C_4
REMARK    4  A    between atoms: C_4  and  C_6
REMARK    5  A    between atoms: C_6  and  C_7
REMARK    6  A    between atoms: C_6  and  C_8
REMARK    7  A    between atoms: C_6  and  N_9
REMARK    8  A    between atoms: N_9  and  P_10
REMARK    9  A    between atoms: P_10  and  C_12
REMARK   10  A    between atoms: P_10  and  N_27
REMARK   11  A    between atoms: C_15  and  C_16
REMARK   12  A    between atoms: C_21  and  C_22
REMARK   13  A    between atoms: C_22  and  C_23
REMARK   14  A    between atoms: C_23  and  C_24
REMARK   15  A    between atoms: C_23  and  C_25
REMARK                            x       y       z     vdW  Elec       q    Type
REMARK                         _______ _______ _______ _____ _____    ______ ____
ROOT
ATOM      1  P   UNL     1       4.187   5.124  18.578  0.00  0.00    +0.000 P 
ATOM      2  O   UNL     1       4.816   5.082  19.987  0.00  0.00    +0.000 OA
ENDROOT
BRANCH   1   3
ATOM      3  C   UNL     1       2.878   6.607  18.723  0.00  0.00    +0.000 A 
ATOM      4  C   UNL     1       2.878   7.604  17.764  0.00  0.00    +0.000 A 
ATOM      5  C   UNL     1       2.121   8.667  18.294  0.00  0.00    +0.000 A 
ATOM      6  C   UNL     1       1.690   8.303  19.561  0.00  0.00    +0.000 A 
ATOM      7  O   UNL     1       2.143   7.011  19.827  0.00  0.00    +0.000 OA
BRANCH   6   8
ATOM      8  C   UNL     1       0.914   9.284  20.441  0.00  0.00    +0.000 A 
ATOM      9  N   UNL     1       0.599   8.897  21.748  0.00  0.00    +0.000 NA
ATOM     10  C   UNL     1      -0.101   9.806  22.361  0.00  0.00    +0.000 A 
ATOM     11  N   UNL     1      -0.609   9.662  23.598  0.00  0.00    +0.000 N 
ATOM     12  S   UNL     1      -0.368  11.237  21.469  0.00  0.00    +0.000 S 
ATOM     13  C   UNL     1       0.406  10.525  20.088  0.00  0.00    +0.000 A 
ATOM     14  H   UNL     1      -0.255   8.879  24.150  0.00  0.00    +0.000 HD
ATOM     15  H   UNL     1      -0.887  10.473  24.127  0.00  0.00    +0.000 HD
BRANCH  13  16
ATOM     16  C   UNL     1       0.382  11.302  18.813  0.00  0.00    +0.000 C 
BRANCH  16  17
ATOM     17  C   UNL     1       0.962  12.720  18.952  0.00  0.00    +0.000 C 
ATOM     18  C   UNL     1       2.273  12.931  18.186  0.00  0.00    +0.000 C 
ATOM     19  C   UNL     1      -0.083  13.732  18.490  0.00  0.00    +0.000 C 
ENDBRANCH  16  17
ENDBRANCH  13  16
ENDBRANCH   6   8
ENDBRANCH   1   3
BRANCH   1  20
ATOM     20  N   UNL     1       2.853   4.052  19.073  0.00  0.00    +0.000 NA
ATOM     21  C   UNL     1       3.405   2.816  19.686  0.00  0.00    +0.000 C 
ATOM     22  C   UNL     1       3.570   1.875  18.512  0.00  0.00    +0.000 C 
ATOM     23  C   UNL     1       2.267   2.077  17.785  0.00  0.00    +0.000 C 
ATOM     24  C   UNL     1       1.970   3.562  17.991  0.00  0.00    +0.000 C 
ENDBRANCH   1  20
BRANCH   1  25
ATOM     25  N   UNL     1       5.520   6.196  18.085  0.00  0.00    +0.000 NA
ATOM     26  H   UNL     1       5.346   7.143  18.401  0.00  0.00    +0.000 HD
BRANCH  25  27
ATOM     27  C   UNL     1       6.243   6.146  16.817  0.00  0.00    +0.000 C 
ATOM     28  C   UNL     1       7.435   7.106  17.014  0.00  0.00    +0.000 C 
ATOM     29  C   UNL     1       5.370   6.641  15.664  0.00  0.00    +0.000 C 
BRANCH  27  30
ATOM     30  C   UNL     1       6.825   4.761  16.459  0.00  0.00    +0.000 C 
ATOM     31  O   UNL     1       7.945   4.393  16.795  0.00  0.00    +0.000 OA
BRANCH  30  32
ATOM     32  O   UNL     1       6.014   4.041  15.635  0.00  0.00    +0.000 OA
BRANCH  32  34
ATOM     33  C   UNL     1       5.387   3.864  13.286  0.00  0.00    +0.000 C 
ATOM     34  C   UNL     1       6.521   3.853  14.300  0.00  0.00    +0.000 C 
ENDBRANCH  32  34
ENDBRANCH  30  32
ENDBRANCH  27  30
ENDBRANCH  25  27
ENDBRANCH   1  25
TORSDOF 10
ENDMDL
MODEL 3
REMARK VINA RESULT:      -7.9      2.188      2.632
REMARK  Name = 
REMARK  15 active torsions:
REMARK  status: ('A' for Active; 'I' for Inactive)
REMARK    1  A    between atoms: C_1  and  C_2
REMARK    2  A    between atoms: C_2  and  O_3
REMARK    3  A    between atoms: O_3  and  C_4
REMARK    4  A    between atoms: C_4  and  C_6
REMARK    5  A    between atoms: C_6  and  C_7
REMARK    6  A    between atoms: C_6  and  C_8
REMARK    7  A    between atoms: C_6  and  N_9
REMARK    8  A    between atoms: N_9  and  P_10
REMARK    9  A    between atoms: P_10  and  C_12
REMARK   10  A    between atoms: P_10  and  N_27
REMARK   11  A    between atoms: C_15  and  C_16
REMARK   12  A    between atoms: C_21  and  C_22
REMARK   13  A    between atoms: C_22  and  C_23
REMARK   14  A    between atoms: C_23  and  C_24
REMARK   15  A    between atoms: C_23  and  C_25
REMARK                            x       y       z     vdW  Elec       q    Type
REMARK                         _______ _______ _______ _____ _____    ______ ____
ROOT
ATOM      1  P   UNL     1       2.918   5.539  19.060  0.00  0.00    +0.000 P 
ATOM      2  O   UNL     1       4.139   5.308  19.975  0.00  0.00    +0.000 OA
ENDROOT
BRANCH   1   3
ATOM      3  C   UNL     1       2.243   7.304  19.664  0.00  0.00    +0.000 A 
ATOM      4  C   UNL     1       1.638   7.407  20.903  0.00  0.00    +0.000 A 
ATOM      5  C   UNL     1       0.962   8.643  20.916  0.00  0.00    +0.000 A 
ATOM      6  C   UNL     1       1.159   9.257  19.687  0.00  0.00    +0.000 A 
ATOM      7  O   UNL     1       1.973   8.434  18.908  0.00  0.00    +0.000 OA
BRANCH   6   8
ATOM      8  C   UNL     1       0.475  10.582  19.351  0.00  0.00    +0.000 A 
ATOM      9  N   UNL     1       0.800  11.709  20.115  0.00  0.00    +0.000 NA
ATOM     10  C   UNL     1       0.110  12.750  19.751  0.00  0.00    +0.000 A 
ATOM     11  N   UNL     1       0.161  13.944  20.368  0.00  0.00    +0.000 N 
ATOM     12  S   UNL     1      -0.917  12.504  18.410  0.00  0.00    +0.000 S 
ATOM     13  C   UNL     1      -0.505  10.817  18.398  0.00  0.00    +0.000 A 
ATOM     14  H   UNL     1       0.928  14.086  21.028  0.00  0.00    +0.000 HD
ATOM     15  H   UNL     1      -0.159  14.772  19.892  0.00  0.00    +0.000 HD
BRANCH  13  16
ATOM     16  C   UNL     1      -1.242   9.938  17.443  0.00  0.00    +0.000 C 
BRANCH  16  17
ATOM     17  C   UNL     1      -2.540  10.569  16.911  0.00  0.00    +0.000 C 
ATOM     18  C   UNL     1      -2.769  10.347  15.411  0.00  0.00    +0.000 C 
ATOM     19  C   UNL     1      -3.722  10.023  17.708  0.00  0.00    +0.000 C 
ENDBRANCH  16  17
ENDBRANCH  13  16
ENDBRANCH   6   8
ENDBRANCH   1   3
BRANCH   1  20
ATOM     20  N   UNL     1       1.806   4.833  20.259  0.00  0.00    +0.000 NA
ATOM     21  C   UNL     1       2.572   4.001  21.222  0.00  0.00    +0.000 C 
ATOM     22  C   UNL     1       2.574   2.626  20.589  0.00  0.00    +0.000 C 
ATOM     23  C   UNL     1       1.139   2.499  20.151  0.00  0.00    +0.000 C 
ATOM     24  C   UNL     1       0.767   3.921  19.731  0.00  0.00    +0.000 C 
ENDBRANCH   1  20
BRANCH   1  25
ATOM     25  N   UNL     1       4.031   6.245  17.863  0.00  0.00    +0.000 NA
ATOM     26  H   UNL     1       3.578   7.003  17.364  0.00  0.00    +0.000 HD
BRANCH  25  27
ATOM     27  C   UNL     1       4.985   5.514  17.034  0.00  0.00    +0.000 C 
ATOM     28  C   UNL     1       5.098   6.352  15.744  0.00  0.00    +0.000 C 
ATOM     29  C   UNL     1       4.465   4.117  16.697  0.00  0.00    +0.000 C 
BRANCH  27  30
ATOM     30  C   UNL     1       6.404   5.400  17.632  0.00  0.00    +0.000 C 
ATOM     31  O   UNL     1       7.135   4.431  17.456  0.00  0.00    +0.000 OA
BRANCH  30  32
ATOM     32  O   UNL     1       6.712   6.429  18.468  0.00  0.00    +0.000 OA
BRANCH  32  34
ATOM     33  C   UNL     1       7.888   8.428  17.718  0.00  0.00    +0.000 C 
ATOM     34  C   UNL     1       8.013   7.012  18.259  0.00  0.00    +0.000 C 
ENDBRANCH  32  34
ENDBRANCH  30  32
ENDBRANCH  27  30
ENDBRANCH  25  27
ENDBRANCH   1  25
TORSDOF 10
ENDMDL
MODEL 4
REMARK VINA RESULT:      -7.9      1.265      2.336
REMARK  Name = 
REMARK  15 active torsions:
REMARK  status: ('A' for Active; 'I' for Inactive)
REMARK    1  A    between atoms: C_1  and  C_2
REMARK    2  A    between atoms: C_2  and  O_3
REMARK    3  A    between atoms: O_3  and  C_4
REMARK    4  A    between atoms: C_4  and  C_6
REMARK    5  A    between atoms: C_6  and  C_7
REMARK    6  A    between atoms: C_6  and  C_8
REMARK    7  A    between atoms: C_6  and  N_9
REMARK    8  A    between atoms: N_9  and  P_10
REMARK    9  A    between atoms: P_10  and  C_12
REMARK   10  A    between atoms: P_10  and  N_27
REMARK   11  A    between atoms: C_15  and  C_16
REMARK   12  A    between atoms: C_21  and  C_22
REMARK   13  A    between atoms: C_22  and  C_23
REMARK   14  A    between atoms: C_23  and  C_24
REMARK   15  A    between atoms: C_23  and  C_25
REMARK                            x       y       z     vdW  Elec       q    Type
REMARK                         _______ _______ _______ _____ _____    ______ ____
ROOT
ATOM      1  P   UNL     1       4.508   5.311  18.292  0.00  0.00    +0.000 P 
ATOM      2  O   UNL     1       4.824   4.923  19.752  0.00  0.00    +0.000 OA
ENDROOT
BRANCH   1   3
ATOM      3  C   UNL     1       3.087   6.680  18.498  0.00  0.00    +0.000 A 
ATOM      4  C   UNL     1       3.034   7.737  17.608  0.00  0.00    +0.000 A 
ATOM      5  C   UNL     1       2.187   8.703  18.186  0.00  0.00    +0.000 A 
ATOM      6  C   UNL     1       1.755   8.222  19.413  0.00  0.00    +0.000 A 
ATOM      7  O   UNL     1       2.298   6.951  19.606  0.00  0.00    +0.000 OA
BRANCH   6   8
ATOM      8  C   UNL     1       0.887   9.080  20.334  0.00  0.00    +0.000 A 
ATOM      9  N   UNL     1       0.890   8.797  21.704  0.00  0.00    +0.000 NA
ATOM     10  C   UNL     1       0.073   9.571  22.356  0.00  0.00    +0.000 A 
ATOM     11  N   UNL     1      -0.182   9.464  23.671  0.00  0.00    +0.000 N 
ATOM     12  S   UNL     1      -0.703  10.762  21.411  0.00  0.00    +0.000 S 
ATOM     13  C   UNL     1       0.015  10.098  19.976  0.00  0.00    +0.000 A 
ATOM     14  H   UNL     1       0.450   8.872  24.214  0.00  0.00    +0.000 HD
ATOM     15  H   UNL     1      -0.585  10.239  24.173  0.00  0.00    +0.000 HD
BRANCH  13  16
ATOM     16  C   UNL     1      -0.412  10.674  18.667  0.00  0.00    +0.000 C 
BRANCH  16  17
ATOM     17  C   UNL     1      -1.257  11.952  18.809  0.00  0.00    +0.000 C 
ATOM     18  C   UNL     1      -0.562  13.216  18.291  0.00  0.00    +0.000 C 
ATOM     19  C   UNL     1      -2.587  11.751  18.086  0.00  0.00    +0.000 C 
ENDBRANCH  16  17
ENDBRANCH  13  16
ENDBRANCH   6   8
ENDBRANCH   1   3
BRANCH   1  20
ATOM     20  N   UNL     1       3.187   4.121  18.196  0.00  0.00    +0.000 NA
ATOM     21  C   UNL     1       3.044   3.425  19.500  0.00  0.00    +0.000 C 
ATOM     22  C   UNL     1       3.969   2.233  19.376  0.00  0.00    +0.000 C 
ATOM     23  C   UNL     1       3.634   1.741  17.992  0.00  0.00    +0.000 C 
ATOM     24  C   UNL     1       3.360   3.028  17.214  0.00  0.00    +0.000 C 
ENDBRANCH   1  20
BRANCH   1  25
ATOM     25  N   UNL     1       5.828   6.501  18.390  0.00  0.00    +0.000 NA
ATOM     26  H   UNL     1       5.474   7.435  18.219  0.00  0.00    +0.000 HD
BRANCH  25  27
ATOM     27  C   UNL     1       7.194   6.317  17.907  0.00  0.00    +0.000 C 
ATOM     28  C   UNL     1       7.973   5.805  19.136  0.00  0.00    +0.000 C 
ATOM     29  C   UNL     1       7.794   7.640  17.432  0.00  0.00    +0.000 C 
BRANCH  27  30
ATOM     30  C   UNL     1       7.348   5.258  16.794  0.00  0.00    +0.000 C 
ATOM     31  O   UNL     1       7.803   4.136  16.988  0.00  0.00    +0.000 OA
BRANCH  30  32
ATOM     32  O   UNL     1       7.037   5.738  15.557  0.00  0.00    +0.000 OA
BRANCH  32  34
ATOM     33  C   UNL     1       6.126   3.998  14.114  0.00  0.00    +0.000 C 
ATOM     34  C   UNL     1       5.826   5.206  14.987  0.00  0.00    +0.000 C 
ENDBRANCH  32  34
ENDBRANCH  30  32
ENDBRANCH  27  30
ENDBRANCH  25  27
ENDBRANCH   1  25
TORSDOF 10
ENDMDL
MODEL 5
REMARK VINA RESULT:      -7.8      2.192      3.363
REMARK  Name = 
REMARK  15 active torsions:
REMARK  status: ('A' for Active; 'I' for Inactive)
REMARK    1  A    between atoms: C_1  and  C_2
REMARK    2  A    between atoms: C_2  and  O_3
REMARK    3  A    between atoms: O_3  and  C_4
REMARK    4  A    between atoms: C_4  and  C_6
REMARK    5  A    between atoms: C_6  and  C_7
REMARK    6  A    between atoms: C_6  and  C_8
REMARK    7  A    between atoms: C_6  and  N_9
REMARK    8  A    between atoms: N_9  and  P_10
REMARK    9  A    between atoms: P_10  and  C_12
REMARK   10  A    between atoms: P_10  and  N_27
REMARK   11  A    between atoms: C_15  and  C_16
REMARK   12  A    between atoms: C_21  and  C_22
REMARK   13  A    between atoms: C_22  and  C_23
REMARK   14  A    between atoms: C_23  and  C_24
REMARK   15  A    between atoms: C_23  and  C_25
REMARK                            x       y       z     vdW  Elec       q    Type
REMARK                         _______ _______ _______ _____ _____    ______ ____
ROOT
ATOM      1  P   UNL     1       3.402   5.305  18.649  0.00  0.00    +0.000 P 
ATOM      2  O   UNL     1       4.134   5.618  19.971  0.00  0.00    +0.000 OA
ENDROOT
BRANCH   1   3
ATOM      3  C   UNL     1       2.504   7.022  18.225  0.00  0.00    +0.000 A 
ATOM      4  C   UNL     1       3.236   8.041  17.643  0.00  0.00    +0.000 A 
ATOM      5  C   UNL     1       2.468   9.214  17.781  0.00  0.00    +0.000 A 
ATOM      6  C   UNL     1       1.298   8.888  18.453  0.00  0.00    +0.000 A 
ATOM      7  O   UNL     1       1.306   7.519  18.716  0.00  0.00    +0.000 OA
BRANCH   6   8
ATOM      8  C   UNL     1       0.287   9.968  18.840  0.00  0.00    +0.000 A 
ATOM      9  N   UNL     1      -0.580  10.451  17.852  0.00  0.00    +0.000 NA
ATOM     10  C   UNL     1      -1.349  11.395  18.310  0.00  0.00    +0.000 A 
ATOM     11  N   UNL     1      -2.218  12.092  17.557  0.00  0.00    +0.000 N 
ATOM     12  S   UNL     1      -1.172  11.730  19.974  0.00  0.00    +0.000 S 
ATOM     13  C   UNL     1       0.147  10.603  20.064  0.00  0.00    +0.000 A 
ATOM     14  H   UNL     1      -2.420  11.719  16.627  0.00  0.00    +0.000 HD
ATOM     15  H   UNL     1      -2.973  12.596  17.994  0.00  0.00    +0.000 HD
BRANCH  13  16
ATOM     16  C   UNL     1       0.890  10.521  21.357  0.00  0.00    +0.000 C 
BRANCH  16  17
ATOM     17  C   UNL     1       0.202   9.625  22.401  0.00  0.00    +0.000 C 
ATOM     18  C   UNL     1      -0.884  10.341  23.213  0.00  0.00    +0.000 C 
ATOM     19  C   UNL     1      -0.388   8.405  21.698  0.00  0.00    +0.000 C 
ENDBRANCH  16  17
ENDBRANCH  13  16
ENDBRANCH   6   8
ENDBRANCH   1   3
BRANCH   1  20
ATOM     20  N   UNL     1       1.905   4.867  19.508  0.00  0.00    +0.000 NA
ATOM     21  C   UNL     1       2.205   4.621  20.942  0.00  0.00    +0.000 C 
ATOM     22  C   UNL     1       2.528   3.143  20.995  0.00  0.00    +0.000 C 
ATOM     23  C   UNL     1       1.430   2.569  20.140  0.00  0.00    +0.000 C 
ATOM     24  C   UNL     1       1.229   3.630  19.058  0.00  0.00    +0.000 C 
ENDBRANCH   1  20
BRANCH   1  25
ATOM     25  N   UNL     1       4.898   5.744  17.790  0.00  0.00    +0.000 NA
ATOM     26  H   UNL     1       4.898   6.731  17.562  0.00  0.00    +0.000 HD
BRANCH  25  27
ATOM     27  C   UNL     1       5.590   4.933  16.792  0.00  0.00    +0.000 C 
ATOM     28  C   UNL     1       4.832   3.589  16.792  0.00  0.00    +0.000 C 
ATOM     29  C   UNL     1       7.049   4.701  17.184  0.00  0.00    +0.000 C 
BRANCH  27  30
ATOM     30  C   UNL     1       5.531   5.492  15.354  0.00  0.00    +0.000 C 
ATOM     31  O   UNL     1       5.500   6.691  15.096  0.00  0.00    +0.000 OA
BRANCH  30  32
ATOM     32  O   UNL     1       5.398   4.518  14.410  0.00  0.00    +0.000 OA
BRANCH  32  34
ATOM     33  C   UNL     1       6.233   3.382  12.423  0.00  0.00    +0.000 C 
ATOM     34  C   UNL     1       6.554   4.321  13.575  0.00  0.00    +0.000 C 
ENDBRANCH  32  34
ENDBRANCH  30  32
ENDBRANCH  27  30
ENDBRANCH  25  27
ENDBRANCH   1  25
TORSDOF 10
ENDMDL
MODEL 6
REMARK VINA RESULT:      -7.8      1.354      2.312
REMARK  Name = 
REMARK  15 active torsions:
REMARK  status: ('A' for Active; 'I' for Inactive)
REMARK    1  A    between atoms: C_1  and  C_2
REMARK    2  A    between atoms: C_2  and  O_3
REMARK    3  A    between atoms: O_3  and  C_4
REMARK    4  A    between atoms: C_4  and  C_6
REMARK    5  A    between atoms: C_6  and  C_7
REMARK    6  A    between atoms: C_6  and  C_8
REMARK    7  A    between atoms: C_6  and  N_9
REMARK    8  A    between atoms: N_9  and  P_10
REMARK    9  A    between atoms: P_10  and  C_12
REMARK   10  A    between atoms: P_10  and  N_27
REMARK   11  A    between atoms: C_15  and  C_16
REMARK   12  A    between atoms: C_21  and  C_22
REMARK   13  A    between atoms: C_22  and  C_23
REMARK   14  A    between atoms: C_23  and  C_24
REMARK   15  A    between atoms: C_23  and  C_25
REMARK                            x       y       z     vdW  Elec       q    Type
REMARK                         _______ _______ _______ _____ _____    ______ ____
ROOT
ATOM      1  P   UNL     1       4.110   5.241  18.367  0.00  0.00    +0.000 P 
ATOM      2  O   UNL     1       4.585   4.993  19.814  0.00  0.00    +0.000 OA
ENDROOT
BRANCH   1   3
ATOM      3  C   UNL     1       2.844   6.755  18.571  0.00  0.00    +0.000 A 
ATOM      4  C   UNL     1       2.916   7.818  17.690  0.00  0.00    +0.000 A 
ATOM      5  C   UNL     1       2.173   8.866  18.268  0.00  0.00    +0.000 A 
ATOM      6  C   UNL     1       1.678   8.425  19.487  0.00  0.00    +0.000 A 
ATOM      7  O   UNL     1       2.078   7.102  19.673  0.00  0.00    +0.000 OA
BRANCH   6   8
ATOM      8  C   UNL     1       0.899   9.366  20.407  0.00  0.00    +0.000 A 
ATOM      9  N   UNL     1       0.613   8.936  21.708  0.00  0.00    +0.000 NA
ATOM     10  C   UNL     1      -0.093   9.814  22.358  0.00  0.00    +0.000 A 
ATOM     11  N   UNL     1      -0.577   9.626  23.598  0.00  0.00    +0.000 N 
ATOM     12  S   UNL     1      -0.403  11.263  21.511  0.00  0.00    +0.000 S 
ATOM     13  C   UNL     1       0.361  10.605  20.097  0.00  0.00    +0.000 A 
ATOM     14  H   UNL     1      -0.198   8.834  24.122  0.00  0.00    +0.000 HD
ATOM     15  H   UNL     1      -0.862  10.415  24.155  0.00  0.00    +0.000 HD
BRANCH  13  16
ATOM     16  C   UNL     1       0.300  11.417  18.846  0.00  0.00    +0.000 C 
BRANCH  16  17
ATOM     17  C   UNL     1      -1.036  11.280  18.094  0.00  0.00    +0.000 C 
ATOM     18  C   UNL     1      -1.365   9.844  17.672  0.00  0.00    +0.000 C 
ATOM     19  C   UNL     1      -2.156  11.841  18.966  0.00  0.00    +0.000 C 
ENDBRANCH  16  17
ENDBRANCH  13  16
ENDBRANCH   6   8
ENDBRANCH   1   3
BRANCH   1  20
ATOM     20  N   UNL     1       2.696   4.180  18.581  0.00  0.00    +0.000 NA
ATOM     21  C   UNL     1       3.013   3.118  19.571  0.00  0.00    +0.000 C 
ATOM     22  C   UNL     1       3.579   1.996  18.726  0.00  0.00    +0.000 C 
ATOM     23  C   UNL     1       2.604   1.969  17.579  0.00  0.00    +0.000 C 
ATOM     24  C   UNL     1       2.243   3.441  17.382  0.00  0.00    +0.000 C 
ENDBRANCH   1  20
BRANCH   1  25
ATOM     25  N   UNL     1       5.523   6.302  18.153  0.00  0.00    +0.000 NA
ATOM     26  H   UNL     1       5.355   7.205  18.581  0.00  0.00    +0.000 HD
BRANCH  25  27
ATOM     27  C   UNL     1       6.366   6.389  16.963  0.00  0.00    +0.000 C 
ATOM     28  C   UNL     1       7.376   7.510  17.286  0.00  0.00    +0.000 C 
ATOM     29  C   UNL     1       5.545   6.776  15.734  0.00  0.00    +0.000 C 
BRANCH  27  30
ATOM     30  C   UNL     1       7.179   5.114  16.654  0.00  0.00    +0.000 C 
ATOM     31  O   UNL     1       7.820   4.500  17.500  0.00  0.00    +0.000 OA
BRANCH  30  32
ATOM     32  O   UNL     1       7.208   4.811  15.326  0.00  0.00    +0.000 OA
BRANCH  32  34
ATOM     33  C   UNL     1       6.123   3.762  13.412  0.00  0.00    +0.000 C 
ATOM     34  C   UNL     1       6.303   3.767  14.922  0.00  0.00    +0.000 C 
ENDBRANCH  32  34
ENDBRANCH  30  32
ENDBRANCH  27  30
ENDBRANCH  25  27
ENDBRANCH   1  25
TORSDOF 10
ENDMDL
MODEL 7
REMARK VINA RESULT:      -7.7      1.237      2.295
REMARK  Name = 
REMARK  15 active torsions:
REMARK  status: ('A' for Active; 'I' for Inactive)
REMARK    1  A    between atoms: C_1  and  C_2
REMARK    2  A    between atoms: C_2  and  O_3
REMARK    3  A    between atoms: O_3  and  C_4
REMARK    4  A    between atoms: C_4  and  C_6
REMARK    5  A    between atoms: C_6  and  C_7
REMARK    6  A    between atoms: C_6  and  C_8
REMARK    7  A    between atoms: C_6  and  N_9
REMARK    8  A    between atoms: N_9  and  P_10
REMARK    9  A    between atoms: P_10  and  C_12
REMARK   10  A    between atoms: P_10  and  N_27
REMARK   11  A    between atoms: C_15  and  C_16
REMARK   12  A    between atoms: C_21  and  C_22
REMARK   13  A    between atoms: C_22  and  C_23
REMARK   14  A    between atoms: C_23  and  C_24
REMARK   15  A    between atoms: C_23  and  C_25
REMARK                            x       y       z     vdW  Elec       q    Type
REMARK                         _______ _______ _______ _____ _____    ______ ____
ROOT
ATOM      1  P   UNL     1       4.089   5.353  18.562  0.00  0.00    +0.000 P 
ATOM      2  O   UNL     1       4.700   5.238  19.975  0.00  0.00    +0.000 OA
ENDROOT
BRANCH   1   3
ATOM      3  C   UNL     1       2.777   6.827  18.768  0.00  0.00    +0.000 A 
ATOM      4  C   UNL     1       2.676   7.785  17.776  0.00  0.00    +0.000 A 
ATOM      5  C   UNL     1       1.955   8.860  18.330  0.00  0.00    +0.000 A 
ATOM      6  C   UNL     1       1.646   8.542  19.645  0.00  0.00    +0.000 A 
ATOM      7  O   UNL     1       2.140   7.266  19.919  0.00  0.00    +0.000 OA
BRANCH   6   8
ATOM      8  C   UNL     1       0.939   9.548  20.553  0.00  0.00    +0.000 A 
ATOM      9  N   UNL     1       0.281   9.068  21.691  0.00  0.00    +0.000 NA
ATOM     10  C   UNL     1      -0.314  10.026  22.340  0.00  0.00    +0.000 A 
ATOM     11  N   UNL     1      -1.088   9.837  23.424  0.00  0.00    +0.000 N 
ATOM     12  S   UNL     1      -0.068  11.591  21.706  0.00  0.00    +0.000 S 
ATOM     13  C   UNL     1       0.802  10.915  20.364  0.00  0.00    +0.000 A 
ATOM     14  H   UNL     1      -1.038   8.918  23.868  0.00  0.00    +0.000 HD
ATOM     15  H   UNL     1      -1.285  10.606  24.044  0.00  0.00    +0.000 HD
BRANCH  13  16
ATOM     16  C   UNL     1       1.216  11.850  19.275  0.00  0.00    +0.000 C 
BRANCH  16  17
ATOM     17  C   UNL     1       0.073  12.204  18.308  0.00  0.00    +0.000 C 
ATOM     18  C   UNL     1      -1.116  11.239  18.372  0.00  0.00    +0.000 C 
ATOM     19  C   UNL     1      -0.393  13.630  18.590  0.00  0.00    +0.000 C 
ENDBRANCH  16  17
ENDBRANCH  13  16
ENDBRANCH   6   8
ENDBRANCH   1   3
BRANCH   1  20
ATOM     20  N   UNL     1       2.750   4.257  18.982  0.00  0.00    +0.000 NA
ATOM     21  C   UNL     1       3.269   3.114  19.777  0.00  0.00    +0.000 C 
ATOM     22  C   UNL     1       3.629   2.082  18.730  0.00  0.00    +0.000 C 
ATOM     23  C   UNL     1       2.427   2.145  17.825  0.00  0.00    +0.000 C 
ATOM     24  C   UNL     1       2.040   3.624  17.849  0.00  0.00    +0.000 C 
ENDBRANCH   1  20
BRANCH   1  25
ATOM     25  N   UNL     1       5.427   6.449  18.143  0.00  0.00    +0.000 NA
ATOM     26  H   UNL     1       5.081   7.391  18.001  0.00  0.00    +0.000 HD
BRANCH  25  27
ATOM     27  C   UNL     1       6.568   6.132  17.288  0.00  0.00    +0.000 C 
ATOM     28  C   UNL     1       7.137   4.823  17.874  0.00  0.00    +0.000 C 
ATOM     29  C   UNL     1       7.629   7.229  17.355  0.00  0.00    +0.000 C 
BRANCH  27  30
ATOM     30  C   UNL     1       6.211   5.856  15.811  0.00  0.00    +0.000 C 
ATOM     31  O   UNL     1       5.382   6.507  15.184  0.00  0.00    +0.000 OA
BRANCH  30  32
ATOM     32  O   UNL     1       6.822   4.744  15.316  0.00  0.00    +0.000 OA
BRANCH  32  34
ATOM     33  C   UNL     1       6.184   3.693  13.212  0.00  0.00    +0.000 C 
ATOM     34  C   UNL     1       7.035   4.754  13.891  0.00  0.00    +0.000 C 
ENDBRANCH  32  34
ENDBRANCH  30  32
ENDBRANCH  27  30
ENDBRANCH  25  27
ENDBRANCH   1  25
TORSDOF 10
ENDMDL
MODEL 8
REMARK VINA RESULT:      -7.7      1.554      2.626
REMARK  Name = 
REMARK  15 active torsions:
REMARK  status: ('A' for Active; 'I' for Inactive)
REMARK    1  A    between atoms: C_1  and  C_2
REMARK    2  A    between atoms: C_2  and  O_3
REMARK    3  A    between atoms: O_3  and  C_4
REMARK    4  A    between atoms: C_4  and  C_6
REMARK    5  A    between atoms: C_6  and  C_7
REMARK    6  A    between atoms: C_6  and  C_8
REMARK    7  A    between atoms: C_6  and  N_9
REMARK    8  A    between atoms: N_9  and  P_10
REMARK    9  A    between atoms: P_10  and  C_12
REMARK   10  A    between atoms: P_10  and  N_27
REMARK   11  A    between atoms: C_15  and  C_16
REMARK   12  A    between atoms: C_21  and  C_22
REMARK   13  A    between atoms: C_22  and  C_23
REMARK   14  A    between atoms: C_23  and  C_24
REMARK   15  A    between atoms: C_23  and  C_25
REMARK                            x       y       z     vdW  Elec       q    Type
REMARK                         _______ _______ _______ _____ _____    ______ ____
ROOT
ATOM      1  P   UNL     1       3.273   5.459  18.728  0.00  0.00    +0.000 P 
ATOM      2  O   UNL     1       4.152   5.700  19.974  0.00  0.00    +0.000 OA
ENDROOT
BRANCH   1   3
ATOM      3  C   UNL     1       2.322   7.187  18.518  0.00  0.00    +0.000 A 
ATOM      4  C   UNL     1       2.515   7.927  17.365  0.00  0.00    +0.000 A 
ATOM      5  C   UNL     1       2.021   9.219  17.634  0.00  0.00    +0.000 A 
ATOM      6  C   UNL     1       1.554   9.241  18.940  0.00  0.00    +0.000 A 
ATOM      7  O   UNL     1       1.722   7.970  19.491  0.00  0.00    +0.000 OA
BRANCH   6   8
ATOM      8  C   UNL     1       1.033  10.534  19.567  0.00  0.00    +0.000 A 
ATOM      9  N   UNL     1       0.717  11.603  18.720  0.00  0.00    +0.000 NA
ATOM     10  C   UNL     1       0.333  12.649  19.391  0.00  0.00    +0.000 A 
ATOM     11  N   UNL     1       0.048  13.840  18.836  0.00  0.00    +0.000 N 
ATOM     12  S   UNL     1       0.230  12.427  21.081  0.00  0.00    +0.000 S 
ATOM     13  C   UNL     1       0.885  10.827  20.914  0.00  0.00    +0.000 A 
ATOM     14  H   UNL     1      -0.062  13.857  17.820  0.00  0.00    +0.000 HD
ATOM     15  H   UNL     1      -0.503  14.514  19.342  0.00  0.00    +0.000 HD
BRANCH  13  16
ATOM     16  C   UNL     1       1.190  10.078  22.170  0.00  0.00    +0.000 C 
BRANCH  16  17
ATOM     17  C   UNL     1      -0.046   9.409  22.796  0.00  0.00    +0.000 C 
ATOM     18  C   UNL     1      -1.118  10.400  23.264  0.00  0.00    +0.000 C 
ATOM     19  C   UNL     1      -0.643   8.427  21.791  0.00  0.00    +0.000 C 
ENDBRANCH  16  17
ENDBRANCH  13  16
ENDBRANCH   6   8
ENDBRANCH   1   3
BRANCH   1  20
ATOM     20  N   UNL     1       1.888   4.950  19.725  0.00  0.00    +0.000 NA
ATOM     21  C   UNL     1       2.368   4.510  21.061  0.00  0.00    +0.000 C 
ATOM     22  C   UNL     1       2.630   3.030  20.880  0.00  0.00    +0.000 C 
ATOM     23  C   UNL     1       1.403   2.602  20.120  0.00  0.00    +0.000 C 
ATOM     24  C   UNL     1       1.104   3.801  19.220  0.00  0.00    +0.000 C 
ENDBRANCH   1  20
BRANCH   1  25
ATOM     25  N   UNL     1       4.658   5.968  17.732  0.00  0.00    +0.000 NA
ATOM     26  H   UNL     1       4.452   6.843  17.263  0.00  0.00    +0.000 HD
BRANCH  25  27
ATOM     27  C   UNL     1       5.523   5.094  16.945  0.00  0.00    +0.000 C 
ATOM     28  C   UNL     1       5.564   5.747  15.548  0.00  0.00    +0.000 C 
ATOM     29  C   UNL     1       4.935   3.687  16.838  0.00  0.00    +0.000 C 
BRANCH  27  30
ATOM     30  C   UNL     1       6.979   5.001  17.450  0.00  0.00    +0.000 C 
ATOM     31  O   UNL     1       7.854   4.364  16.874  0.00  0.00    +0.000 OA
BRANCH  30  32
ATOM     32  O   UNL     1       7.161   5.601  18.659  0.00  0.00    +0.000 OA
BRANCH  32  34
ATOM     33  C   UNL     1       7.728   7.759  17.681  0.00  0.00    +0.000 C 
ATOM     34  C   UNL     1       8.123   6.672  18.667  0.00  0.00    +0.000 C 
ENDBRANCH  32  34
ENDBRANCH  30  32
ENDBRANCH  27  30
ENDBRANCH  25  27
ENDBRANCH   1  25
TORSDOF 10
ENDMDL
MODEL 9
REMARK VINA RESULT:      -7.7      1.299      2.256
REMARK  Name = 
REMARK  15 active torsions:
REMARK  status: ('A' for Active; 'I' for Inactive)
REMARK    1  A    between atoms: C_1  and  C_2
REMARK    2  A    between atoms: C_2  and  O_3
REMARK    3  A    between atoms: O_3  and  C_4
REMARK    4  A    between atoms: C_4  and  C_6
REMARK    5  A    between atoms: C_6  and  C_7
REMARK    6  A    between atoms: C_6  and  C_8
REMARK    7  A    between atoms: C_6  and  N_9
REMARK    8  A    between atoms: N_9  and  P_10
REMARK    9  A    between atoms: P_10  and  C_12
REMARK   10  A    between atoms: P_10  and  N_27
REMARK   11  A    between atoms: C_15  and  C_16
REMARK   12  A    between atoms: C_21  and  C_22
REMARK   13  A    between atoms: C_22  and  C_23
REMARK   14  A    between atoms: C_23  and  C_24
REMARK   15  A    between atoms: C_23  and  C_25
REMARK                            x       y       z     vdW  Elec       q    Type
REMARK                         _______ _______ _______ _____ _____    ______ ____
ROOT
ATOM      1  P   UNL     1       4.534   5.025  18.737  0.00  0.00    +0.000 P 
ATOM      2  O   UNL     1       5.167   5.067  20.144  0.00  0.00    +0.000 OA
ENDROOT
BRANCH   1   3
ATOM      3  C   UNL     1       3.101   6.392  18.858  0.00  0.00    +0.000 A 
ATOM      4  C   UNL     1       2.912   7.266  17.804  0.00  0.00    +0.000 A 
ATOM      5  C   UNL     1       2.105   8.312  18.292  0.00  0.00    +0.000 A 
ATOM      6  C   UNL     1       1.832   8.060  19.629  0.00  0.00    +0.000 A 
ATOM      7  O   UNL     1       2.436   6.854  19.983  0.00  0.00    +0.000 OA
BRANCH   6   8
ATOM      8  C   UNL     1       1.047   9.064  20.474  0.00  0.00    +0.000 A 
ATOM      9  N   UNL     1       0.721   8.712  21.790  0.00  0.00    +0.000 NA
ATOM     10  C   UNL     1       0.014   9.637  22.371  0.00  0.00    +0.000 A 
ATOM     11  N   UNL     1      -0.504   9.526  23.607  0.00  0.00    +0.000 N 
ATOM     12  S   UNL     1      -0.248  11.041  21.438  0.00  0.00    +0.000 S 
ATOM     13  C   UNL     1       0.539  10.293  20.083  0.00  0.00    +0.000 A 
ATOM     14  H   UNL     1      -0.152   8.759  24.184  0.00  0.00    +0.000 HD
ATOM     15  H   UNL     1      -0.788  10.350  24.112  0.00  0.00    +0.000 HD
BRANCH  13  16
ATOM     16  C   UNL     1       0.524  11.035  18.787  0.00  0.00    +0.000 C 
BRANCH  16  17
ATOM     17  C   UNL     1       1.010  12.489  18.910  0.00  0.00    +0.000 C 
ATOM     18  C   UNL     1       2.350  12.756  18.216  0.00  0.00    +0.000 C 
ATOM     19  C   UNL     1      -0.064  13.421  18.354  0.00  0.00    +0.000 C 
ENDBRANCH  16  17
ENDBRANCH  13  16
ENDBRANCH   6   8
ENDBRANCH   1   3
BRANCH   1  20
ATOM     20  N   UNL     1       3.299   3.852  19.258  0.00  0.00    +0.000 NA
ATOM     21  C   UNL     1       3.465   2.583  18.503  0.00  0.00    +0.000 C 
ATOM     22  C   UNL     1       2.595   2.776  17.279  0.00  0.00    +0.000 C 
ATOM     23  C   UNL     1       1.351   3.366  17.890  0.00  0.00    +0.000 C 
ATOM     24  C   UNL     1       1.890   4.237  19.025  0.00  0.00    +0.000 C 
ENDBRANCH   1  20
BRANCH   1  25
ATOM     25  N   UNL     1       5.767   6.198  18.218  0.00  0.00    +0.000 NA
ATOM     26  H   UNL     1       5.390   7.139  18.235  0.00  0.00    +0.000 HD
BRANCH  25  27
ATOM     27  C   UNL     1       6.751   6.004  17.155  0.00  0.00    +0.000 C 
ATOM     28  C   UNL     1       7.563   4.770  17.602  0.00  0.00    +0.000 C 
ATOM     29  C   UNL     1       7.677   7.213  17.034  0.00  0.00    +0.000 C 
BRANCH  27  30
ATOM     30  C   UNL     1       6.150   5.680  15.771  0.00  0.00    +0.000 C 
ATOM     31  O   UNL     1       5.255   6.339  15.252  0.00  0.00    +0.000 OA
BRANCH  30  32
ATOM     32  O   UNL     1       6.631   4.521  15.240  0.00  0.00    +0.000 OA
BRANCH  32  34
ATOM     33  C   UNL     1       6.025   3.644  13.049  0.00  0.00    +0.000 C 
ATOM     34  C   UNL     1       6.933   4.578  13.833  0.00  0.00    +0.000 C 
ENDBRANCH  32  34
ENDBRANCH  30  32
ENDBRANCH  27  30
ENDBRANCH  25  27
ENDBRANCH   1  25
TORSDOF 10
ENDMDL
