MODEL 1
REMARK VINA RESULT:      -7.7      0.000      0.000
REMARK  Name = 
REMARK  10 active torsions:
REMARK  status: ('A' for Active; 'I' for Inactive)
REMARK    1  A    between atoms: C_1  and  C_2
REMARK    2  A    between atoms: C_2  and  O_3
REMARK    3  A    between atoms: O_3  and  C_4
REMARK    4  A    between atoms: C_4  and  C_6
REMARK    5  A    between atoms: C_8  and  S_9
REMARK    6  A    between atoms: S_9  and  N_12
REMARK    7  A    between atoms: N_12  and  C_13
REMARK    8  A    between atoms: C_15  and  C_16
REMARK    9  A    between atoms: C_20  and  O_21
REMARK   10  A    between atoms: O_21  and  C_22
REMARK                            x       y       z     vdW  Elec       q    Type
REMARK                         _______ _______ _______ _____ _____    ______ ____
ROOT
ATOM      1  S   UNL     1       5.579   5.169  17.651  0.00  0.00    +0.000 S 
ATOM      2  O   UNL     1       5.842   3.901  18.298  0.00  0.00    +0.000 OA
ATOM      3  O   UNL     1       6.103   6.415  18.174  0.00  0.00    +0.000 OA
ENDROOT
BRANCH   1   6
ATOM      4  C   UNL     1       6.618   4.343  13.969  0.00  0.00    +0.000 A 
ATOM      5  C   UNL     1       5.759   4.187  15.038  0.00  0.00    +0.000 A 
ATOM      6  C   UNL     1       6.288   5.008  16.058  0.00  0.00    +0.000 A 
ATOM      7  N   UNL     1       7.425   5.618  15.670  0.00  0.00    +0.000 NA
ATOM      8  N   UNL     1       7.566   5.231  14.390  0.00  0.00    +0.000 N 
ATOM      9  H   UNL     1       8.335   5.612  13.843  0.00  0.00    +0.000 HD
BRANCH   4  10
ATOM     10  C   UNL     1       6.598   3.816  12.639  0.00  0.00    +0.000 C 
ATOM     11  O   UNL     1       7.283   4.237  11.720  0.00  0.00    +0.000 OA
BRANCH  10  12
ATOM     12  O   UNL     1       5.638   2.860  12.548  0.00  0.00    +0.000 OA
BRANCH  12  14
ATOM     13  C   UNL     1       6.344   1.044  11.178  0.00  0.00    +0.000 C 
ATOM     14  C   UNL     1       5.470   2.283  11.248  0.00  0.00    +0.000 C 
ENDBRANCH  12  14
ENDBRANCH  10  12
ENDBRANCH   4  10
ENDBRANCH   1   6
BRANCH   1  15
ATOM     15  N   UNL     1       3.909   5.283  17.469  0.00  0.00    +0.000 N 
ATOM     16  H   UNL     1       3.470   4.483  17.019  0.00  0.00    +0.000 HD
BRANCH  15  17
ATOM     17  C   UNL     1       3.173   6.107  18.354  0.00  0.00    +0.000 A 
ATOM     18  C   UNL     1       2.834   7.379  17.861  0.00  0.00    +0.000 A 
ATOM     19  C   UNL     1       2.100   8.294  18.633  0.00  0.00    +0.000 A 
ATOM     20  C   UNL     1       1.739   9.633  18.056  0.00  0.00    +0.000 C 
ATOM     21  C   UNL     1       1.721   7.919  19.925  0.00  0.00    +0.000 A 
ATOM     22 CL   UNL     1       0.820   8.976  20.949  0.00  0.00    +0.000 Cl
ATOM     23  C   UNL     1       2.060   6.654  20.418  0.00  0.00    +0.000 A 
ATOM     24  C   UNL     1       2.781   5.733  19.648  0.00  0.00    +0.000 A 
BRANCH  24  25
ATOM     25  O   UNL     1       2.976   4.564  20.327  0.00  0.00    +0.000 OA
ATOM     26  C   UNL     1       2.044   4.111  21.290  0.00  0.00    +0.000 C 
ENDBRANCH  24  25
ENDBRANCH  15  17
ENDBRANCH   1  15
TORSDOF 7
ENDMDL
MODEL 2
REMARK VINA RESULT:      -7.6      0.844      1.047
REMARK  Name = 
REMARK  10 active torsions:
REMARK  status: ('A' for Active; 'I' for Inactive)
REMARK    1  A    between atoms: C_1  and  C_2
REMARK    2  A    between atoms: C_2  and  O_3
REMARK    3  A    between atoms: O_3  and  C_4
REMARK    4  A    between atoms: C_4  and  C_6
REMARK    5  A    between atoms: C_8  and  S_9
REMARK    6  A    between atoms: S_9  and  N_12
REMARK    7  A    between atoms: N_12  and  C_13
REMARK    8  A    between atoms: C_15  and  C_16
REMARK    9  A    between atoms: C_20  and  O_21
REMARK   10  A    between atoms: O_21  and  C_22
REMARK                            x       y       z     vdW  Elec       q    Type
REMARK                         _______ _______ _______ _____ _____    ______ ____
ROOT
ATOM      1  S   UNL     1       5.862   5.686  17.297  0.00  0.00    +0.000 S 
ATOM      2  O   UNL     1       6.620   4.814  18.169  0.00  0.00    +0.000 OA
ATOM      3  O   UNL     1       6.018   7.127  17.337  0.00  0.00    +0.000 OA
ENDROOT
BRANCH   1   6
ATOM      4  C   UNL     1       6.319   4.249  13.685  0.00  0.00    +0.000 A 
ATOM      5  C   UNL     1       5.587   4.359  14.850  0.00  0.00    +0.000 A 
ATOM      6  C   UNL     1       6.341   5.219  15.679  0.00  0.00    +0.000 A 
ATOM      7  N   UNL     1       7.491   5.601  15.090  0.00  0.00    +0.000 NA
ATOM      8  N   UNL     1       7.420   5.036  13.872  0.00  0.00    +0.000 N 
ATOM      9  H   UNL     1       8.158   5.226  13.198  0.00  0.00    +0.000 HD
BRANCH   4  10
ATOM     10  C   UNL     1       6.066   3.564  12.455  0.00  0.00    +0.000 C 
ATOM     11  O   UNL     1       6.935   3.111  11.726  0.00  0.00    +0.000 OA
BRANCH  10  12
ATOM     12  O   UNL     1       4.735   3.591  12.191  0.00  0.00    +0.000 OA
BRANCH  12  14
ATOM     13  C   UNL     1       3.340   3.633  10.260  0.00  0.00    +0.000 C 
ATOM     14  C   UNL     1       4.317   2.801  11.072  0.00  0.00    +0.000 C 
ENDBRANCH  12  14
ENDBRANCH  10  12
ENDBRANCH   4  10
ENDBRANCH   1   6
BRANCH   1  15
ATOM     15  N   UNL     1       4.240   5.282  17.498  0.00  0.00    +0.000 N 
ATOM     16  H   UNL     1       4.022   4.298  17.359  0.00  0.00    +0.000 HD
BRANCH  15  17
ATOM     17  C   UNL     1       3.423   6.092  18.323  0.00  0.00    +0.000 A 
ATOM     18  C   UNL     1       3.073   7.344  17.789  0.00  0.00    +0.000 A 
ATOM     19  C   UNL     1       2.261   8.244  18.500  0.00  0.00    +0.000 A 
ATOM     20  C   UNL     1       1.892   9.562  17.881  0.00  0.00    +0.000 C 
ATOM     21  C   UNL     1       1.817   7.874  19.773  0.00  0.00    +0.000 A 
ATOM     22 CL   UNL     1       0.820   8.914  20.723  0.00  0.00    +0.000 Cl
ATOM     23  C   UNL     1       2.168   6.630  20.307  0.00  0.00    +0.000 A 
ATOM     24  C   UNL     1       2.966   5.723  19.597  0.00  0.00    +0.000 A 
BRANCH  24  25
ATOM     25  O   UNL     1       3.159   4.572  20.305  0.00  0.00    +0.000 OA
ATOM     26  C   UNL     1       2.107   3.980  21.044  0.00  0.00    +0.000 C 
ENDBRANCH  24  25
ENDBRANCH  15  17
ENDBRANCH   1  15
TORSDOF 7
ENDMDL
MODEL 3
REMARK VINA RESULT:      -7.5      2.658      3.042
REMARK  Name = 
REMARK  10 active torsions:
REMARK  status: ('A' for Active; 'I' for Inactive)
REMARK    1  A    between atoms: C_1  and  C_2
REMARK    2  A    between atoms: C_2  and  O_3
REMARK    3  A    between atoms: O_3  and  C_4
REMARK    4  A    between atoms: C_4  and  C_6
REMARK    5  A    between atoms: C_8  and  S_9
REMARK    6  A    between atoms: S_9  and  N_12
REMARK    7  A    between atoms: N_12  and  C_13
REMARK    8  A    between atoms: C_15  and  C_16
REMARK    9  A    between atoms: C_20  and  O_21
REMARK   10  A    between atoms: O_21  and  C_22
REMARK                            x       y       z     vdW  Elec       q    Type
REMARK                         _______ _______ _______ _____ _____    ______ ____
ROOT
ATOM      1  S   UNL     1       6.580   4.899  17.881  0.00  0.00    +0.000 S 
ATOM      2  O   UNL     1       7.926   4.985  18.406  0.00  0.00    +0.000 OA
ATOM      3  O   UNL     1       5.596   5.932  18.135  0.00  0.00    +0.000 OA
ENDROOT
BRANCH   1   6
ATOM      4  C   UNL     1       6.605   4.268  14.018  0.00  0.00    +0.000 A 
ATOM      5  C   UNL     1       6.177   3.933  15.287  0.00  0.00    +0.000 A 
ATOM      6  C   UNL     1       6.784   4.879  16.142  0.00  0.00    +0.000 A 
ATOM      7  N   UNL     1       7.570   5.736  15.462  0.00  0.00    +0.000 NA
ATOM      8  N   UNL     1       7.399   5.368  14.180  0.00  0.00    +0.000 N 
ATOM      9  H   UNL     1       7.851   5.910  13.448  0.00  0.00    +0.000 HD
BRANCH   4  10
ATOM     10  C   UNL     1       6.304   3.723  12.730  0.00  0.00    +0.000 C 
ATOM     11  O   UNL     1       7.144   3.388  11.909  0.00  0.00    +0.000 OA
BRANCH  10  12
ATOM     12  O   UNL     1       4.960   3.737  12.539  0.00  0.00    +0.000 OA
BRANCH  12  14
ATOM     13  C   UNL     1       3.510   3.688  10.649  0.00  0.00    +0.000 C 
ATOM     14  C   UNL     1       4.482   2.883  11.493  0.00  0.00    +0.000 C 
ENDBRANCH  12  14
ENDBRANCH  10  12
ENDBRANCH   4  10
ENDBRANCH   1   6
BRANCH   1  15
ATOM     15  N   UNL     1       5.971   3.402  18.352  0.00  0.00    +0.000 N 
ATOM     16  H   UNL     1       6.673   2.718  18.624  0.00  0.00    +0.000 HD
BRANCH  15  17
ATOM     17  C   UNL     1       4.651   3.321  18.858  0.00  0.00    +0.000 A 
ATOM     18  C   UNL     1       3.652   3.879  18.042  0.00  0.00    +0.000 A 
ATOM     19  C   UNL     1       2.299   3.862  18.422  0.00  0.00    +0.000 A 
ATOM     20  C   UNL     1       1.262   4.448  17.508  0.00  0.00    +0.000 C 
ATOM     21  C   UNL     1       1.963   3.287  19.651  0.00  0.00    +0.000 A 
ATOM     22 CL   UNL     1       0.330   3.222  20.204  0.00  0.00    +0.000 Cl
ATOM     23  C   UNL     1       2.957   2.734  20.465  0.00  0.00    +0.000 A 
ATOM     24  C   UNL     1       4.305   2.737  20.085  0.00  0.00    +0.000 A 
BRANCH  24  25
ATOM     25  O   UNL     1       5.086   2.127  21.024  0.00  0.00    +0.000 OA
ATOM     26  C   UNL     1       5.360   0.740  20.962  0.00  0.00    +0.000 C 
ENDBRANCH  24  25
ENDBRANCH  15  17
ENDBRANCH   1  15
TORSDOF 7
ENDMDL
MODEL 4
REMARK VINA RESULT:      -7.5      2.079      3.000
REMARK  Name = 
REMARK  10 active torsions:
REMARK  status: ('A' for Active; 'I' for Inactive)
REMARK    1  A    between atoms: C_1  and  C_2
REMARK    2  A    between atoms: C_2  and  O_3
REMARK    3  A    between atoms: O_3  and  C_4
REMARK    4  A    between atoms: C_4  and  C_6
REMARK    5  A    between atoms: C_8  and  S_9
REMARK    6  A    between atoms: S_9  and  N_12
REMARK    7  A    between atoms: N_12  and  C_13
REMARK    8  A    between atoms: C_15  and  C_16
REMARK    9  A    between atoms: C_20  and  O_21
REMARK   10  A    between atoms: O_21  and  C_22
REMARK                            x       y       z     vdW  Elec       q    Type
REMARK                         _______ _______ _______ _____ _____    ______ ____
ROOT
ATOM      1  S   UNL     1       6.234   5.812  17.157  0.00  0.00    +0.000 S 
ATOM      2  O   UNL     1       6.335   4.629  17.986  0.00  0.00    +0.000 OA
ATOM      3  O   UNL     1       7.117   6.947  17.337  0.00  0.00    +0.000 OA
ENDROOT
BRANCH   1   6
ATOM      4  C   UNL     1       6.320   4.153  13.614  0.00  0.00    +0.000 A 
ATOM      5  C   UNL     1       5.708   4.343  14.836  0.00  0.00    +0.000 A 
ATOM      6  C   UNL     1       6.546   5.242  15.532  0.00  0.00    +0.000 A 
ATOM      7  N   UNL     1       7.634   5.573  14.810  0.00  0.00    +0.000 NA
ATOM      8  N   UNL     1       7.440   4.936  13.641  0.00  0.00    +0.000 N 
ATOM      9  H   UNL     1       8.108   5.076  12.888  0.00  0.00    +0.000 HD
BRANCH   4  10
ATOM     10  C   UNL     1       5.942   3.397  12.459  0.00  0.00    +0.000 C 
ATOM     11  O   UNL     1       6.705   2.696  11.813  0.00  0.00    +0.000 OA
BRANCH  10  12
ATOM     12  O   UNL     1       4.647   3.666  12.151  0.00  0.00    +0.000 OA
BRANCH  12  14
ATOM     13  C   UNL     1       3.255   3.844  10.226  0.00  0.00    +0.000 C 
ATOM     14  C   UNL     1       4.108   2.907  11.062  0.00  0.00    +0.000 C 
ENDBRANCH  12  14
ENDBRANCH  10  12
ENDBRANCH   4  10
ENDBRANCH   1   6
BRANCH   1  15
ATOM     15  N   UNL     1       4.630   6.320  17.233  0.00  0.00    +0.000 N 
ATOM     16  H   UNL     1       4.324   6.896  16.451  0.00  0.00    +0.000 HD
BRANCH  15  17
ATOM     17  C   UNL     1       3.697   5.556  17.974  0.00  0.00    +0.000 A 
ATOM     18  C   UNL     1       3.755   4.165  17.774  0.00  0.00    +0.000 A 
ATOM     19  C   UNL     1       2.890   3.290  18.450  0.00  0.00    +0.000 A 
ATOM     20  C   UNL     1       3.003   1.809  18.225  0.00  0.00    +0.000 C 
ATOM     21  C   UNL     1       1.945   3.834  19.325  0.00  0.00    +0.000 A 
ATOM     22 CL   UNL     1       0.838   2.840  20.198  0.00  0.00    +0.000 Cl
ATOM     23  C   UNL     1       1.884   5.218  19.522  0.00  0.00    +0.000 A 
ATOM     24  C   UNL     1       2.753   6.095  18.860  0.00  0.00    +0.000 A 
BRANCH  24  25
ATOM     25  O   UNL     1       2.523   7.390  19.224  0.00  0.00    +0.000 OA
ATOM     26  C   UNL     1       1.848   7.706  20.427  0.00  0.00    +0.000 C 
ENDBRANCH  24  25
ENDBRANCH  15  17
ENDBRANCH   1  15
TORSDOF 7
ENDMDL
MODEL 5
REMARK VINA RESULT:      -7.5      2.541      3.424
REMARK  Name = 
REMARK  10 active torsions:
REMARK  status: ('A' for Active; 'I' for Inactive)
REMARK    1  A    between atoms: C_1  and  C_2
REMARK    2  A    between atoms: C_2  and  O_3
REMARK    3  A    between atoms: O_3  and  C_4
REMARK    4  A    between atoms: C_4  and  C_6
REMARK    5  A    between atoms: C_8  and  S_9
REMARK    6  A    between atoms: S_9  and  N_12
REMARK    7  A    between atoms: N_12  and  C_13
REMARK    8  A    between atoms: C_15  and  C_16
REMARK    9  A    between atoms: C_20  and  O_21
REMARK   10  A    between atoms: O_21  and  C_22
REMARK                            x       y       z     vdW  Elec       q    Type
REMARK                         _______ _______ _______ _____ _____    ______ ____
ROOT
ATOM      1  S   UNL     1       6.300   5.326  15.722  0.00  0.00    +0.000 S 
ATOM      2  O   UNL     1       7.637   5.815  15.986  0.00  0.00    +0.000 OA
ATOM      3  O   UNL     1       5.162   6.222  15.647  0.00  0.00    +0.000 OA
ENDROOT
BRANCH   1   6
ATOM      4  C   UNL     1       6.001   3.238  12.425  0.00  0.00    +0.000 A 
ATOM      5  C   UNL     1       5.586   3.517  13.712  0.00  0.00    +0.000 A 
ATOM      6  C   UNL     1       6.404   4.587  14.138  0.00  0.00    +0.000 A 
ATOM      7  N   UNL     1       7.300   4.939  13.196  0.00  0.00    +0.000 NA
ATOM      8  N   UNL     1       6.995   4.137  12.160  0.00  0.00    +0.000 N 
ATOM      9  H   UNL     1       7.501   4.250  11.285  0.00  0.00    +0.000 HD
BRANCH   4  10
ATOM     10  C   UNL     1       5.535   2.301  11.450  0.00  0.00    +0.000 C 
ATOM     11  O   UNL     1       6.233   1.448  10.924  0.00  0.00    +0.000 OA
BRANCH  10  12
ATOM     12  O   UNL     1       4.243   2.580  11.140  0.00  0.00    +0.000 OA
BRANCH  12  14
ATOM     13  C   UNL     1       2.853   3.787   9.626  0.00  0.00    +0.000 C 
ATOM     14  C   UNL     1       4.011   3.888  10.603  0.00  0.00    +0.000 C 
ENDBRANCH  12  14
ENDBRANCH  10  12
ENDBRANCH   4  10
ENDBRANCH   1   6
BRANCH   1  15
ATOM     15  N   UNL     1       5.997   4.111  16.847  0.00  0.00    +0.000 N 
ATOM     16  H   UNL     1       6.786   3.497  17.040  0.00  0.00    +0.000 HD
BRANCH  15  17
ATOM     17  C   UNL     1       4.978   4.300  17.811  0.00  0.00    +0.000 A 
ATOM     18  C   UNL     1       3.818   3.528  17.628  0.00  0.00    +0.000 A 
ATOM     19  C   UNL     1       2.732   3.613  18.515  0.00  0.00    +0.000 A 
ATOM     20  C   UNL     1       1.521   2.752  18.294  0.00  0.00    +0.000 C 
ATOM     21  C   UNL     1       2.820   4.505  19.588  0.00  0.00    +0.000 A 
ATOM     22 CL   UNL     1       1.536   4.682  20.727  0.00  0.00    +0.000 Cl
ATOM     23  C   UNL     1       3.972   5.276  19.769  0.00  0.00    +0.000 A 
ATOM     24  C   UNL     1       5.063   5.185  18.895  0.00  0.00    +0.000 A 
BRANCH  24  25
ATOM     25  O   UNL     1       6.078   6.013  19.282  0.00  0.00    +0.000 OA
ATOM     26  C   UNL     1       7.374   5.510  19.548  0.00  0.00    +0.000 C 
ENDBRANCH  24  25
ENDBRANCH  15  17
ENDBRANCH   1  15
TORSDOF 7
ENDMDL
MODEL 6
REMARK VINA RESULT:      -7.4      4.019      6.336
REMARK  Name = 
REMARK  10 active torsions:
REMARK  status: ('A' for Active; 'I' for Inactive)
REMARK    1  A    between atoms: C_1  and  C_2
REMARK    2  A    between atoms: C_2  and  O_3
REMARK    3  A    between atoms: O_3  and  C_4
REMARK    4  A    between atoms: C_4  and  C_6
REMARK    5  A    between atoms: C_8  and  S_9
REMARK    6  A    between atoms: S_9  and  N_12
REMARK    7  A    between atoms: N_12  and  C_13
REMARK    8  A    between atoms: C_15  and  C_16
REMARK    9  A    between atoms: C_20  and  O_21
REMARK   10  A    between atoms: O_21  and  C_22
REMARK                            x       y       z     vdW  Elec       q    Type
REMARK                         _______ _______ _______ _____ _____    ______ ____
ROOT
ATOM      1  S   UNL     1       7.052   5.038  17.703  0.00  0.00    +0.000 S 
ATOM      2  O   UNL     1       8.068   4.440  16.863  0.00  0.00    +0.000 OA
ATOM      3  O   UNL     1       6.924   4.695  19.105  0.00  0.00    +0.000 OA
ENDROOT
BRANCH   1   6
ATOM      4  C   UNL     1       8.281   8.716  18.235  0.00  0.00    +0.000 A 
ATOM      5  C   UNL     1       8.291   7.383  18.593  0.00  0.00    +0.000 A 
ATOM      6  C   UNL     1       7.415   6.751  17.683  0.00  0.00    +0.000 A 
ATOM      7  N   UNL     1       6.862   7.632  16.827  0.00  0.00    +0.000 NA
ATOM      8  N   UNL     1       7.444   8.798  17.158  0.00  0.00    +0.000 N 
ATOM      9  H   UNL     1       7.234   9.627  16.608  0.00  0.00    +0.000 HD
BRANCH   4  10
ATOM     10  C   UNL     1       8.994   9.849  18.740  0.00  0.00    +0.000 C 
ATOM     11  O   UNL     1       9.325   9.992  19.907  0.00  0.00    +0.000 OA
BRANCH  10  12
ATOM     12  O   UNL     1       9.147  10.763  17.747  0.00  0.00    +0.000 OA
BRANCH  12  14
ATOM     13  C   UNL     1      10.960  12.300  17.588  0.00  0.00    +0.000 C 
ATOM     14  C   UNL     1       9.579  12.061  18.172  0.00  0.00    +0.000 C 
ENDBRANCH  12  14
ENDBRANCH  10  12
ENDBRANCH   4  10
ENDBRANCH   1   6
BRANCH   1  15
ATOM     15  N   UNL     1       5.580   4.808  16.921  0.00  0.00    +0.000 N 
ATOM     16  H   UNL     1       5.647   4.422  15.981  0.00  0.00    +0.000 HD
BRANCH  15  17
ATOM     17  C   UNL     1       4.409   4.622  17.694  0.00  0.00    +0.000 A 
ATOM     18  C   UNL     1       3.982   3.291  17.841  0.00  0.00    +0.000 A 
ATOM     19  C   UNL     1       2.837   2.964  18.587  0.00  0.00    +0.000 A 
ATOM     20  C   UNL     1       2.432   1.526  18.738  0.00  0.00    +0.000 C 
ATOM     21  C   UNL     1       2.110   4.003  19.174  0.00  0.00    +0.000 A 
ATOM     22 CL   UNL     1       0.689   3.702  20.106  0.00  0.00    +0.000 Cl
ATOM     23  C   UNL     1       2.531   5.329  19.026  0.00  0.00    +0.000 A 
ATOM     24  C   UNL     1       3.679   5.659  18.293  0.00  0.00    +0.000 A 
BRANCH  24  25
ATOM     25  O   UNL     1       3.904   7.005  18.304  0.00  0.00    +0.000 OA
ATOM     26  C   UNL     1       3.046   7.898  17.620  0.00  0.00    +0.000 C 
ENDBRANCH  24  25
ENDBRANCH  15  17
ENDBRANCH   1  15
TORSDOF 7
ENDMDL
MODEL 7
REMARK VINA RESULT:      -7.4      3.749      5.728
REMARK  Name = 
REMARK  10 active torsions:
REMARK  status: ('A' for Active; 'I' for Inactive)
REMARK    1  A    between atoms: C_1  and  C_2
REMARK    2  A    between atoms: C_2  and  O_3
REMARK    3  A    between atoms: O_3  and  C_4
REMARK    4  A    between atoms: C_4  and  C_6
REMARK    5  A    between atoms: C_8  and  S_9
REMARK    6  A    between atoms: S_9  and  N_12
REMARK    7  A    between atoms: N_12  and  C_13
REMARK    8  A    between atoms: C_15  and  C_16
REMARK    9  A    between atoms: C_20  and  O_21
REMARK   10  A    between atoms: O_21  and  C_22
REMARK                            x       y       z     vdW  Elec       q    Type
REMARK                         _______ _______ _______ _____ _____    ______ ____
ROOT
ATOM      1  S   UNL     1       7.081   5.049  17.869  0.00  0.00    +0.000 S 
ATOM      2  O   UNL     1       7.910   4.421  16.863  0.00  0.00    +0.000 OA
ATOM      3  O   UNL     1       7.196   4.708  19.273  0.00  0.00    +0.000 OA
ENDROOT
BRANCH   1   6
ATOM      4  C   UNL     1       8.349   8.729  18.282  0.00  0.00    +0.000 A 
ATOM      5  C   UNL     1       8.295   7.421  18.720  0.00  0.00    +0.000 A 
ATOM      6  C   UNL     1       7.486   6.750  17.777  0.00  0.00    +0.000 A 
ATOM      7  N   UNL     1       7.031   7.586  16.823  0.00  0.00    +0.000 NA
ATOM      8  N   UNL     1       7.610   8.759  17.132  0.00  0.00    +0.000 N 
ATOM      9  H   UNL     1       7.469   9.555  16.516  0.00  0.00    +0.000 HD
BRANCH   4  10
ATOM     10  C   UNL     1       9.043   9.878  18.777  0.00  0.00    +0.000 C 
ATOM     11  O   UNL     1       9.188  10.139  19.961  0.00  0.00    +0.000 OA
BRANCH  10  12
ATOM     12  O   UNL     1       9.415  10.662  17.733  0.00  0.00    +0.000 OA
BRANCH  12  14
ATOM     13  C   UNL     1      10.856  12.545  17.495  0.00  0.00    +0.000 C 
ATOM     14  C   UNL     1       9.518  12.061  18.026  0.00  0.00    +0.000 C 
ENDBRANCH  12  14
ENDBRANCH  10  12
ENDBRANCH   4  10
ENDBRANCH   1   6
BRANCH   1  15
ATOM     15  N   UNL     1       5.485   4.864  17.366  0.00  0.00    +0.000 N 
ATOM     16  H   UNL     1       5.326   4.101  16.712  0.00  0.00    +0.000 HD
BRANCH  15  17
ATOM     17  C   UNL     1       4.440   5.330  18.199  0.00  0.00    +0.000 A 
ATOM     18  C   UNL     1       3.905   6.584  17.860  0.00  0.00    +0.000 A 
ATOM     19  C   UNL     1       2.859   7.161  18.600  0.00  0.00    +0.000 A 
ATOM     20  C   UNL     1       2.301   8.494  18.187  0.00  0.00    +0.000 C 
ATOM     21  C   UNL     1       2.365   6.463  19.705  0.00  0.00    +0.000 A 
ATOM     22 CL   UNL     1       1.085   7.092  20.677  0.00  0.00    +0.000 Cl
ATOM     23  C   UNL     1       2.898   5.216  20.046  0.00  0.00    +0.000 A 
ATOM     24  C   UNL     1       3.933   4.631  19.304  0.00  0.00    +0.000 A 
BRANCH  24  25
ATOM     25  O   UNL     1       4.274   3.409  19.809  0.00  0.00    +0.000 OA
ATOM     26  C   UNL     1       3.345   2.630  20.538  0.00  0.00    +0.000 C 
ENDBRANCH  24  25
ENDBRANCH  15  17
ENDBRANCH   1  15
TORSDOF 7
ENDMDL
MODEL 8
REMARK VINA RESULT:      -7.3      2.264      3.297
REMARK  Name = 
REMARK  10 active torsions:
REMARK  status: ('A' for Active; 'I' for Inactive)
REMARK    1  A    between atoms: C_1  and  C_2
REMARK    2  A    between atoms: C_2  and  O_3
REMARK    3  A    between atoms: O_3  and  C_4
REMARK    4  A    between atoms: C_4  and  C_6
REMARK    5  A    between atoms: C_8  and  S_9
REMARK    6  A    between atoms: S_9  and  N_12
REMARK    7  A    between atoms: N_12  and  C_13
REMARK    8  A    between atoms: C_15  and  C_16
REMARK    9  A    between atoms: C_20  and  O_21
REMARK   10  A    between atoms: O_21  and  C_22
REMARK                            x       y       z     vdW  Elec       q    Type
REMARK                         _______ _______ _______ _____ _____    ______ ____
ROOT
ATOM      1  S   UNL     1       5.814   6.747  17.355  0.00  0.00    +0.000 S 
ATOM      2  O   UNL     1       6.929   7.624  17.645  0.00  0.00    +0.000 OA
ATOM      3  O   UNL     1       4.551   7.258  16.861  0.00  0.00    +0.000 OA
ENDROOT
BRANCH   1   6
ATOM      4  C   UNL     1       6.511   4.546  14.194  0.00  0.00    +0.000 A 
ATOM      5  C   UNL     1       5.712   5.433  14.887  0.00  0.00    +0.000 A 
ATOM      6  C   UNL     1       6.403   5.685  16.093  0.00  0.00    +0.000 A 
ATOM      7  N   UNL     1       7.548   4.978  16.172  0.00  0.00    +0.000 NA
ATOM      8  N   UNL     1       7.603   4.341  14.989  0.00  0.00    +0.000 N 
ATOM      9  H   UNL     1       8.420   3.775  14.773  0.00  0.00    +0.000 HD
BRANCH   4  10
ATOM     10  C   UNL     1       6.384   3.954  12.898  0.00  0.00    +0.000 C 
ATOM     11  O   UNL     1       7.271   3.936  12.058  0.00  0.00    +0.000 OA
BRANCH  10  12
ATOM     12  O   UNL     1       5.110   3.517  12.725  0.00  0.00    +0.000 OA
BRANCH  12  14
ATOM     13  C   UNL     1       3.631   3.283  10.873  0.00  0.00    +0.000 C 
ATOM     14  C   UNL     1       4.884   2.745  11.540  0.00  0.00    +0.000 C 
ENDBRANCH  12  14
ENDBRANCH  10  12
ENDBRANCH   4  10
ENDBRANCH   1   6
BRANCH   1  15
ATOM     15  N   UNL     1       5.555   5.821  18.736  0.00  0.00    +0.000 N 
ATOM     16  H   UNL     1       6.055   6.135  19.566  0.00  0.00    +0.000 HD
BRANCH  15  17
ATOM     17  C   UNL     1       4.354   5.080  18.857  0.00  0.00    +0.000 A 
ATOM     18  C   UNL     1       4.422   3.741  18.438  0.00  0.00    +0.000 A 
ATOM     19  C   UNL     1       3.305   2.892  18.508  0.00  0.00    +0.000 A 
ATOM     20  C   UNL     1       3.429   1.460  18.072  0.00  0.00    +0.000 C 
ATOM     21  C   UNL     1       2.103   3.416  18.992  0.00  0.00    +0.000 A 
ATOM     22 CL   UNL     1       0.677   2.452  19.113  0.00  0.00    +0.000 Cl
ATOM     23  C   UNL     1       2.033   4.750  19.406  0.00  0.00    +0.000 A 
ATOM     24  C   UNL     1       3.147   5.597  19.350  0.00  0.00    +0.000 A 
BRANCH  24  25
ATOM     25  O   UNL     1       2.848   6.842  19.825  0.00  0.00    +0.000 OA
ATOM     26  C   UNL     1       2.128   7.773  19.039  0.00  0.00    +0.000 C 
ENDBRANCH  24  25
ENDBRANCH  15  17
ENDBRANCH   1  15
TORSDOF 7
ENDMDL
MODEL 9
REMARK VINA RESULT:      -7.3      1.327      1.501
REMARK  Name = 
REMARK  10 active torsions:
REMARK  status: ('A' for Active; 'I' for Inactive)
REMARK    1  A    between atoms: C_1  and  C_2
REMARK    2  A    between atoms: C_2  and  O_3
REMARK    3  A    between atoms: O_3  and  C_4
REMARK    4  A    between atoms: C_4  and  C_6
REMARK    5  A    between atoms: C_8  and  S_9
REMARK    6  A    between atoms: S_9  and  N_12
REMARK    7  A    between atoms: N_12  and  C_13
REMARK    8  A    between atoms: C_15  and  C_16
REMARK    9  A    between atoms: C_20  and  O_21
REMARK   10  A    between atoms: O_21  and  C_22
REMARK                            x       y       z     vdW  Elec       q    Type
REMARK                         _______ _______ _______ _____ _____    ______ ____
ROOT
ATOM      1  S   UNL     1       4.404   4.601  18.292  0.00  0.00    +0.000 S 
ATOM      2  O   UNL     1       4.460   3.155  18.261  0.00  0.00    +0.000 OA
ATOM      3  O   UNL     1       5.058   5.366  19.335  0.00  0.00    +0.000 OA
ENDROOT
BRANCH   1   6
ATOM      4  C   UNL     1       6.400   5.054  14.956  0.00  0.00    +0.000 A 
ATOM      5  C   UNL     1       5.998   4.269  16.018  0.00  0.00    +0.000 A 
ATOM      6  C   UNL     1       5.175   5.106  16.803  0.00  0.00    +0.000 A 
ATOM      7  N   UNL     1       5.089   6.348  16.290  0.00  0.00    +0.000 NA
ATOM      8  N   UNL     1       5.800   6.266  15.152  0.00  0.00    +0.000 N 
ATOM      9  H   UNL     1       5.841   7.076  14.537  0.00  0.00    +0.000 HD
BRANCH   4  10
ATOM     10  C   UNL     1       7.199   4.772  13.804  0.00  0.00    +0.000 C 
ATOM     11  O   UNL     1       8.034   5.533  13.339  0.00  0.00    +0.000 OA
BRANCH  10  12
ATOM     12  O   UNL     1       6.810   3.587  13.266  0.00  0.00    +0.000 OA
BRANCH  12  14
ATOM     13  C   UNL     1       4.953   3.164  11.835  0.00  0.00    +0.000 C 
ATOM     14  C   UNL     1       6.392   3.644  11.897  0.00  0.00    +0.000 C 
ENDBRANCH  12  14
ENDBRANCH  10  12
ENDBRANCH   4  10
ENDBRANCH   1   6
BRANCH   1  15
ATOM     15  N   UNL     1       2.777   5.025  18.208  0.00  0.00    +0.000 N 
ATOM     16  H   UNL     1       2.145   4.261  17.980  0.00  0.00    +0.000 HD
BRANCH  15  17
ATOM     17  C   UNL     1       2.317   6.149  18.934  0.00  0.00    +0.000 A 
ATOM     18  C   UNL     1       2.283   7.361  18.223  0.00  0.00    +0.000 A 
ATOM     19  C   UNL     1       1.842   8.552  18.822  0.00  0.00    +0.000 A 
ATOM     20  C   UNL     1       1.799   9.819  18.016  0.00  0.00    +0.000 C 
ATOM     21  C   UNL     1       1.449   8.515  20.163  0.00  0.00    +0.000 A 
ATOM     22 CL   UNL     1       0.897   9.927  20.986  0.00  0.00    +0.000 Cl
ATOM     23  C   UNL     1       1.486   7.311  20.874  0.00  0.00    +0.000 A 
ATOM     24  C   UNL     1       1.913   6.117  20.277  0.00  0.00    +0.000 A 
BRANCH  24  25
ATOM     25  O   UNL     1       1.844   5.073  21.154  0.00  0.00    +0.000 OA
ATOM     26  C   UNL     1       1.188   3.868  20.810  0.00  0.00    +0.000 C 
ENDBRANCH  24  25
ENDBRANCH  15  17
ENDBRANCH   1  15
TORSDOF 7
ENDMDL
