MODEL 1
REMARK VINA RESULT:      -7.1      0.000      0.000
REMARK  Name = 
REMARK  13 active torsions:
REMARK  status: ('A' for Active; 'I' for Inactive)
REMARK    1  A    between atoms: N_1  and  C_2
REMARK    2  A    between atoms: C_2  and  C_3
REMARK    3  A    between atoms: C_3  and  C_4
REMARK    4  A    between atoms: C_4  and  C_5
REMARK    5  A    between atoms: C_5  and  N_6
REMARK    6  A    between atoms: N_6  and  C_7
REMARK    7  A    between atoms: C_7  and  C_8
REMARK    8  A    between atoms: C_8  and  C_9
REMARK    9  A    between atoms: C_9  and  C_10
REMARK   10  A    between atoms: C_10  and  N_11
REMARK   11  A    between atoms: N_11  and  C_12
REMARK   12  A    between atoms: C_12  and  C_13
REMARK   13  A    between atoms: C_13  and  C_14
REMARK                            x       y       z     vdW  Elec       q    Type
REMARK                         _______ _______ _______ _____ _____    ______ ____
ROOT
ATOM      1  C   UNL     1       5.223   5.794  16.807  0.00  0.00    +0.000 C 
ENDROOT
BRANCH   1   2
ATOM      2  N   UNL     1       6.314   5.081  17.493  0.00  0.00    +0.000 NA
ATOM      3  H   UNL     1       5.909   4.358  18.090  0.00  0.00    +0.000 HD
BRANCH   2   4
ATOM      4  C   UNL     1       7.106   5.994  18.315  0.00  0.00    +0.000 C 
BRANCH   4   5
ATOM      5  C   UNL     1       7.341   7.315  17.599  0.00  0.00    +0.000 C 
BRANCH   5   6
ATOM      6  C   UNL     1       8.277   8.179  18.443  0.00  0.00    +0.000 C 
BRANCH   6   7
ATOM      7  C   UNL     1       8.257   9.618  17.952  0.00  0.00    +0.000 C 
BRANCH   7   8
ATOM      8  N   UNL     1       9.216  10.406  18.721  0.00  0.00    +0.000 NA
ATOM      9  H   UNL     1       8.826  10.626  19.638  0.00  0.00    +0.000 HD
BRANCH   8  10
ATOM     10  C   UNL     1       9.520  11.640  18.005  0.00  0.00    +0.000 C 
BRANCH  10  11
ATOM     11  C   UNL     1      10.976  11.639  17.556  0.00  0.00    +0.000 C 
BRANCH  11  12
ATOM     12  C   UNL     1      11.709  12.832  18.167  0.00  0.00    +0.000 C 
BRANCH  12  13
ATOM     13  C   UNL     1      12.332  13.709  17.088  0.00  0.00    +0.000 C 
BRANCH  13  14
ATOM     14  N   UNL     1      11.620  13.519  15.830  0.00  0.00    +0.000 NA
ATOM     15  H   UNL     1      10.684  13.912  15.911  0.00  0.00    +0.000 HD
ATOM     16  H   UNL     1      11.499  12.523  15.651  0.00  0.00    +0.000 HD
ENDBRANCH  13  14
ENDBRANCH  12  13
ENDBRANCH  11  12
ENDBRANCH  10  11
ENDBRANCH   8  10
ENDBRANCH   7   8
ENDBRANCH   6   7
ENDBRANCH   5   6
ENDBRANCH   4   5
ENDBRANCH   2   4
ENDBRANCH   1   2
BRANCH   1  17
ATOM     17  C   UNL     1       3.854   5.147  17.055  0.00  0.00    +0.000 C 
BRANCH  17  18
ATOM     18  C   UNL     1       3.232   5.533  18.388  0.00  0.00    +0.000 A 
ATOM     19  C   UNL     1       2.696   6.855  18.560  0.00  0.00    +0.000 A 
ATOM     20  C   UNL     1       2.795   7.899  17.601  0.00  0.00    +0.000 A 
ATOM     21  C   UNL     1       2.248   9.165  17.819  0.00  0.00    +0.000 A 
ATOM     22  C   UNL     1       1.584   9.434  19.006  0.00  0.00    +0.000 A 
ATOM     23  C   UNL     1       1.466   8.433  19.965  0.00  0.00    +0.000 A 
ATOM     24  C   UNL     1       2.010   7.155  19.755  0.00  0.00    +0.000 A 
ATOM     25  C   UNL     1       1.849   6.163  20.732  0.00  0.00    +0.000 A 
ATOM     26  C   UNL     1       2.387   4.879  20.582  0.00  0.00    +0.000 A 
ATOM     27  C   UNL     1       2.177   3.915  21.583  0.00  0.00    +0.000 A 
ATOM     28  C   UNL     1       2.715   2.635  21.473  0.00  0.00    +0.000 A 
ATOM     29  C   UNL     1       3.492   2.311  20.372  0.00  0.00    +0.000 A 
ATOM     30  C   UNL     1       3.696   3.257  19.366  0.00  0.00    +0.000 A 
ATOM     31  C   UNL     1       3.124   4.553  19.424  0.00  0.00    +0.000 A 
ENDBRANCH  17  18
ENDBRANCH   1  17
TORSDOF 13
ENDMDL
MODEL 2
REMARK VINA RESULT:      -7.0      4.732      8.408
REMARK  Name = 
REMARK  13 active torsions:
REMARK  status: ('A' for Active; 'I' for Inactive)
REMARK    1  A    between atoms: N_1  and  C_2
REMARK    2  A    between atoms: C_2  and  C_3
REMARK    3  A    between atoms: C_3  and  C_4
REMARK    4  A    between atoms: C_4  and  C_5
REMARK    5  A    between atoms: C_5  and  N_6
REMARK    6  A    between atoms: N_6  and  C_7
REMARK    7  A    between atoms: C_7  and  C_8
REMARK    8  A    between atoms: C_8  and  C_9
REMARK    9  A    between atoms: C_9  and  C_10
REMARK   10  A    between atoms: C_10  and  N_11
REMARK   11  A    between atoms: N_11  and  C_12
REMARK   12  A    between atoms: C_12  and  C_13
REMARK   13  A    between atoms: C_13  and  C_14
REMARK                            x       y       z     vdW  Elec       q    Type
REMARK                         _______ _______ _______ _____ _____    ______ ____
ROOT
ATOM      1  C   UNL     1       2.573   8.144  18.171  0.00  0.00    +0.000 C 
ENDROOT
BRANCH   1   2
ATOM      2  N   UNL     1       1.847   9.059  19.068  0.00  0.00    +0.000 NA
ATOM      3  H   UNL     1       1.586   8.551  19.915  0.00  0.00    +0.000 HD
BRANCH   2   4
ATOM      4  C   UNL     1       0.639   9.577  18.429  0.00  0.00    +0.000 C 
BRANCH   4   5
ATOM      5  C   UNL     1      -0.150  10.462  19.382  0.00  0.00    +0.000 C 
BRANCH   5   6
ATOM      6  C   UNL     1      -1.508  10.781  18.756  0.00  0.00    +0.000 C 
BRANCH   6   7
ATOM      7  C   UNL     1      -1.401  12.000  17.853  0.00  0.00    +0.000 C 
BRANCH   7   8
ATOM      8  N   UNL     1      -2.370  11.885  16.767  0.00  0.00    +0.000 NA
ATOM      9  H   UNL     1      -2.998  12.690  16.778  0.00  0.00    +0.000 HD
BRANCH   8  10
ATOM     10  C   UNL     1      -3.139  10.656  16.925  0.00  0.00    +0.000 C 
BRANCH  10  11
ATOM     11  C   UNL     1      -3.904  10.350  15.642  0.00  0.00    +0.000 C 
BRANCH  11  12
ATOM     12  C   UNL     1      -2.922  10.138  14.491  0.00  0.00    +0.000 C 
BRANCH  12  13
ATOM     13  C   UNL     1      -3.655   9.938  13.170  0.00  0.00    +0.000 C 
BRANCH  13  14
ATOM     14  N   UNL     1      -2.712   9.502  12.148  0.00  0.00    +0.000 NA
ATOM     15  H   UNL     1      -2.063   8.830  12.554  0.00  0.00    +0.000 HD
ATOM     16  H   UNL     1      -2.151  10.294  11.839  0.00  0.00    +0.000 HD
ENDBRANCH  13  14
ENDBRANCH  12  13
ENDBRANCH  11  12
ENDBRANCH  10  11
ENDBRANCH   8  10
ENDBRANCH   7   8
ENDBRANCH   6   7
ENDBRANCH   5   6
ENDBRANCH   4   5
ENDBRANCH   2   4
ENDBRANCH   1   2
BRANCH   1  17
ATOM     17  C   UNL     1       3.366   7.078  18.940  0.00  0.00    +0.000 C 
BRANCH  17  18
ATOM     18  C   UNL     1       3.357   5.713  18.269  0.00  0.00    +0.000 A 
ATOM     19  C   UNL     1       4.206   5.480  17.134  0.00  0.00    +0.000 A 
ATOM     20  C   UNL     1       4.998   6.474  16.498  0.00  0.00    +0.000 A 
ATOM     21  C   UNL     1       5.812   6.189  15.400  0.00  0.00    +0.000 A 
ATOM     22  C   UNL     1       5.862   4.899  14.896  0.00  0.00    +0.000 A 
ATOM     23  C   UNL     1       5.101   3.900  15.498  0.00  0.00    +0.000 A 
ATOM     24  C   UNL     1       4.282   4.175  16.604  0.00  0.00    +0.000 A 
ATOM     25  C   UNL     1       3.550   3.140  17.201  0.00  0.00    +0.000 A 
ATOM     26  C   UNL     1       2.703   3.363  18.293  0.00  0.00    +0.000 A 
ATOM     27  C   UNL     1       2.009   2.284  18.868  0.00  0.00    +0.000 A 
ATOM     28  C   UNL     1       1.145   2.475  19.943  0.00  0.00    +0.000 A 
ATOM     29  C   UNL     1       0.943   3.753  20.440  0.00  0.00    +0.000 A 
ATOM     30  C   UNL     1       1.638   4.829  19.886  0.00  0.00    +0.000 A 
ATOM     31  C   UNL     1       2.561   4.662  18.822  0.00  0.00    +0.000 A 
ENDBRANCH  17  18
ENDBRANCH   1  17
TORSDOF 13
ENDMDL
MODEL 3
REMARK VINA RESULT:      -7.0      4.735      8.550
REMARK  Name = 
REMARK  13 active torsions:
REMARK  status: ('A' for Active; 'I' for Inactive)
REMARK    1  A    between atoms: N_1  and  C_2
REMARK    2  A    between atoms: C_2  and  C_3
REMARK    3  A    between atoms: C_3  and  C_4
REMARK    4  A    between atoms: C_4  and  C_5
REMARK    5  A    between atoms: C_5  and  N_6
REMARK    6  A    between atoms: N_6  and  C_7
REMARK    7  A    between atoms: C_7  and  C_8
REMARK    8  A    between atoms: C_8  and  C_9
REMARK    9  A    between atoms: C_9  and  C_10
REMARK   10  A    between atoms: C_10  and  N_11
REMARK   11  A    between atoms: N_11  and  C_12
REMARK   12  A    between atoms: C_12  and  C_13
REMARK   13  A    between atoms: C_13  and  C_14
REMARK                            x       y       z     vdW  Elec       q    Type
REMARK                         _______ _______ _______ _____ _____    ______ ____
ROOT
ATOM      1  C   UNL     1       1.795   7.959  17.901  0.00  0.00    +0.000 C 
ENDROOT
BRANCH   1   2
ATOM      2  N   UNL     1       1.353   9.276  18.390  0.00  0.00    +0.000 NA
ATOM      3  H   UNL     1       1.992   9.989  18.034  0.00  0.00    +0.000 HD
BRANCH   2   4
ATOM      4  C   UNL     1       1.348   9.322  19.851  0.00  0.00    +0.000 C 
BRANCH   4   5
ATOM      5  C   UNL     1      -0.027   9.694  20.384  0.00  0.00    +0.000 C 
BRANCH   5   6
ATOM      6  C   UNL     1      -0.361   8.793  21.573  0.00  0.00    +0.000 C 
BRANCH   6   7
ATOM      7  C   UNL     1       0.075   9.449  22.873  0.00  0.00    +0.000 C 
BRANCH   7   8
ATOM      8  N   UNL     1      -0.147  10.890  22.787  0.00  0.00    +0.000 NA
ATOM      9  H   UNL     1       0.492  11.376  23.418  0.00  0.00    +0.000 HD
BRANCH   8  10
ATOM     10  C   UNL     1      -1.527  11.195  23.150  0.00  0.00    +0.000 C 
BRANCH  10  11
ATOM     11  C   UNL     1      -2.061  12.321  22.272  0.00  0.00    +0.000 C 
BRANCH  11  12
ATOM     12  C   UNL     1      -3.529  12.584  22.604  0.00  0.00    +0.000 C 
BRANCH  12  13
ATOM     13  C   UNL     1      -4.337  12.869  21.344  0.00  0.00    +0.000 C 
BRANCH  13  14
ATOM     14  N   UNL     1      -3.435  13.161  20.238  0.00  0.00    +0.000 NA
ATOM     15  H   UNL     1      -3.382  12.350  19.624  0.00  0.00    +0.000 HD
ATOM     16  H   UNL     1      -2.492  13.313  20.595  0.00  0.00    +0.000 HD
ENDBRANCH  13  14
ENDBRANCH  12  13
ENDBRANCH  11  12
ENDBRANCH  10  11
ENDBRANCH   8  10
ENDBRANCH   7   8
ENDBRANCH   6   7
ENDBRANCH   5   6
ENDBRANCH   4   5
ENDBRANCH   2   4
ENDBRANCH   1   2
BRANCH   1  17
ATOM     17  C   UNL     1       2.827   7.305  18.831  0.00  0.00    +0.000 C 
BRANCH  17  18
ATOM     18  C   UNL     1       3.190   5.884  18.432  0.00  0.00    +0.000 A 
ATOM     19  C   UNL     1       2.570   4.780  19.112  0.00  0.00    +0.000 A 
ATOM     20  C   UNL     1       1.702   4.905  20.230  0.00  0.00    +0.000 A 
ATOM     21  C   UNL     1       1.120   3.795  20.848  0.00  0.00    +0.000 A 
ATOM     22  C   UNL     1       1.389   2.522  20.372  0.00  0.00    +0.000 A 
ATOM     23  C   UNL     1       2.233   2.365  19.277  0.00  0.00    +0.000 A 
ATOM     24  C   UNL     1       2.820   3.473  18.646  0.00  0.00    +0.000 A 
ATOM     25  C   UNL     1       3.644   3.280  17.529  0.00  0.00    +0.000 A 
ATOM     26  C   UNL     1       4.270   4.348  16.874  0.00  0.00    +0.000 A 
ATOM     27  C   UNL     1       5.068   4.100  15.744  0.00  0.00    +0.000 A 
ATOM     28  C   UNL     1       5.719   5.138  15.081  0.00  0.00    +0.000 A 
ATOM     29  C   UNL     1       5.602   6.434  15.557  0.00  0.00    +0.000 A 
ATOM     30  C   UNL     1       4.801   6.693  16.670  0.00  0.00    +0.000 A 
ATOM     31  C   UNL     1       4.086   5.667  17.339  0.00  0.00    +0.000 A 
ENDBRANCH  17  18
ENDBRANCH   1  17
TORSDOF 13
ENDMDL
MODEL 4
REMARK VINA RESULT:      -7.0      4.680      8.200
REMARK  Name = 
REMARK  13 active torsions:
REMARK  status: ('A' for Active; 'I' for Inactive)
REMARK    1  A    between atoms: N_1  and  C_2
REMARK    2  A    between atoms: C_2  and  C_3
REMARK    3  A    between atoms: C_3  and  C_4
REMARK    4  A    between atoms: C_4  and  C_5
REMARK    5  A    between atoms: C_5  and  N_6
REMARK    6  A    between atoms: N_6  and  C_7
REMARK    7  A    between atoms: C_7  and  C_8
REMARK    8  A    between atoms: C_8  and  C_9
REMARK    9  A    between atoms: C_9  and  C_10
REMARK   10  A    between atoms: C_10  and  N_11
REMARK   11  A    between atoms: N_11  and  C_12
REMARK   12  A    between atoms: C_12  and  C_13
REMARK   13  A    between atoms: C_13  and  C_14
REMARK                            x       y       z     vdW  Elec       q    Type
REMARK                         _______ _______ _______ _____ _____    ______ ____
ROOT
ATOM      1  C   UNL     1       2.227   7.953  18.162  0.00  0.00    +0.000 C 
ENDROOT
BRANCH   1   2
ATOM      2  N   UNL     1       1.518   8.909  19.029  0.00  0.00    +0.000 NA
ATOM      3  H   UNL     1       1.938   9.832  18.912  0.00  0.00    +0.000 HD
BRANCH   2   4
ATOM      4  C   UNL     1       1.608   8.515  20.434  0.00  0.00    +0.000 C 
BRANCH   4   5
ATOM      5  C   UNL     1       0.366   8.939  21.203  0.00  0.00    +0.000 C 
BRANCH   5   6
ATOM      6  C   UNL     1      -0.538   9.755  20.279  0.00  0.00    +0.000 C 
BRANCH   6   7
ATOM      7  C   UNL     1      -0.722  11.162  20.824  0.00  0.00    +0.000 C 
BRANCH   7   8
ATOM      8  N   UNL     1      -0.940  12.087  19.716  0.00  0.00    +0.000 NA
ATOM      9  H   UNL     1      -1.793  12.624  19.878  0.00  0.00    +0.000 HD
BRANCH   8  10
ATOM     10  C   UNL     1      -1.057  11.338  18.470  0.00  0.00    +0.000 C 
BRANCH  10  11
ATOM     11  C   UNL     1      -2.492  11.396  17.958  0.00  0.00    +0.000 C 
BRANCH  11  12
ATOM     12  C   UNL     1      -2.881  10.048  17.352  0.00  0.00    +0.000 C 
BRANCH  12  13
ATOM     13  C   UNL     1      -2.802  10.084  15.831  0.00  0.00    +0.000 C 
BRANCH  13  14
ATOM     14  N   UNL     1      -3.164  11.412  15.352  0.00  0.00    +0.000 NA
ATOM     15  H   UNL     1      -3.954  11.335  14.713  0.00  0.00    +0.000 HD
ATOM     16  H   UNL     1      -2.394  11.803  14.812  0.00  0.00    +0.000 HD
ENDBRANCH  13  14
ENDBRANCH  12  13
ENDBRANCH  11  12
ENDBRANCH  10  11
ENDBRANCH   8  10
ENDBRANCH   7   8
ENDBRANCH   6   7
ENDBRANCH   5   6
ENDBRANCH   4   5
ENDBRANCH   2   4
ENDBRANCH   1   2
BRANCH   1  17
ATOM     17  C   UNL     1       3.209   7.070  18.945  0.00  0.00    +0.000 C 
BRANCH  17  18
ATOM     18  C   UNL     1       3.382   5.680  18.353  0.00  0.00    +0.000 A 
ATOM     19  C   UNL     1       2.524   4.614  18.792  0.00  0.00    +0.000 A 
ATOM     20  C   UNL     1       1.571   4.724  19.840  0.00  0.00    +0.000 A 
ATOM     21  C   UNL     1       0.756   3.654  20.220  0.00  0.00    +0.000 A 
ATOM     22  C   UNL     1       0.869   2.437  19.568  0.00  0.00    +0.000 A 
ATOM     23  C   UNL     1       1.791   2.297  18.535  0.00  0.00    +0.000 A 
ATOM     24  C   UNL     1       2.611   3.366  18.142  0.00  0.00    +0.000 A 
ATOM     25  C   UNL     1       3.510   3.198  17.080  0.00  0.00    +0.000 A 
ATOM     26  C   UNL     1       4.365   4.224  16.660  0.00  0.00    +0.000 A 
ATOM     27  C   UNL     1       5.232   4.009  15.574  0.00  0.00    +0.000 A 
ATOM     28  C   UNL     1       6.107   5.003  15.144  0.00  0.00    +0.000 A 
ATOM     29  C   UNL     1       6.147   6.216  15.813  0.00  0.00    +0.000 A 
ATOM     30  C   UNL     1       5.281   6.445  16.884  0.00  0.00    +0.000 A 
ATOM     31  C   UNL     1       4.344   5.473  17.316  0.00  0.00    +0.000 A 
ENDBRANCH  17  18
ENDBRANCH   1  17
TORSDOF 13
ENDMDL
MODEL 5
REMARK VINA RESULT:      -7.0      4.891      8.995
REMARK  Name = 
REMARK  13 active torsions:
REMARK  status: ('A' for Active; 'I' for Inactive)
REMARK    1  A    between atoms: N_1  and  C_2
REMARK    2  A    between atoms: C_2  and  C_3
REMARK    3  A    between atoms: C_3  and  C_4
REMARK    4  A    between atoms: C_4  and  C_5
REMARK    5  A    between atoms: C_5  and  N_6
REMARK    6  A    between atoms: N_6  and  C_7
REMARK    7  A    between atoms: C_7  and  C_8
REMARK    8  A    between atoms: C_8  and  C_9
REMARK    9  A    between atoms: C_9  and  C_10
REMARK   10  A    between atoms: C_10  and  N_11
REMARK   11  A    between atoms: N_11  and  C_12
REMARK   12  A    between atoms: C_12  and  C_13
REMARK   13  A    between atoms: C_13  and  C_14
REMARK                            x       y       z     vdW  Elec       q    Type
REMARK                         _______ _______ _______ _____ _____    ______ ____
ROOT
ATOM      1  C   UNL     1       1.833   8.038  17.630  0.00  0.00    +0.000 C 
ENDROOT
BRANCH   1   2
ATOM      2  N   UNL     1       1.931   9.497  17.458  0.00  0.00    +0.000 NA
ATOM      3  H   UNL     1       2.883   9.731  17.173  0.00  0.00    +0.000 HD
BRANCH   2   4
ATOM      4  C   UNL     1       1.617  10.198  18.702  0.00  0.00    +0.000 C 
BRANCH   4   5
ATOM      5  C   UNL     1       0.272   9.757  19.256  0.00  0.00    +0.000 C 
BRANCH   5   6
ATOM      6  C   UNL     1      -0.840  10.322  18.371  0.00  0.00    +0.000 C 
BRANCH   6   7
ATOM      7  C   UNL     1      -0.804  11.842  18.382  0.00  0.00    +0.000 C 
BRANCH   7   8
ATOM      8  N   UNL     1      -2.052  12.360  17.828  0.00  0.00    +0.000 NA
ATOM      9  H   UNL     1      -2.595  12.813  18.565  0.00  0.00    +0.000 HD
BRANCH   8  10
ATOM     10  C   UNL     1      -2.822  11.265  17.248  0.00  0.00    +0.000 C 
BRANCH  10  11
ATOM     11  C   UNL     1      -4.186  11.172  17.921  0.00  0.00    +0.000 C 
BRANCH  11  12
ATOM     12  C   UNL     1      -5.250  11.807  17.027  0.00  0.00    +0.000 C 
BRANCH  12  13
ATOM     13  C   UNL     1      -6.090  12.816  17.800  0.00  0.00    +0.000 C 
BRANCH  13  14
ATOM     14  N   UNL     1      -6.436  13.934  16.931  0.00  0.00    +0.000 NA
ATOM     15  H   UNL     1      -7.423  13.876  16.685  0.00  0.00    +0.000 HD
ATOM     16  H   UNL     1      -5.916  13.863  16.057  0.00  0.00    +0.000 HD
ENDBRANCH  13  14
ENDBRANCH  12  13
ENDBRANCH  11  12
ENDBRANCH  10  11
ENDBRANCH   8  10
ENDBRANCH   7   8
ENDBRANCH   6   7
ENDBRANCH   5   6
ENDBRANCH   4   5
ENDBRANCH   2   4
ENDBRANCH   1   2
BRANCH   1  17
ATOM     17  C   UNL     1       2.966   7.475  18.499  0.00  0.00    +0.000 C 
BRANCH  17  18
ATOM     18  C   UNL     1       3.294   6.020  18.202  0.00  0.00    +0.000 A 
ATOM     19  C   UNL     1       2.631   4.982  18.942  0.00  0.00    +0.000 A 
ATOM     20  C   UNL     1       1.749   5.205  20.033  0.00  0.00    +0.000 A 
ATOM     21  C   UNL     1       1.125   4.156  20.713  0.00  0.00    +0.000 A 
ATOM     22  C   UNL     1       1.364   2.846  20.327  0.00  0.00    +0.000 A 
ATOM     23  C   UNL     1       2.220   2.593  19.259  0.00  0.00    +0.000 A 
ATOM     24  C   UNL     1       2.849   3.640  18.567  0.00  0.00    +0.000 A 
ATOM     25  C   UNL     1       3.685   3.350  17.480  0.00  0.00    +0.000 A 
ATOM     26  C   UNL     1       4.352   4.354  16.767  0.00  0.00    +0.000 A 
ATOM     27  C   UNL     1       5.161   4.009  15.671  0.00  0.00    +0.000 A 
ATOM     28  C   UNL     1       5.853   4.982  14.953  0.00  0.00    +0.000 A 
ATOM     29  C   UNL     1       5.766   6.309  15.340  0.00  0.00    +0.000 A 
ATOM     30  C   UNL     1       4.955   6.665  16.419  0.00  0.00    +0.000 A 
ATOM     31  C   UNL     1       4.200   5.706  17.141  0.00  0.00    +0.000 A 
ENDBRANCH  17  18
ENDBRANCH   1  17
TORSDOF 13
ENDMDL
MODEL 6
REMARK VINA RESULT:      -6.9      4.824      8.140
REMARK  Name = 
REMARK  13 active torsions:
REMARK  status: ('A' for Active; 'I' for Inactive)
REMARK    1  A    between atoms: N_1  and  C_2
REMARK    2  A    between atoms: C_2  and  C_3
REMARK    3  A    between atoms: C_3  and  C_4
REMARK    4  A    between atoms: C_4  and  C_5
REMARK    5  A    between atoms: C_5  and  N_6
REMARK    6  A    between atoms: N_6  and  C_7
REMARK    7  A    between atoms: C_7  and  C_8
REMARK    8  A    between atoms: C_8  and  C_9
REMARK    9  A    between atoms: C_9  and  C_10
REMARK   10  A    between atoms: C_10  and  N_11
REMARK   11  A    between atoms: N_11  and  C_12
REMARK   12  A    between atoms: C_12  and  C_13
REMARK   13  A    between atoms: C_13  and  C_14
REMARK                            x       y       z     vdW  Elec       q    Type
REMARK                         _______ _______ _______ _____ _____    ______ ____
ROOT
ATOM      1  C   UNL     1       2.280   8.068  18.191  0.00  0.00    +0.000 C 
ENDROOT
BRANCH   1   2
ATOM      2  N   UNL     1       1.438   8.891  19.076  0.00  0.00    +0.000 NA
ATOM      3  H   UNL     1       0.843   8.274  19.630  0.00  0.00    +0.000 HD
BRANCH   2   4
ATOM      4  C   UNL     1       0.596   9.804  18.304  0.00  0.00    +0.000 C 
BRANCH   4   5
ATOM      5  C   UNL     1       0.820  11.247  18.727  0.00  0.00    +0.000 C 
BRANCH   5   6
ATOM      6  C   UNL     1      -0.133  11.584  19.873  0.00  0.00    +0.000 C 
BRANCH   6   7
ATOM      7  C   UNL     1      -1.186  12.579  19.411  0.00  0.00    +0.000 C 
BRANCH   7   8
ATOM      8  N   UNL     1      -2.467  11.895  19.259  0.00  0.00    +0.000 NA
ATOM      9  H   UNL     1      -2.471  11.042  19.820  0.00  0.00    +0.000 HD
BRANCH   8  10
ATOM     10  C   UNL     1      -2.682  11.565  17.855  0.00  0.00    +0.000 C 
BRANCH  10  11
ATOM     11  C   UNL     1      -3.142  10.118  17.723  0.00  0.00    +0.000 C 
BRANCH  11  12
ATOM     12  C   UNL     1      -2.889   9.621  16.301  0.00  0.00    +0.000 C 
BRANCH  12  13
ATOM     13  C   UNL     1      -2.845  10.778  15.311  0.00  0.00    +0.000 C 
BRANCH  13  14
ATOM     14  N   UNL     1      -3.470  10.376  14.058  0.00  0.00    +0.000 NA
ATOM     15  H   UNL     1      -2.750  10.242  13.350  0.00  0.00    +0.000 HD
ATOM     16  H   UNL     1      -4.072  11.124  13.718  0.00  0.00    +0.000 HD
ENDBRANCH  13  14
ENDBRANCH  12  13
ENDBRANCH  11  12
ENDBRANCH  10  11
ENDBRANCH   8  10
ENDBRANCH   7   8
ENDBRANCH   6   7
ENDBRANCH   5   6
ENDBRANCH   4   5
ENDBRANCH   2   4
ENDBRANCH   1   2
BRANCH   1  17
ATOM     17  C   UNL     1       3.208   7.129  18.974  0.00  0.00    +0.000 C 
BRANCH  17  18
ATOM     18  C   UNL     1       3.289   5.727  18.389  0.00  0.00    +0.000 A 
ATOM     19  C   UNL     1       4.123   5.488  17.244  0.00  0.00    +0.000 A 
ATOM     20  C   UNL     1       4.816   6.498  16.523  0.00  0.00    +0.000 A 
ATOM     21  C   UNL     1       5.620   6.206  15.419  0.00  0.00    +0.000 A 
ATOM     22  C   UNL     1       5.757   4.894  14.995  0.00  0.00    +0.000 A 
ATOM     23  C   UNL     1       5.095   3.880  15.681  0.00  0.00    +0.000 A 
ATOM     24  C   UNL     1       4.287   4.162  16.794  0.00  0.00    +0.000 A 
ATOM     25  C   UNL     1       3.655   3.113  17.477  0.00  0.00    +0.000 A 
ATOM     26  C   UNL     1       2.824   3.340  18.580  0.00  0.00    +0.000 A 
ATOM     27  C   UNL     1       2.233   2.250  19.242  0.00  0.00    +0.000 A 
ATOM     28  C   UNL     1       1.386   2.442  20.331  0.00  0.00    +0.000 A 
ATOM     29  C   UNL     1       1.098   3.730  20.754  0.00  0.00    +0.000 A 
ATOM     30  C   UNL     1       1.689   4.819  20.112  0.00  0.00    +0.000 A 
ATOM     31  C   UNL     1       2.593   4.656  19.032  0.00  0.00    +0.000 A 
ENDBRANCH  17  18
ENDBRANCH   1  17
TORSDOF 13
ENDMDL
MODEL 7
REMARK VINA RESULT:      -6.9      4.702      8.376
REMARK  Name = 
REMARK  13 active torsions:
REMARK  status: ('A' for Active; 'I' for Inactive)
REMARK    1  A    between atoms: N_1  and  C_2
REMARK    2  A    between atoms: C_2  and  C_3
REMARK    3  A    between atoms: C_3  and  C_4
REMARK    4  A    between atoms: C_4  and  C_5
REMARK    5  A    between atoms: C_5  and  N_6
REMARK    6  A    between atoms: N_6  and  C_7
REMARK    7  A    between atoms: C_7  and  C_8
REMARK    8  A    between atoms: C_8  and  C_9
REMARK    9  A    between atoms: C_9  and  C_10
REMARK   10  A    between atoms: C_10  and  N_11
REMARK   11  A    between atoms: N_11  and  C_12
REMARK   12  A    between atoms: C_12  and  C_13
REMARK   13  A    between atoms: C_13  and  C_14
REMARK                            x       y       z     vdW  Elec       q    Type
REMARK                         _______ _______ _______ _____ _____    ______ ____
ROOT
ATOM      1  C   UNL     1       2.148   7.930  17.492  0.00  0.00    +0.000 C 
ENDROOT
BRANCH   1   2
ATOM      2  N   UNL     1       2.162   9.387  17.702  0.00  0.00    +0.000 NA
ATOM      3  H   UNL     1       2.961   9.627  18.290  0.00  0.00    +0.000 HD
BRANCH   2   4
ATOM      4  C   UNL     1       0.934   9.839  18.355  0.00  0.00    +0.000 C 
BRANCH   4   5
ATOM      5  C   UNL     1       0.915   9.443  19.823  0.00  0.00    +0.000 C 
BRANCH   5   6
ATOM      6  C   UNL     1      -0.364   9.978  20.467  0.00  0.00    +0.000 C 
BRANCH   6   7
ATOM      7  C   UNL     1      -0.377  11.498  20.433  0.00  0.00    +0.000 C 
BRANCH   7   8
ATOM      8  N   UNL     1       0.030  12.015  21.737  0.00  0.00    +0.000 NA
ATOM      9  H   UNL     1       0.963  11.672  21.969  0.00  0.00    +0.000 HD
BRANCH   8  10
ATOM     10  C   UNL     1      -0.922  11.582  22.754  0.00  0.00    +0.000 C 
BRANCH  10  11
ATOM     11  C   UNL     1      -1.714  12.777  23.271  0.00  0.00    +0.000 C 
BRANCH  11  12
ATOM     12  C   UNL     1      -3.203  12.571  22.995  0.00  0.00    +0.000 C 
BRANCH  12  13
ATOM     13  C   UNL     1      -4.001  12.509  24.292  0.00  0.00    +0.000 C 
BRANCH  13  14
ATOM     14  N   UNL     1      -4.135  13.849  24.849  0.00  0.00    +0.000 NA
ATOM     15  H   UNL     1      -5.124  14.074  24.948  0.00  0.00    +0.000 HD
ATOM     16  H   UNL     1      -3.748  14.531  24.199  0.00  0.00    +0.000 HD
ENDBRANCH  13  14
ENDBRANCH  12  13
ENDBRANCH  11  12
ENDBRANCH  10  11
ENDBRANCH   8  10
ENDBRANCH   7   8
ENDBRANCH   6   7
ENDBRANCH   5   6
ENDBRANCH   4   5
ENDBRANCH   2   4
ENDBRANCH   1   2
BRANCH   1  17
ATOM     17  C   UNL     1       3.166   7.201  18.380  0.00  0.00    +0.000 C 
BRANCH  17  18
ATOM     18  C   UNL     1       3.339   5.732  18.027  0.00  0.00    +0.000 A 
ATOM     19  C   UNL     1       4.278   5.357  17.007  0.00  0.00    +0.000 A 
ATOM     20  C   UNL     1       5.004   6.274  16.200  0.00  0.00    +0.000 A 
ATOM     21  C   UNL     1       5.912   5.852  15.225  0.00  0.00    +0.000 A 
ATOM     22  C   UNL     1       6.123   4.498  15.022  0.00  0.00    +0.000 A 
ATOM     23  C   UNL     1       5.431   3.573  15.798  0.00  0.00    +0.000 A 
ATOM     24  C   UNL     1       4.519   3.986  16.782  0.00  0.00    +0.000 A 
ATOM     25  C   UNL     1       3.859   3.028  17.563  0.00  0.00    +0.000 A 
ATOM     26  C   UNL     1       2.926   3.384  18.544  0.00  0.00    +0.000 A 
ATOM     27  C   UNL     1       2.309   2.383  19.315  0.00  0.00    +0.000 A 
ATOM     28  C   UNL     1       1.363   2.703  20.286  0.00  0.00    +0.000 A 
ATOM     29  C   UNL     1       1.002   4.026  20.480  0.00  0.00    +0.000 A 
ATOM     30  C   UNL     1       1.618   5.029  19.729  0.00  0.00    +0.000 A 
ATOM     31  C   UNL     1       2.619   4.743  18.767  0.00  0.00    +0.000 A 
ENDBRANCH  17  18
ENDBRANCH   1  17
TORSDOF 13
ENDMDL
MODEL 8
REMARK VINA RESULT:      -6.9      4.889      9.269
REMARK  Name = 
REMARK  13 active torsions:
REMARK  status: ('A' for Active; 'I' for Inactive)
REMARK    1  A    between atoms: N_1  and  C_2
REMARK    2  A    between atoms: C_2  and  C_3
REMARK    3  A    between atoms: C_3  and  C_4
REMARK    4  A    between atoms: C_4  and  C_5
REMARK    5  A    between atoms: C_5  and  N_6
REMARK    6  A    between atoms: N_6  and  C_7
REMARK    7  A    between atoms: C_7  and  C_8
REMARK    8  A    between atoms: C_8  and  C_9
REMARK    9  A    between atoms: C_9  and  C_10
REMARK   10  A    between atoms: C_10  and  N_11
REMARK   11  A    between atoms: N_11  and  C_12
REMARK   12  A    between atoms: C_12  and  C_13
REMARK   13  A    between atoms: C_13  and  C_14
REMARK                            x       y       z     vdW  Elec       q    Type
REMARK                         _______ _______ _______ _____ _____    ______ ____
ROOT
ATOM      1  C   UNL     1       1.781   7.968  17.765  0.00  0.00    +0.000 C 
ENDROOT
BRANCH   1   2
ATOM      2  N   UNL     1       2.014   9.409  17.576  0.00  0.00    +0.000 NA
ATOM      3  H   UNL     1       2.967   9.629  17.869  0.00  0.00    +0.000 HD
BRANCH   2   4
ATOM      4  C   UNL     1       1.075  10.204  18.366  0.00  0.00    +0.000 C 
BRANCH   4   5
ATOM      5  C   UNL     1      -0.362   9.791  18.087  0.00  0.00    +0.000 C 
BRANCH   5   6
ATOM      6  C   UNL     1      -1.285  10.976  18.373  0.00  0.00    +0.000 C 
BRANCH   6   7
ATOM      7  C   UNL     1      -2.221  11.213  17.199  0.00  0.00    +0.000 C 
BRANCH   7   8
ATOM      8  N   UNL     1      -3.492  10.539  17.450  0.00  0.00    +0.000 NA
ATOM      9  H   UNL     1      -3.452   9.583  17.094  0.00  0.00    +0.000 HD
BRANCH   8  10
ATOM     10  C   UNL     1      -4.571  11.267  16.790  0.00  0.00    +0.000 C 
BRANCH  10  11
ATOM     11  C   UNL     1      -5.773  11.376  17.721  0.00  0.00    +0.000 C 
BRANCH  11  12
ATOM     12  C   UNL     1      -5.994  12.836  18.114  0.00  0.00    +0.000 C 
BRANCH  12  13
ATOM     13  C   UNL     1      -5.606  13.081  19.567  0.00  0.00    +0.000 C 
BRANCH  13  14
ATOM     14  N   UNL     1      -4.170  12.899  19.729  0.00  0.00    +0.000 NA
ATOM     15  H   UNL     1      -3.976  12.580  20.677  0.00  0.00    +0.000 HD
ATOM     16  H   UNL     1      -3.696  13.795  19.624  0.00  0.00    +0.000 HD
ENDBRANCH  13  14
ENDBRANCH  12  13
ENDBRANCH  11  12
ENDBRANCH  10  11
ENDBRANCH   8  10
ENDBRANCH   7   8
ENDBRANCH   6   7
ENDBRANCH   5   6
ENDBRANCH   4   5
ENDBRANCH   2   4
ENDBRANCH   1   2
BRANCH   1  17
ATOM     17  C   UNL     1       2.787   7.334  18.736  0.00  0.00    +0.000 C 
BRANCH  17  18
ATOM     18  C   UNL     1       3.175   5.911  18.367  0.00  0.00    +0.000 A 
ATOM     19  C   UNL     1       2.562   4.811  19.060  0.00  0.00    +0.000 A 
ATOM     20  C   UNL     1       1.679   4.943  20.165  0.00  0.00    +0.000 A 
ATOM     21  C   UNL     1       1.106   3.837  20.797  0.00  0.00    +0.000 A 
ATOM     22  C   UNL     1       1.399   2.559  20.347  0.00  0.00    +0.000 A 
ATOM     23  C   UNL     1       2.257   2.395  19.264  0.00  0.00    +0.000 A 
ATOM     24  C   UNL     1       2.835   3.500  18.619  0.00  0.00    +0.000 A 
ATOM     25  C   UNL     1       3.675   3.299  17.515  0.00  0.00    +0.000 A 
ATOM     26  C   UNL     1       4.293   4.363  16.848  0.00  0.00    +0.000 A 
ATOM     27  C   UNL     1       5.108   4.107  15.732  0.00  0.00    +0.000 A 
ATOM     28  C   UNL     1       5.752   5.142  15.058  0.00  0.00    +0.000 A 
ATOM     29  C   UNL     1       5.611   6.444  15.509  0.00  0.00    +0.000 A 
ATOM     30  C   UNL     1       4.794   6.712  16.609  0.00  0.00    +0.000 A 
ATOM     31  C   UNL     1       4.086   5.687  17.288  0.00  0.00    +0.000 A 
ENDBRANCH  17  18
ENDBRANCH   1  17
TORSDOF 13
ENDMDL
MODEL 9
REMARK VINA RESULT:      -6.8      5.115      9.265
REMARK  Name = 
REMARK  13 active torsions:
REMARK  status: ('A' for Active; 'I' for Inactive)
REMARK    1  A    between atoms: N_1  and  C_2
REMARK    2  A    between atoms: C_2  and  C_3
REMARK    3  A    between atoms: C_3  and  C_4
REMARK    4  A    between atoms: C_4  and  C_5
REMARK    5  A    between atoms: C_5  and  N_6
REMARK    6  A    between atoms: N_6  and  C_7
REMARK    7  A    between atoms: C_7  and  C_8
REMARK    8  A    between atoms: C_8  and  C_9
REMARK    9  A    between atoms: C_9  and  C_10
REMARK   10  A    between atoms: C_10  and  N_11
REMARK   11  A    between atoms: N_11  and  C_12
REMARK   12  A    between atoms: C_12  and  C_13
REMARK   13  A    between atoms: C_13  and  C_14
REMARK                            x       y       z     vdW  Elec       q    Type
REMARK                         _______ _______ _______ _____ _____    ______ ____
ROOT
ATOM      1  C   UNL     1       1.952   8.025  18.745  0.00  0.00    +0.000 C 
ENDROOT
BRANCH   1   2
ATOM      2  N   UNL     1       1.258   8.751  19.822  0.00  0.00    +0.000 NA
ATOM      3  H   UNL     1       0.425   8.224  20.089  0.00  0.00    +0.000 HD
BRANCH   2   4
ATOM      4  C   UNL     1       0.859  10.088  19.384  0.00  0.00    +0.000 C 
BRANCH   4   5
ATOM      5  C   UNL     1       0.045  10.026  18.101  0.00  0.00    +0.000 C 
BRANCH   5   6
ATOM      6  C   UNL     1      -1.380  10.497  18.392  0.00  0.00    +0.000 C 
BRANCH   6   7
ATOM      7  C   UNL     1      -2.148  10.693  17.095  0.00  0.00    +0.000 C 
BRANCH   7   8
ATOM      8  N   UNL     1      -3.147  11.742  17.277  0.00  0.00    +0.000 NA
ATOM      9  H   UNL     1      -2.995  12.213  18.170  0.00  0.00    +0.000 HD
BRANCH   8  10
ATOM     10  C   UNL     1      -4.483  11.157  17.247  0.00  0.00    +0.000 C 
BRANCH  10  11
ATOM     11  C   UNL     1      -5.494  12.134  17.837  0.00  0.00    +0.000 C 
BRANCH  11  12
ATOM     12  C   UNL     1      -5.717  11.820  19.315  0.00  0.00    +0.000 C 
BRANCH  12  13
ATOM     13  C   UNL     1      -7.163  11.421  19.583  0.00  0.00    +0.000 C 
BRANCH  13  14
ATOM     14  N   UNL     1      -7.220  10.528  20.734  0.00  0.00    +0.000 NA
ATOM     15  H   UNL     1      -6.993  11.052  21.578  0.00  0.00    +0.000 HD
ATOM     16  H   UNL     1      -6.507   9.806  20.643  0.00  0.00    +0.000 HD
ENDBRANCH  13  14
ENDBRANCH  12  13
ENDBRANCH  11  12
ENDBRANCH  10  11
ENDBRANCH   8  10
ENDBRANCH   7   8
ENDBRANCH   6   7
ENDBRANCH   5   6
ENDBRANCH   4   5
ENDBRANCH   2   4
ENDBRANCH   1   2
BRANCH   1  17
ATOM     17  C   UNL     1       3.092   7.143  19.274  0.00  0.00    +0.000 C 
BRANCH  17  18
ATOM     18  C   UNL     1       3.189   5.793  18.581  0.00  0.00    +0.000 A 
ATOM     19  C   UNL     1       4.021   5.657  17.417  0.00  0.00    +0.000 A 
ATOM     20  C   UNL     1       4.697   6.730  16.776  0.00  0.00    +0.000 A 
ATOM     21  C   UNL     1       5.500   6.537  15.650  0.00  0.00    +0.000 A 
ATOM     22  C   UNL     1       5.653   5.264  15.123  0.00  0.00    +0.000 A 
ATOM     23  C   UNL     1       5.008   4.190  15.729  0.00  0.00    +0.000 A 
ATOM     24  C   UNL     1       4.201   4.373  16.863  0.00  0.00    +0.000 A 
ATOM     25  C   UNL     1       3.586   3.265  17.464  0.00  0.00    +0.000 A 
ATOM     26  C   UNL     1       2.757   3.392  18.584  0.00  0.00    +0.000 A 
ATOM     27  C   UNL     1       2.184   2.245  19.160  0.00  0.00    +0.000 A 
ATOM     28  C   UNL     1       1.339   2.340  20.264  0.00  0.00    +0.000 A 
ATOM     29  C   UNL     1       1.035   3.586  20.788  0.00  0.00    +0.000 A 
ATOM     30  C   UNL     1       1.609   4.730  20.232  0.00  0.00    +0.000 A 
ATOM     31  C   UNL     1       2.511   4.665  19.139  0.00  0.00    +0.000 A 
ENDBRANCH  17  18
ENDBRANCH   1  17
TORSDOF 13
ENDMDL
