MODEL 1
REMARK VINA RESULT:      -6.9      0.000      0.000
REMARK  Name = 
REMARK  13 active torsions:
REMARK  status: ('A' for Active; 'I' for Inactive)
REMARK    1  A    between atoms: C_1  and  C_2
REMARK    2  A    between atoms: C_2  and  C_3
REMARK    3  A    between atoms: C_3  and  C_4
REMARK    4  A    between atoms: C_4  and  C_5
REMARK    5  A    between atoms: C_5  and  C_6
REMARK    6  A    between atoms: C_6  and  C_7
REMARK    7  A    between atoms: C_7  and  C_8
REMARK    8  A    between atoms: C_8  and  C_9
REMARK    9  A    between atoms: C_9  and  C_10
REMARK   10  A    between atoms: C_10  and  C_11
REMARK   11  A    between atoms: C_11  and  C_12
REMARK   12  A    between atoms: C_12  and  C_13
REMARK   13  A    between atoms: C_14  and  C_15
REMARK                            x       y       z     vdW  Elec       q    Type
REMARK                         _______ _______ _______ _____ _____    ______ ____
ROOT
ATOM      1  C   UNL     1       8.258   8.974  18.113  0.00  0.00    +0.000 C 
ATOM      2  C   UNL     1       8.976   9.866  18.462  0.00  0.00    +0.000 C 
ENDROOT
BRANCH   2   3
ATOM      3  C   UNL     1       9.777  11.008  18.740  0.00  0.00    +0.000 A 
ATOM      4  C   UNL     1      10.424  11.695  17.797  0.00  0.00    +0.000 A 
ATOM      5  N   UNL     1      11.236  12.739  18.138  0.00  0.00    +0.000 N 
ATOM      6  C   UNL     1      11.461  13.136  19.438  0.00  0.00    +0.000 A 
ATOM      7  O   UNL     1      12.264  14.041  19.645  0.00  0.00    +0.000 OA
ATOM      8  N   UNL     1      10.772  12.499  20.445  0.00  0.00    +0.000 NA
ATOM      9  C   UNL     1       9.978  11.512  20.142  0.00  0.00    +0.000 A 
ATOM     10  N   UNL     1       9.309  10.935  21.186  0.00  0.00    +0.000 N 
ATOM     11  H   UNL     1      11.761  13.249  17.432  0.00  0.00    +0.000 HD
ATOM     12  H   UNL     1       9.483  11.284  22.119  0.00  0.00    +0.000 HD
ATOM     13  H   UNL     1       8.678  10.157  21.061  0.00  0.00    +0.000 HD
ENDBRANCH   2   3
BRANCH   1  14
ATOM     14  C   UNL     1       7.371   7.971  17.505  0.00  0.00    +0.000 C 
BRANCH  14  15
ATOM     15  C   UNL     1       7.711   6.538  17.897  0.00  0.00    +0.000 C 
BRANCH  15  16
ATOM     16  C   UNL     1       6.468   5.811  18.409  0.00  0.00    +0.000 C 
BRANCH  16  17
ATOM     17  C   UNL     1       5.252   6.158  17.561  0.00  0.00    +0.000 C 
BRANCH  17  18
ATOM     18  C   UNL     1       5.215   5.289  16.313  0.00  0.00    +0.000 C 
BRANCH  18  19
ATOM     19  C   UNL     1       4.610   3.934  16.636  0.00  0.00    +0.000 C 
BRANCH  19  20
ATOM     20  C   UNL     1       3.537   4.079  17.701  0.00  0.00    +0.000 C 
BRANCH  20  21
ATOM     21  C   UNL     1       2.395   3.116  17.428  0.00  0.00    +0.000 C 
BRANCH  21  22
ATOM     22  C   UNL     1       2.056   2.333  18.686  0.00  0.00    +0.000 C 
BRANCH  22  23
ATOM     23  C   UNL     1       0.788   2.881  19.320  0.00  0.00    +0.000 C 
BRANCH  23  25
ATOM     24  C   UNL     1       1.784   2.709  21.602  0.00  0.00    +0.000 C 
ATOM     25  C   UNL     1       1.114   3.633  20.604  0.00  0.00    +0.000 C 
ENDBRANCH  23  25
ENDBRANCH  22  23
ENDBRANCH  21  22
ENDBRANCH  20  21
ENDBRANCH  19  20
ENDBRANCH  18  19
ENDBRANCH  17  18
ENDBRANCH  16  17
ENDBRANCH  15  16
ENDBRANCH  14  15
ENDBRANCH   1  14
TORSDOF 12
ENDMDL
MODEL 2
REMARK VINA RESULT:      -6.9      1.114      1.503
REMARK  Name = 
REMARK  13 active torsions:
REMARK  status: ('A' for Active; 'I' for Inactive)
REMARK    1  A    between atoms: C_1  and  C_2
REMARK    2  A    between atoms: C_2  and  C_3
REMARK    3  A    between atoms: C_3  and  C_4
REMARK    4  A    between atoms: C_4  and  C_5
REMARK    5  A    between atoms: C_5  and  C_6
REMARK    6  A    between atoms: C_6  and  C_7
REMARK    7  A    between atoms: C_7  and  C_8
REMARK    8  A    between atoms: C_8  and  C_9
REMARK    9  A    between atoms: C_9  and  C_10
REMARK   10  A    between atoms: C_10  and  C_11
REMARK   11  A    between atoms: C_11  and  C_12
REMARK   12  A    between atoms: C_12  and  C_13
REMARK   13  A    between atoms: C_14  and  C_15
REMARK                            x       y       z     vdW  Elec       q    Type
REMARK                         _______ _______ _______ _____ _____    ______ ____
ROOT
ATOM      1  C   UNL     1       8.300   8.796  18.189  0.00  0.00    +0.000 C 
ATOM      2  C   UNL     1       8.887   9.768  18.569  0.00  0.00    +0.000 C 
ENDROOT
BRANCH   2   3
ATOM      3  C   UNL     1       9.624  10.949  18.860  0.00  0.00    +0.000 A 
ATOM      4  C   UNL     1      10.160  11.727  17.919  0.00  0.00    +0.000 A 
ATOM      5  N   UNL     1      10.919  12.808  18.265  0.00  0.00    +0.000 N 
ATOM      6  C   UNL     1      11.200  13.154  19.570  0.00  0.00    +0.000 A 
ATOM      7  O   UNL     1      11.950  14.103  19.776  0.00  0.00    +0.000 OA
ATOM      8  N   UNL     1      10.623  12.419  20.581  0.00  0.00    +0.000 NA
ATOM      9  C   UNL     1       9.880  11.394  20.273  0.00  0.00    +0.000 A 
ATOM     10  N   UNL     1       9.322  10.719  21.323  0.00  0.00    +0.000 N 
ATOM     11  H   UNL     1      11.360  13.389  17.558  0.00  0.00    +0.000 HD
ATOM     12  H   UNL     1       9.532  11.031  22.261  0.00  0.00    +0.000 HD
ATOM     13  H   UNL     1       8.739   9.905  21.194  0.00  0.00    +0.000 HD
ENDBRANCH   2   3
BRANCH   1  14
ATOM     14  C   UNL     1       7.681   7.625  17.549  0.00  0.00    +0.000 C 
BRANCH  14  15
ATOM     15  C   UNL     1       7.785   6.350  18.378  0.00  0.00    +0.000 C 
BRANCH  15  16
ATOM     16  C   UNL     1       6.724   5.339  17.946  0.00  0.00    +0.000 C 
BRANCH  16  17
ATOM     17  C   UNL     1       5.505   5.414  18.854  0.00  0.00    +0.000 C 
BRANCH  17  18
ATOM     18  C   UNL     1       4.318   5.992  18.098  0.00  0.00    +0.000 C 
BRANCH  18  19
ATOM     19  C   UNL     1       3.068   5.933  18.960  0.00  0.00    +0.000 C 
BRANCH  19  20
ATOM     20  C   UNL     1       1.889   5.438  18.140  0.00  0.00    +0.000 C 
BRANCH  20  21
ATOM     21  C   UNL     1       2.156   4.030  17.638  0.00  0.00    +0.000 C 
BRANCH  21  22
ATOM     22  C   UNL     1       1.243   3.040  18.342  0.00  0.00    +0.000 C 
BRANCH  22  23
ATOM     23  C   UNL     1       2.009   2.300  19.427  0.00  0.00    +0.000 C 
BRANCH  23  25
ATOM     24  C   UNL     1       4.430   2.201  20.026  0.00  0.00    +0.000 C 
ATOM     25  C   UNL     1       3.405   1.934  18.941  0.00  0.00    +0.000 C 
ENDBRANCH  23  25
ENDBRANCH  22  23
ENDBRANCH  21  22
ENDBRANCH  20  21
ENDBRANCH  19  20
ENDBRANCH  18  19
ENDBRANCH  17  18
ENDBRANCH  16  17
ENDBRANCH  15  16
ENDBRANCH  14  15
ENDBRANCH   1  14
TORSDOF 12
ENDMDL
MODEL 3
REMARK VINA RESULT:      -6.8      5.793      7.680
REMARK  Name = 
REMARK  13 active torsions:
REMARK  status: ('A' for Active; 'I' for Inactive)
REMARK    1  A    between atoms: C_1  and  C_2
REMARK    2  A    between atoms: C_2  and  C_3
REMARK    3  A    between atoms: C_3  and  C_4
REMARK    4  A    between atoms: C_4  and  C_5
REMARK    5  A    between atoms: C_5  and  C_6
REMARK    6  A    between atoms: C_6  and  C_7
REMARK    7  A    between atoms: C_7  and  C_8
REMARK    8  A    between atoms: C_8  and  C_9
REMARK    9  A    between atoms: C_9  and  C_10
REMARK   10  A    between atoms: C_10  and  C_11
REMARK   11  A    between atoms: C_11  and  C_12
REMARK   12  A    between atoms: C_12  and  C_13
REMARK   13  A    between atoms: C_14  and  C_15
REMARK                            x       y       z     vdW  Elec       q    Type
REMARK                         _______ _______ _______ _____ _____    ______ ____
ROOT
ATOM      1  C   UNL     1       3.612   2.599  18.146  0.00  0.00    +0.000 C 
ATOM      2  C   UNL     1       4.438   3.151  17.476  0.00  0.00    +0.000 C 
ENDROOT
BRANCH   2   3
ATOM      3  C   UNL     1       5.289   3.863  16.588  0.00  0.00    +0.000 A 
ATOM      4  C   UNL     1       4.967   4.131  15.322  0.00  0.00    +0.000 A 
ATOM      5  N   UNL     1       5.860   4.755  14.498  0.00  0.00    +0.000 N 
ATOM      6  C   UNL     1       7.129   5.122  14.890  0.00  0.00    +0.000 A 
ATOM      7  O   UNL     1       7.882   5.614  14.055  0.00  0.00    +0.000 OA
ATOM      8  N   UNL     1       7.492   4.922  16.203  0.00  0.00    +0.000 NA
ATOM      9  C   UNL     1       6.649   4.345  17.011  0.00  0.00    +0.000 A 
ATOM     10  N   UNL     1       7.064   4.193  18.306  0.00  0.00    +0.000 N 
ATOM     11  H   UNL     1       5.639   4.934  13.523  0.00  0.00    +0.000 HD
ATOM     12  H   UNL     1       7.992   4.509  18.552  0.00  0.00    +0.000 HD
ATOM     13  H   UNL     1       6.492   3.750  19.009  0.00  0.00    +0.000 HD
ENDBRANCH   2   3
BRANCH   1  14
ATOM     14  C   UNL     1       2.472   1.954  18.814  0.00  0.00    +0.000 C 
BRANCH  14  15
ATOM     15  C   UNL     1       1.312   2.903  19.094  0.00  0.00    +0.000 C 
BRANCH  15  16
ATOM     16  C   UNL     1       1.219   3.213  20.587  0.00  0.00    +0.000 C 
BRANCH  16  17
ATOM     17  C   UNL     1       1.990   4.481  20.924  0.00  0.00    +0.000 C 
BRANCH  17  18
ATOM     18  C   UNL     1       1.610   5.600  19.966  0.00  0.00    +0.000 C 
BRANCH  18  19
ATOM     19  C   UNL     1       2.807   6.502  19.713  0.00  0.00    +0.000 C 
BRANCH  19  20
ATOM     20  C   UNL     1       2.859   6.904  18.249  0.00  0.00    +0.000 C 
BRANCH  20  21
ATOM     21  C   UNL     1       1.733   7.874  17.933  0.00  0.00    +0.000 C 
BRANCH  21  22
ATOM     22  C   UNL     1       2.274   9.290  17.824  0.00  0.00    +0.000 C 
BRANCH  22  23
ATOM     23  C   UNL     1       1.359  10.259  18.555  0.00  0.00    +0.000 C 
BRANCH  23  25
ATOM     24  C   UNL     1       0.815   9.793  20.946  0.00  0.00    +0.000 C 
ATOM     25  C   UNL     1       0.436   9.509  19.506  0.00  0.00    +0.000 C 
ENDBRANCH  23  25
ENDBRANCH  22  23
ENDBRANCH  21  22
ENDBRANCH  20  21
ENDBRANCH  19  20
ENDBRANCH  18  19
ENDBRANCH  17  18
ENDBRANCH  16  17
ENDBRANCH  15  16
ENDBRANCH  14  15
ENDBRANCH   1  14
TORSDOF 12
ENDMDL
MODEL 4
REMARK VINA RESULT:      -6.8      1.253      1.651
REMARK  Name = 
REMARK  13 active torsions:
REMARK  status: ('A' for Active; 'I' for Inactive)
REMARK    1  A    between atoms: C_1  and  C_2
REMARK    2  A    between atoms: C_2  and  C_3
REMARK    3  A    between atoms: C_3  and  C_4
REMARK    4  A    between atoms: C_4  and  C_5
REMARK    5  A    between atoms: C_5  and  C_6
REMARK    6  A    between atoms: C_6  and  C_7
REMARK    7  A    between atoms: C_7  and  C_8
REMARK    8  A    between atoms: C_8  and  C_9
REMARK    9  A    between atoms: C_9  and  C_10
REMARK   10  A    between atoms: C_10  and  C_11
REMARK   11  A    between atoms: C_11  and  C_12
REMARK   12  A    between atoms: C_12  and  C_13
REMARK   13  A    between atoms: C_14  and  C_15
REMARK                            x       y       z     vdW  Elec       q    Type
REMARK                         _______ _______ _______ _____ _____    ______ ____
ROOT
ATOM      1  C   UNL     1       8.350   9.303  17.986  0.00  0.00    +0.000 C 
ATOM      2  C   UNL     1       8.963  10.289  18.282  0.00  0.00    +0.000 C 
ENDROOT
BRANCH   2   3
ATOM      3  C   UNL     1       9.556  11.546  18.582  0.00  0.00    +0.000 A 
ATOM      4  C   UNL     1      10.606  11.686  19.391  0.00  0.00    +0.000 A 
ATOM      5  N   UNL     1      11.083  12.929  19.697  0.00  0.00    +0.000 N 
ATOM      6  C   UNL     1      10.521  14.097  19.227  0.00  0.00    +0.000 A 
ATOM      7  O   UNL     1      10.979  15.167  19.615  0.00  0.00    +0.000 OA
ATOM      8  N   UNL     1       9.471  14.007  18.340  0.00  0.00    +0.000 NA
ATOM      9  C   UNL     1       9.012  12.831  18.021  0.00  0.00    +0.000 A 
ATOM     10  N   UNL     1       7.982  12.812  17.121  0.00  0.00    +0.000 N 
ATOM     11  H   UNL     1      11.861  13.051  20.339  0.00  0.00    +0.000 HD
ATOM     12  H   UNL     1       7.626  13.694  16.780  0.00  0.00    +0.000 HD
ATOM     13  H   UNL     1       7.547  11.954  16.815  0.00  0.00    +0.000 HD
ENDBRANCH   2   3
BRANCH   1  14
ATOM     14  C   UNL     1       7.477   8.217  17.518  0.00  0.00    +0.000 C 
BRANCH  14  15
ATOM     15  C   UNL     1       7.886   6.841  18.031  0.00  0.00    +0.000 C 
BRANCH  15  16
ATOM     16  C   UNL     1       6.870   5.783  17.602  0.00  0.00    +0.000 C 
BRANCH  16  17
ATOM     17  C   UNL     1       5.668   6.430  16.929  0.00  0.00    +0.000 C 
BRANCH  17  18
ATOM     18  C   UNL     1       4.474   5.488  16.963  0.00  0.00    +0.000 C 
BRANCH  18  19
ATOM     19  C   UNL     1       4.934   4.069  17.246  0.00  0.00    +0.000 C 
BRANCH  19  20
ATOM     20  C   UNL     1       3.854   3.309  17.999  0.00  0.00    +0.000 C 
BRANCH  20  21
ATOM     21  C   UNL     1       2.546   3.358  17.228  0.00  0.00    +0.000 C 
BRANCH  21  22
ATOM     22  C   UNL     1       1.397   3.694  18.165  0.00  0.00    +0.000 C 
BRANCH  22  23
ATOM     23  C   UNL     1       1.201   2.576  19.176  0.00  0.00    +0.000 C 
BRANCH  23  25
ATOM     24  C   UNL     1       1.347   4.624  20.596  0.00  0.00    +0.000 C 
ATOM     25  C   UNL     1       1.002   3.148  20.573  0.00  0.00    +0.000 C 
ENDBRANCH  23  25
ENDBRANCH  22  23
ENDBRANCH  21  22
ENDBRANCH  20  21
ENDBRANCH  19  20
ENDBRANCH  18  19
ENDBRANCH  17  18
ENDBRANCH  16  17
ENDBRANCH  15  16
ENDBRANCH  14  15
ENDBRANCH   1  14
TORSDOF 12
ENDMDL
MODEL 5
REMARK VINA RESULT:      -6.8      5.917      6.613
REMARK  Name = 
REMARK  13 active torsions:
REMARK  status: ('A' for Active; 'I' for Inactive)
REMARK    1  A    between atoms: C_1  and  C_2
REMARK    2  A    between atoms: C_2  and  C_3
REMARK    3  A    between atoms: C_3  and  C_4
REMARK    4  A    between atoms: C_4  and  C_5
REMARK    5  A    between atoms: C_5  and  C_6
REMARK    6  A    between atoms: C_6  and  C_7
REMARK    7  A    between atoms: C_7  and  C_8
REMARK    8  A    between atoms: C_8  and  C_9
REMARK    9  A    between atoms: C_9  and  C_10
REMARK   10  A    between atoms: C_10  and  C_11
REMARK   11  A    between atoms: C_11  and  C_12
REMARK   12  A    between atoms: C_12  and  C_13
REMARK   13  A    between atoms: C_14  and  C_15
REMARK                            x       y       z     vdW  Elec       q    Type
REMARK                         _______ _______ _______ _____ _____    ______ ____
ROOT
ATOM      1  C   UNL     1       3.901   7.257  17.379  0.00  0.00    +0.000 C 
ATOM      2  C   UNL     1       3.002   7.831  17.925  0.00  0.00    +0.000 C 
ENDROOT
BRANCH   2   3
ATOM      3  C   UNL     1       1.958   8.635  18.460  0.00  0.00    +0.000 A 
ATOM      4  C   UNL     1       1.337   9.587  17.763  0.00  0.00    +0.000 A 
ATOM      5  N   UNL     1       0.392  10.375  18.358  0.00  0.00    +0.000 N 
ATOM      6  C   UNL     1       0.036  10.266  19.685  0.00  0.00    +0.000 A 
ATOM      7  O   UNL     1      -0.773  11.067  20.143  0.00  0.00    +0.000 OA
ATOM      8  N   UNL     1       0.604   9.260  20.434  0.00  0.00    +0.000 NA
ATOM      9  C   UNL     1       1.494   8.486  19.882  0.00  0.00    +0.000 A 
ATOM     10  N   UNL     1       2.004   7.495  20.676  0.00  0.00    +0.000 N 
ATOM     11  H   UNL     1      -0.064  11.125  17.846  0.00  0.00    +0.000 HD
ATOM     12  H   UNL     1       1.686   7.435  21.633  0.00  0.00    +0.000 HD
ATOM     13  H   UNL     1       2.706   6.848  20.348  0.00  0.00    +0.000 HD
ENDBRANCH   2   3
BRANCH   1  14
ATOM     14  C   UNL     1       5.048   6.732  16.625  0.00  0.00    +0.000 C 
BRANCH  14  15
ATOM     15  C   UNL     1       5.942   5.805  17.441  0.00  0.00    +0.000 C 
BRANCH  15  16
ATOM     16  C   UNL     1       5.235   5.364  18.721  0.00  0.00    +0.000 C 
BRANCH  16  17
ATOM     17  C   UNL     1       5.045   3.854  18.741  0.00  0.00    +0.000 C 
BRANCH  17  18
ATOM     18  C   UNL     1       4.612   3.358  17.370  0.00  0.00    +0.000 C 
BRANCH  18  19
ATOM     19  C   UNL     1       3.104   3.472  17.224  0.00  0.00    +0.000 C 
BRANCH  19  20
ATOM     20  C   UNL     1       2.439   2.166  17.624  0.00  0.00    +0.000 C 
BRANCH  20  21
ATOM     21  C   UNL     1       1.255   2.440  18.535  0.00  0.00    +0.000 C 
BRANCH  21  22
ATOM     22  C   UNL     1       1.168   3.924  18.850  0.00  0.00    +0.000 C 
BRANCH  22  23
ATOM     23  C   UNL     1       0.952   4.133  20.340  0.00  0.00    +0.000 C 
BRANCH  23  25
ATOM     24  C   UNL     1       2.241   2.707  21.933  0.00  0.00    +0.000 C 
ATOM     25  C   UNL     1       2.263   3.972  21.098  0.00  0.00    +0.000 C 
ENDBRANCH  23  25
ENDBRANCH  22  23
ENDBRANCH  21  22
ENDBRANCH  20  21
ENDBRANCH  19  20
ENDBRANCH  18  19
ENDBRANCH  17  18
ENDBRANCH  16  17
ENDBRANCH  15  16
ENDBRANCH  14  15
ENDBRANCH   1  14
TORSDOF 12
ENDMDL
MODEL 6
REMARK VINA RESULT:      -6.7      5.440      9.220
REMARK  Name = 
REMARK  13 active torsions:
REMARK  status: ('A' for Active; 'I' for Inactive)
REMARK    1  A    between atoms: C_1  and  C_2
REMARK    2  A    between atoms: C_2  and  C_3
REMARK    3  A    between atoms: C_3  and  C_4
REMARK    4  A    between atoms: C_4  and  C_5
REMARK    5  A    between atoms: C_5  and  C_6
REMARK    6  A    between atoms: C_6  and  C_7
REMARK    7  A    between atoms: C_7  and  C_8
REMARK    8  A    between atoms: C_8  and  C_9
REMARK    9  A    between atoms: C_9  and  C_10
REMARK   10  A    between atoms: C_10  and  C_11
REMARK   11  A    between atoms: C_11  and  C_12
REMARK   12  A    between atoms: C_12  and  C_13
REMARK   13  A    between atoms: C_14  and  C_15
REMARK                            x       y       z     vdW  Elec       q    Type
REMARK                         _______ _______ _______ _____ _____    ______ ____
ROOT
ATOM      1  C   UNL     1       4.164   6.011  17.412  0.00  0.00    +0.000 C 
ATOM      2  C   UNL     1       3.580   5.421  18.275  0.00  0.00    +0.000 C 
ENDROOT
BRANCH   2   3
ATOM      3  C   UNL     1       2.986   4.590  19.265  0.00  0.00    +0.000 A 
ATOM      4  C   UNL     1       1.792   4.833  19.805  0.00  0.00    +0.000 A 
ATOM      5  N   UNL     1       1.310   4.037  20.805  0.00  0.00    +0.000 N 
ATOM      6  C   UNL     1       2.007   2.971  21.332  0.00  0.00    +0.000 A 
ATOM      7  O   UNL     1       1.517   2.360  22.277  0.00  0.00    +0.000 OA
ATOM      8  N   UNL     1       3.219   2.640  20.770  0.00  0.00    +0.000 NA
ATOM      9  C   UNL     1       3.690   3.375  19.803  0.00  0.00    +0.000 A 
ATOM     10  N   UNL     1       4.889   2.981  19.277  0.00  0.00    +0.000 N 
ATOM     11  H   UNL     1       0.416   4.232  21.247  0.00  0.00    +0.000 HD
ATOM     12  H   UNL     1       5.346   2.172  19.676  0.00  0.00    +0.000 HD
ATOM     13  H   UNL     1       5.346   3.487  18.532  0.00  0.00    +0.000 HD
ENDBRANCH   2   3
BRANCH   1  14
ATOM     14  C   UNL     1       4.949   6.554  16.293  0.00  0.00    +0.000 C 
BRANCH  14  15
ATOM     15  C   UNL     1       5.354   5.504  15.265  0.00  0.00    +0.000 C 
BRANCH  15  16
ATOM     16  C   UNL     1       6.203   4.413  15.915  0.00  0.00    +0.000 C 
BRANCH  16  17
ATOM     17  C   UNL     1       7.495   4.994  16.471  0.00  0.00    +0.000 C 
BRANCH  17  18
ATOM     18  C   UNL     1       7.684   4.569  17.920  0.00  0.00    +0.000 C 
BRANCH  18  19
ATOM     19  C   UNL     1       7.331   5.715  18.852  0.00  0.00    +0.000 C 
BRANCH  19  20
ATOM     20  C   UNL     1       8.228   6.910  18.575  0.00  0.00    +0.000 C 
BRANCH  20  21
ATOM     21  C   UNL     1       7.427   8.023  17.920  0.00  0.00    +0.000 C 
BRANCH  21  22
ATOM     22  C   UNL     1       8.357   9.124  17.436  0.00  0.00    +0.000 C 
BRANCH  22  23
ATOM     23  C   UNL     1       8.327  10.298  18.400  0.00  0.00    +0.000 C 
BRANCH  23  25
ATOM     24  C   UNL     1       9.600  11.493  20.184  0.00  0.00    +0.000 C 
ATOM     25  C   UNL     1       9.480  10.207  19.390  0.00  0.00    +0.000 C 
ENDBRANCH  23  25
ENDBRANCH  22  23
ENDBRANCH  21  22
ENDBRANCH  20  21
ENDBRANCH  19  20
ENDBRANCH  18  19
ENDBRANCH  17  18
ENDBRANCH  16  17
ENDBRANCH  15  16
ENDBRANCH  14  15
ENDBRANCH   1  14
TORSDOF 12
ENDMDL
MODEL 7
REMARK VINA RESULT:      -6.7      6.420      9.253
REMARK  Name = 
REMARK  13 active torsions:
REMARK  status: ('A' for Active; 'I' for Inactive)
REMARK    1  A    between atoms: C_1  and  C_2
REMARK    2  A    between atoms: C_2  and  C_3
REMARK    3  A    between atoms: C_3  and  C_4
REMARK    4  A    between atoms: C_4  and  C_5
REMARK    5  A    between atoms: C_5  and  C_6
REMARK    6  A    between atoms: C_6  and  C_7
REMARK    7  A    between atoms: C_7  and  C_8
REMARK    8  A    between atoms: C_8  and  C_9
REMARK    9  A    between atoms: C_9  and  C_10
REMARK   10  A    between atoms: C_10  and  C_11
REMARK   11  A    between atoms: C_11  and  C_12
REMARK   12  A    between atoms: C_12  and  C_13
REMARK   13  A    between atoms: C_14  and  C_15
REMARK                            x       y       z     vdW  Elec       q    Type
REMARK                         _______ _______ _______ _____ _____    ______ ____
ROOT
ATOM      1  C   UNL     1       5.947   5.259  19.023  0.00  0.00    +0.000 C 
ATOM      2  C   UNL     1       4.844   4.793  19.044  0.00  0.00    +0.000 C 
ENDROOT
BRANCH   2   3
ATOM      3  C   UNL     1       3.567   4.181  18.915  0.00  0.00    +0.000 A 
ATOM      4  C   UNL     1       2.458   4.676  19.467  0.00  0.00    +0.000 A 
ATOM      5  N   UNL     1       1.275   4.000  19.367  0.00  0.00    +0.000 N 
ATOM      6  C   UNL     1       1.144   2.785  18.730  0.00  0.00    +0.000 A 
ATOM      7  O   UNL     1       0.053   2.225  18.755  0.00  0.00    +0.000 OA
ATOM      8  N   UNL     1       2.244   2.259  18.091  0.00  0.00    +0.000 NA
ATOM      9  C   UNL     1       3.379   2.895  18.158  0.00  0.00    +0.000 A 
ATOM     10  N   UNL     1       4.427   2.328  17.487  0.00  0.00    +0.000 N 
ATOM     11  H   UNL     1       0.431   4.350  19.812  0.00  0.00    +0.000 HD
ATOM     12  H   UNL     1       4.272   1.453  17.006  0.00  0.00    +0.000 HD
ATOM     13  H   UNL     1       5.351   2.735  17.484  0.00  0.00    +0.000 HD
ENDBRANCH   2   3
BRANCH   1  14
ATOM     14  C   UNL     1       7.296   5.798  18.798  0.00  0.00    +0.000 C 
BRANCH  14  15
ATOM     15  C   UNL     1       7.347   6.896  17.741  0.00  0.00    +0.000 C 
BRANCH  15  16
ATOM     16  C   UNL     1       6.706   6.419  16.439  0.00  0.00    +0.000 C 
BRANCH  16  17
ATOM     17  C   UNL     1       7.228   5.043  16.052  0.00  0.00    +0.000 C 
BRANCH  17  18
ATOM     18  C   UNL     1       7.342   4.927  14.539  0.00  0.00    +0.000 C 
BRANCH  18  19
ATOM     19  C   UNL     1       6.246   4.024  13.999  0.00  0.00    +0.000 C 
BRANCH  19  20
ATOM     20  C   UNL     1       6.404   3.849  12.498  0.00  0.00    +0.000 C 
BRANCH  20  21
ATOM     21  C   UNL     1       6.259   2.383  12.125  0.00  0.00    +0.000 C 
BRANCH  21  22
ATOM     22  C   UNL     1       4.987   2.170  11.321  0.00  0.00    +0.000 C 
BRANCH  22  23
ATOM     23  C   UNL     1       4.296   3.500  11.069  0.00  0.00    +0.000 C 
BRANCH  23  25
ATOM     24  C   UNL     1       2.737   4.576   9.444  0.00  0.00    +0.000 C 
ATOM     25  C   UNL     1       3.059   3.305  10.203  0.00  0.00    +0.000 C 
ENDBRANCH  23  25
ENDBRANCH  22  23
ENDBRANCH  21  22
ENDBRANCH  20  21
ENDBRANCH  19  20
ENDBRANCH  18  19
ENDBRANCH  17  18
ENDBRANCH  16  17
ENDBRANCH  15  16
ENDBRANCH  14  15
ENDBRANCH   1  14
TORSDOF 12
ENDMDL
MODEL 8
REMARK VINA RESULT:      -6.7      1.249      1.690
REMARK  Name = 
REMARK  13 active torsions:
REMARK  status: ('A' for Active; 'I' for Inactive)
REMARK    1  A    between atoms: C_1  and  C_2
REMARK    2  A    between atoms: C_2  and  C_3
REMARK    3  A    between atoms: C_3  and  C_4
REMARK    4  A    between atoms: C_4  and  C_5
REMARK    5  A    between atoms: C_5  and  C_6
REMARK    6  A    between atoms: C_6  and  C_7
REMARK    7  A    between atoms: C_7  and  C_8
REMARK    8  A    between atoms: C_8  and  C_9
REMARK    9  A    between atoms: C_9  and  C_10
REMARK   10  A    between atoms: C_10  and  C_11
REMARK   11  A    between atoms: C_11  and  C_12
REMARK   12  A    between atoms: C_12  and  C_13
REMARK   13  A    between atoms: C_14  and  C_15
REMARK                            x       y       z     vdW  Elec       q    Type
REMARK                         _______ _______ _______ _____ _____    ______ ____
ROOT
ATOM      1  C   UNL     1       8.106   8.719  17.791  0.00  0.00    +0.000 C 
ATOM      2  C   UNL     1       8.554   9.774  18.138  0.00  0.00    +0.000 C 
ENDROOT
BRANCH   2   3
ATOM      3  C   UNL     1       9.235  10.950  18.559  0.00  0.00    +0.000 A 
ATOM      4  C   UNL     1      10.226  10.941  19.450  0.00  0.00    +0.000 A 
ATOM      5  N   UNL     1      10.791  12.113  19.868  0.00  0.00    +0.000 N 
ATOM      6  C   UNL     1      10.378  13.354  19.433  0.00  0.00    +0.000 A 
ATOM      7  O   UNL     1      10.901  14.351  19.921  0.00  0.00    +0.000 OA
ATOM      8  N   UNL     1       9.398  13.417  18.468  0.00  0.00    +0.000 NA
ATOM      9  C   UNL     1       8.858  12.311  18.042  0.00  0.00    +0.000 A 
ATOM     10  N   UNL     1       7.904  12.441  17.071  0.00  0.00    +0.000 N 
ATOM     11  H   UNL     1      11.524  12.122  20.571  0.00  0.00    +0.000 HD
ATOM     12  H   UNL     1       7.660  13.372  16.760  0.00  0.00    +0.000 HD
ATOM     13  H   UNL     1       7.418  11.648  16.680  0.00  0.00    +0.000 HD
ENDBRANCH   2   3
BRANCH   1  14
ATOM     14  C   UNL     1       7.728   7.344  17.435  0.00  0.00    +0.000 C 
BRANCH  14  15
ATOM     15  C   UNL     1       6.385   6.911  18.011  0.00  0.00    +0.000 C 
BRANCH  15  16
ATOM     16  C   UNL     1       5.370   6.677  16.893  0.00  0.00    +0.000 C 
BRANCH  16  17
ATOM     17  C   UNL     1       3.976   6.459  17.465  0.00  0.00    +0.000 C 
BRANCH  17  18
ATOM     18  C   UNL     1       3.892   5.101  18.146  0.00  0.00    +0.000 C 
BRANCH  18  19
ATOM     19  C   UNL     1       4.122   3.992  17.134  0.00  0.00    +0.000 C 
BRANCH  19  20
ATOM     20  C   UNL     1       3.810   2.642  17.757  0.00  0.00    +0.000 C 
BRANCH  20  21
ATOM     21  C   UNL     1       2.315   2.377  17.710  0.00  0.00    +0.000 C 
BRANCH  21  22
ATOM     22  C   UNL     1       1.798   2.039  19.099  0.00  0.00    +0.000 C 
BRANCH  22  23
ATOM     23  C   UNL     1       0.819   3.103  19.568  0.00  0.00    +0.000 C 
BRANCH  23  25
ATOM     24  C   UNL     1       2.372   2.854  21.506  0.00  0.00    +0.000 C 
ATOM     25  C   UNL     1       1.270   3.698  20.895  0.00  0.00    +0.000 C 
ENDBRANCH  23  25
ENDBRANCH  22  23
ENDBRANCH  21  22
ENDBRANCH  20  21
ENDBRANCH  19  20
ENDBRANCH  18  19
ENDBRANCH  17  18
ENDBRANCH  16  17
ENDBRANCH  15  16
ENDBRANCH  14  15
ENDBRANCH   1  14
TORSDOF 12
ENDMDL
MODEL 9
REMARK VINA RESULT:      -6.7      1.591      1.955
REMARK  Name = 
REMARK  13 active torsions:
REMARK  status: ('A' for Active; 'I' for Inactive)
REMARK    1  A    between atoms: C_1  and  C_2
REMARK    2  A    between atoms: C_2  and  C_3
REMARK    3  A    between atoms: C_3  and  C_4
REMARK    4  A    between atoms: C_4  and  C_5
REMARK    5  A    between atoms: C_5  and  C_6
REMARK    6  A    between atoms: C_6  and  C_7
REMARK    7  A    between atoms: C_7  and  C_8
REMARK    8  A    between atoms: C_8  and  C_9
REMARK    9  A    between atoms: C_9  and  C_10
REMARK   10  A    between atoms: C_10  and  C_11
REMARK   11  A    between atoms: C_11  and  C_12
REMARK   12  A    between atoms: C_12  and  C_13
REMARK   13  A    between atoms: C_14  and  C_15
REMARK                            x       y       z     vdW  Elec       q    Type
REMARK                         _______ _______ _______ _____ _____    ______ ____
ROOT
ATOM      1  C   UNL     1       8.963   9.587  18.540  0.00  0.00    +0.000 C 
ATOM      2  C   UNL     1       9.409  10.684  18.359  0.00  0.00    +0.000 C 
ENDROOT
BRANCH   2   3
ATOM      3  C   UNL     1       9.842  11.992  18.005  0.00  0.00    +0.000 A 
ATOM      4  C   UNL     1       9.008  12.963  17.631  0.00  0.00    +0.000 A 
ATOM      5  N   UNL     1       9.494  14.176  17.233  0.00  0.00    +0.000 N 
ATOM      6  C   UNL     1      10.838  14.473  17.168  0.00  0.00    +0.000 A 
ATOM      7  O   UNL     1      11.176  15.569  16.730  0.00  0.00    +0.000 OA
ATOM      8  N   UNL     1      11.740  13.526  17.599  0.00  0.00    +0.000 NA
ATOM      9  C   UNL     1      11.298  12.368  17.999  0.00  0.00    +0.000 A 
ATOM     10  N   UNL     1      12.244  11.480  18.433  0.00  0.00    +0.000 N 
ATOM     11  H   UNL     1       8.871  14.912  16.914  0.00  0.00    +0.000 HD
ATOM     12  H   UNL     1      13.215  11.758  18.396  0.00  0.00    +0.000 HD
ATOM     13  H   UNL     1      12.008  10.553  18.754  0.00  0.00    +0.000 HD
ENDBRANCH   2   3
BRANCH   1  14
ATOM     14  C   UNL     1       8.355   8.249  18.570  0.00  0.00    +0.000 C 
BRANCH  14  15
ATOM     15  C   UNL     1       7.551   7.916  17.318  0.00  0.00    +0.000 C 
BRANCH  15  16
ATOM     16  C   UNL     1       7.039   6.477  17.374  0.00  0.00    +0.000 C 
BRANCH  16  17
ATOM     17  C   UNL     1       5.859   6.287  16.432  0.00  0.00    +0.000 C 
BRANCH  17  18
ATOM     18  C   UNL     1       4.645   5.788  17.202  0.00  0.00    +0.000 C 
BRANCH  18  19
ATOM     19  C   UNL     1       4.984   4.505  17.941  0.00  0.00    +0.000 C 
BRANCH  19  20
ATOM     20  C   UNL     1       3.909   3.459  17.696  0.00  0.00    +0.000 C 
BRANCH  20  21
ATOM     21  C   UNL     1       2.617   4.130  17.261  0.00  0.00    +0.000 C 
BRANCH  21  22
ATOM     22  C   UNL     1       1.619   4.139  18.407  0.00  0.00    +0.000 C 
BRANCH  22  23
ATOM     23  C   UNL     1       1.755   2.870  19.231  0.00  0.00    +0.000 C 
BRANCH  23  25
ATOM     24  C   UNL     1       1.941   2.905  21.720  0.00  0.00    +0.000 C 
ATOM     25  C   UNL     1       0.991   2.999  20.542  0.00  0.00    +0.000 C 
ENDBRANCH  23  25
ENDBRANCH  22  23
ENDBRANCH  21  22
ENDBRANCH  20  21
ENDBRANCH  19  20
ENDBRANCH  18  19
ENDBRANCH  17  18
ENDBRANCH  16  17
ENDBRANCH  15  16
ENDBRANCH  14  15
ENDBRANCH   1  14
TORSDOF 12
ENDMDL
