MODEL 1
REMARK VINA RESULT:      -8.0      0.000      0.000
REMARK  Name = 
REMARK  3 active torsions:
REMARK  status: ('A' for Active; 'I' for Inactive)
REMARK    1  A    between atoms: C_1  and  C_2
REMARK    2  A    between atoms: N_4  and  C_5
REMARK    3  A    between atoms: C_14  and  C_15
REMARK                            x       y       z     vdW  Elec       q    Type
REMARK                         _______ _______ _______ _____ _____    ______ ____
ROOT
ATOM      1  C   UNL     1       3.185   5.753  19.250  0.00  0.00    +0.000 A 
ATOM      2  C   UNL     1       3.994   5.381  18.170  0.00  0.00    +0.000 A 
ATOM      3  C   UNL     1       4.219   6.250  17.074  0.00  0.00    +0.000 A 
ATOM      4  C   UNL     1       3.648   7.525  17.020  0.00  0.00    +0.000 A 
ATOM      5  C   UNL     1       2.839   7.882  18.071  0.00  0.00    +0.000 A 
ATOM      6  C   UNL     1       2.596   7.002  19.161  0.00  0.00    +0.000 A 
ATOM      7  C   UNL     1       1.681   7.693  20.132  0.00  0.00    +0.000 C 
ATOM      8  O   UNL     1       1.262   7.219  21.172  0.00  0.00    +0.000 OA
ATOM      9  C   UNL     1       1.443   8.995  19.552  0.00  0.00    +0.000 A 
ATOM     10  C   UNL     1       0.782  10.223  19.706  0.00  0.00    +0.000 A 
ATOM     11  N   UNL     1       1.059  11.024  18.645  0.00  0.00    +0.000 NA
ATOM     12  N   UNL     1       1.891  10.304  17.854  0.00  0.00    +0.000 N 
ATOM     13  C   UNL     1       2.117   9.081  18.363  0.00  0.00    +0.000 A 
ATOM     14  H   UNL     1       2.244  10.730  17.003  0.00  0.00    +0.000 HD
ENDROOT
BRANCH  10  15
ATOM     15  C   UNL     1      -0.110  10.654  20.780  0.00  0.00    +0.000 A 
ATOM     16  C   UNL     1      -1.040  11.682  20.578  0.00  0.00    +0.000 A 
ATOM     17  C   UNL     1      -1.847  12.130  21.628  0.00  0.00    +0.000 A 
ATOM     18  C   UNL     1      -1.737  11.548  22.889  0.00  0.00    +0.000 A 
ATOM     19  C   UNL     1      -0.835  10.507  23.098  0.00  0.00    +0.000 A 
ATOM     20  C   UNL     1      -0.029  10.059  22.048  0.00  0.00    +0.000 A 
ENDBRANCH  10  15
BRANCH   1  24
ATOM     21  C   UNL     1       2.047   3.262  21.848  0.00  0.00    +0.000 C 
ATOM     22  C   UNL     1       2.058   3.907  20.487  0.00  0.00    +0.000 C 
ATOM     23  O   UNL     1       1.317   3.503  19.597  0.00  0.00    +0.000 OA
ATOM     24  N   UNL     1       2.963   4.947  20.389  0.00  0.00    +0.000 N 
ATOM     25  H   UNL     1       3.626   5.067  21.156  0.00  0.00    +0.000 HD
ENDBRANCH   1  24
TORSDOF 2
ENDMDL
MODEL 2
REMARK VINA RESULT:      -8.0      6.305      9.069
REMARK  Name = 
REMARK  3 active torsions:
REMARK  status: ('A' for Active; 'I' for Inactive)
REMARK    1  A    between atoms: C_1  and  C_2
REMARK    2  A    between atoms: N_4  and  C_5
REMARK    3  A    between atoms: C_14  and  C_15
REMARK                            x       y       z     vdW  Elec       q    Type
REMARK                         _______ _______ _______ _____ _____    ______ ____
ROOT
ATOM      1  C   UNL     1       5.284   4.556  18.605  0.00  0.00    +0.000 A 
ATOM      2  C   UNL     1       6.008   5.260  19.574  0.00  0.00    +0.000 A 
ATOM      3  C   UNL     1       7.182   5.982  19.248  0.00  0.00    +0.000 A 
ATOM      4  C   UNL     1       7.673   6.031  17.940  0.00  0.00    +0.000 A 
ATOM      5  C   UNL     1       6.973   5.326  16.993  0.00  0.00    +0.000 A 
ATOM      6  C   UNL     1       5.806   4.584  17.323  0.00  0.00    +0.000 A 
ATOM      7  C   UNL     1       5.285   3.937  16.070  0.00  0.00    +0.000 C 
ATOM      8  O   UNL     1       4.303   3.221  15.997  0.00  0.00    +0.000 OA
ATOM      9  C   UNL     1       6.192   4.366  15.030  0.00  0.00    +0.000 A 
ATOM     10  C   UNL     1       6.499   4.288  13.664  0.00  0.00    +0.000 A 
ATOM     11  N   UNL     1       7.612   5.022  13.405  0.00  0.00    +0.000 NA
ATOM     12  N   UNL     1       7.978   5.557  14.596  0.00  0.00    +0.000 N 
ATOM     13  C   UNL     1       7.159   5.162  15.585  0.00  0.00    +0.000 A 
ATOM     14  H   UNL     1       8.787   6.169  14.626  0.00  0.00    +0.000 HD
ENDROOT
BRANCH  10  15
ATOM     15  C   UNL     1       5.815   3.536  12.614  0.00  0.00    +0.000 A 
ATOM     16  C   UNL     1       4.560   3.938  12.138  0.00  0.00    +0.000 A 
ATOM     17  C   UNL     1       3.885   3.180  11.177  0.00  0.00    +0.000 A 
ATOM     18  C   UNL     1       4.463   2.016  10.675  0.00  0.00    +0.000 A 
ATOM     19  C   UNL     1       5.723   1.619  11.119  0.00  0.00    +0.000 A 
ATOM     20  C   UNL     1       6.397   2.377  12.080  0.00  0.00    +0.000 A 
ENDBRANCH  10  15
BRANCH   1  24
ATOM     21  C   UNL     1       2.542   2.190  19.669  0.00  0.00    +0.000 C 
ATOM     22  C   UNL     1       3.959   2.697  19.601  0.00  0.00    +0.000 C 
ATOM     23  O   UNL     1       4.866   2.094  20.165  0.00  0.00    +0.000 OA
ATOM     24  N   UNL     1       4.083   3.859  18.864  0.00  0.00    +0.000 N 
ATOM     25  H   UNL     1       3.223   4.334  18.588  0.00  0.00    +0.000 HD
ENDBRANCH   1  24
TORSDOF 2
ENDMDL
MODEL 3
REMARK VINA RESULT:      -8.0      0.066      1.008
REMARK  Name = 
REMARK  3 active torsions:
REMARK  status: ('A' for Active; 'I' for Inactive)
REMARK    1  A    between atoms: C_1  and  C_2
REMARK    2  A    between atoms: N_4  and  C_5
REMARK    3  A    between atoms: C_14  and  C_15
REMARK                            x       y       z     vdW  Elec       q    Type
REMARK                         _______ _______ _______ _____ _____    ______ ____
ROOT
ATOM      1  C   UNL     1       3.140   5.787  19.241  0.00  0.00    +0.000 A 
ATOM      2  C   UNL     1       3.926   5.404  18.149  0.00  0.00    +0.000 A 
ATOM      3  C   UNL     1       4.148   6.271  17.050  0.00  0.00    +0.000 A 
ATOM      4  C   UNL     1       3.596   7.554  17.006  0.00  0.00    +0.000 A 
ATOM      5  C   UNL     1       2.810   7.923  18.070  0.00  0.00    +0.000 A 
ATOM      6  C   UNL     1       2.569   7.046  19.162  0.00  0.00    +0.000 A 
ATOM      7  C   UNL     1       1.680   7.750  20.148  0.00  0.00    +0.000 C 
ATOM      8  O   UNL     1       1.270   7.281  21.194  0.00  0.00    +0.000 OA
ATOM      9  C   UNL     1       1.454   9.056  19.573  0.00  0.00    +0.000 A 
ATOM     10  C   UNL     1       0.815  10.293  19.738  0.00  0.00    +0.000 A 
ATOM     11  N   UNL     1       1.087  11.092  18.674  0.00  0.00    +0.000 NA
ATOM     12  N   UNL     1       1.896  10.359  17.869  0.00  0.00    +0.000 N 
ATOM     13  C   UNL     1       2.111   9.132  18.374  0.00  0.00    +0.000 A 
ATOM     14  H   UNL     1       2.242  10.781  17.014  0.00  0.00    +0.000 HD
ENDROOT
BRANCH  10  15
ATOM     15  C   UNL     1      -0.054  10.737  20.827  0.00  0.00    +0.000 A 
ATOM     16  C   UNL     1       0.008  10.137  22.091  0.00  0.00    +0.000 A 
ATOM     17  C   UNL     1      -0.868  10.526  23.109  0.00  0.00    +0.000 A 
ATOM     18  C   UNL     1      -1.809  11.526  22.874  0.00  0.00    +0.000 A 
ATOM     19  C   UNL     1      -1.864  12.151  21.630  0.00  0.00    +0.000 A 
ATOM     20  C   UNL     1      -0.987  11.762  20.613  0.00  0.00    +0.000 A 
ENDBRANCH  10  15
BRANCH   1  24
ATOM     21  C   UNL     1       2.025   3.291  21.843  0.00  0.00    +0.000 C 
ATOM     22  C   UNL     1       2.036   3.929  20.479  0.00  0.00    +0.000 C 
ATOM     23  O   UNL     1       1.308   3.508  19.586  0.00  0.00    +0.000 OA
ATOM     24  N   UNL     1       2.924   4.983  20.383  0.00  0.00    +0.000 N 
ATOM     25  H   UNL     1       3.578   5.119  21.154  0.00  0.00    +0.000 HD
ENDBRANCH   1  24
TORSDOF 2
ENDMDL
MODEL 4
REMARK VINA RESULT:      -8.0      2.117      7.297
REMARK  Name = 
REMARK  3 active torsions:
REMARK  status: ('A' for Active; 'I' for Inactive)
REMARK    1  A    between atoms: C_1  and  C_2
REMARK    2  A    between atoms: N_4  and  C_5
REMARK    3  A    between atoms: C_14  and  C_15
REMARK                            x       y       z     vdW  Elec       q    Type
REMARK                         _______ _______ _______ _____ _____    ______ ____
ROOT
ATOM      1  C   UNL     1       0.584  10.558  20.162  0.00  0.00    +0.000 A 
ATOM      2  C   UNL     1      -0.195  10.793  21.300  0.00  0.00    +0.000 A 
ATOM      3  C   UNL     1      -0.404   9.792  22.280  0.00  0.00    +0.000 A 
ATOM      4  C   UNL     1       0.163   8.520  22.161  0.00  0.00    +0.000 A 
ATOM      5  C   UNL     1       0.912   8.284  21.035  0.00  0.00    +0.000 A 
ATOM      6  C   UNL     1       1.105   9.281  20.041  0.00  0.00    +0.000 A 
ATOM      7  C   UNL     1       1.967   8.706  18.953  0.00  0.00    +0.000 C 
ATOM      8  O   UNL     1       2.318   9.288  17.943  0.00  0.00    +0.000 OA
ATOM      9  C   UNL     1       2.263   7.361  19.391  0.00  0.00    +0.000 A 
ATOM     10  C   UNL     1       2.927   6.166  19.076  0.00  0.00    +0.000 A 
ATOM     11  N   UNL     1       2.719   5.256  20.063  0.00  0.00    +0.000 NA
ATOM     12  N   UNL     1       1.946   5.888  20.980  0.00  0.00    +0.000 N 
ATOM     13  C   UNL     1       1.642   7.138  20.591  0.00  0.00    +0.000 A 
ATOM     14  H   UNL     1       1.686   5.388  21.823  0.00  0.00    +0.000 HD
ENDROOT
BRANCH  10  15
ATOM     15  C   UNL     1       3.715   5.841  17.888  0.00  0.00    +0.000 A 
ATOM     16  C   UNL     1       3.809   4.524  17.422  0.00  0.00    +0.000 A 
ATOM     17  C   UNL     1       4.613   4.213  16.321  0.00  0.00    +0.000 A 
ATOM     18  C   UNL     1       5.325   5.218  15.671  0.00  0.00    +0.000 A 
ATOM     19  C   UNL     1       5.220   6.537  16.108  0.00  0.00    +0.000 A 
ATOM     20  C   UNL     1       4.415   6.848  17.208  0.00  0.00    +0.000 A 
ENDBRANCH  10  15
BRANCH   1  24
ATOM     21  C   UNL     1       1.756  13.494  18.099  0.00  0.00    +0.000 C 
ATOM     22  C   UNL     1       1.685  12.633  19.333  0.00  0.00    +0.000 C 
ATOM     23  O   UNL     1       2.316  12.932  20.342  0.00  0.00    +0.000 OA
ATOM     24  N   UNL     1       0.864  11.532  19.178  0.00  0.00    +0.000 N 
ATOM     25  H   UNL     1       0.532  11.323  18.236  0.00  0.00    +0.000 HD
ENDBRANCH   1  24
TORSDOF 2
ENDMDL
MODEL 5
REMARK VINA RESULT:      -7.9      6.301      9.100
REMARK  Name = 
REMARK  3 active torsions:
REMARK  status: ('A' for Active; 'I' for Inactive)
REMARK    1  A    between atoms: C_1  and  C_2
REMARK    2  A    between atoms: N_4  and  C_5
REMARK    3  A    between atoms: C_14  and  C_15
REMARK                            x       y       z     vdW  Elec       q    Type
REMARK                         _______ _______ _______ _____ _____    ______ ____
ROOT
ATOM      1  C   UNL     1       5.319   4.594  18.639  0.00  0.00    +0.000 A 
ATOM      2  C   UNL     1       6.050   5.316  19.589  0.00  0.00    +0.000 A 
ATOM      3  C   UNL     1       7.214   6.042  19.238  0.00  0.00    +0.000 A 
ATOM      4  C   UNL     1       7.686   6.079  17.922  0.00  0.00    +0.000 A 
ATOM      5  C   UNL     1       6.978   5.355  16.994  0.00  0.00    +0.000 A 
ATOM      6  C   UNL     1       5.823   4.609  17.351  0.00  0.00    +0.000 A 
ATOM      7  C   UNL     1       5.289   3.942  16.113  0.00  0.00    +0.000 C 
ATOM      8  O   UNL     1       4.313   3.217  16.063  0.00  0.00    +0.000 OA
ATOM      9  C   UNL     1       6.179   4.364  15.055  0.00  0.00    +0.000 A 
ATOM     10  C   UNL     1       6.468   4.270  13.686  0.00  0.00    +0.000 A 
ATOM     11  N   UNL     1       7.571   5.010  13.402  0.00  0.00    +0.000 NA
ATOM     12  N   UNL     1       7.949   5.563  14.581  0.00  0.00    +0.000 N 
ATOM     13  C   UNL     1       7.147   5.175  15.586  0.00  0.00    +0.000 A 
ATOM     14  H   UNL     1       8.753   6.182  14.591  0.00  0.00    +0.000 HD
ENDROOT
BRANCH  10  15
ATOM     15  C   UNL     1       5.775   3.500  12.655  0.00  0.00    +0.000 A 
ATOM     16  C   UNL     1       6.364   2.365  12.083  0.00  0.00    +0.000 A 
ATOM     17  C   UNL     1       5.721   1.670  11.054  0.00  0.00    +0.000 A 
ATOM     18  C   UNL     1       4.478   2.099  10.593  0.00  0.00    +0.000 A 
ATOM     19  C   UNL     1       3.868   3.210  11.171  0.00  0.00    +0.000 A 
ATOM     20  C   UNL     1       4.511   3.905  12.200  0.00  0.00    +0.000 A 
ENDBRANCH  10  15
BRANCH   1  24
ATOM     21  C   UNL     1       2.612   2.213  19.760  0.00  0.00    +0.000 C 
ATOM     22  C   UNL     1       4.025   2.726  19.662  0.00  0.00    +0.000 C 
ATOM     23  O   UNL     1       4.947   2.127  20.204  0.00  0.00    +0.000 OA
ATOM     24  N   UNL     1       4.126   3.891  18.924  0.00  0.00    +0.000 N 
ATOM     25  H   UNL     1       3.259   4.363  18.669  0.00  0.00    +0.000 HD
ENDBRANCH   1  24
TORSDOF 2
ENDMDL
MODEL 6
REMARK VINA RESULT:      -7.9      2.126      7.290
REMARK  Name = 
REMARK  3 active torsions:
REMARK  status: ('A' for Active; 'I' for Inactive)
REMARK    1  A    between atoms: C_1  and  C_2
REMARK    2  A    between atoms: N_4  and  C_5
REMARK    3  A    between atoms: C_14  and  C_15
REMARK                            x       y       z     vdW  Elec       q    Type
REMARK                         _______ _______ _______ _____ _____    ______ ____
ROOT
ATOM      1  C   UNL     1       0.705  10.560  19.938  0.00  0.00    +0.000 A 
ATOM      2  C   UNL     1      -0.102  10.817  21.051  0.00  0.00    +0.000 A 
ATOM      3  C   UNL     1      -0.346   9.831  22.039  0.00  0.00    +0.000 A 
ATOM      4  C   UNL     1       0.214   8.553  21.952  0.00  0.00    +0.000 A 
ATOM      5  C   UNL     1       0.991   8.295  20.850  0.00  0.00    +0.000 A 
ATOM      6  C   UNL     1       1.219   9.278  19.848  0.00  0.00    +0.000 A 
ATOM      7  C   UNL     1       2.105   8.680  18.791  0.00  0.00    +0.000 C 
ATOM      8  O   UNL     1       2.488   9.246  17.784  0.00  0.00    +0.000 OA
ATOM      9  C   UNL     1       2.378   7.339  19.255  0.00  0.00    +0.000 A 
ATOM     10  C   UNL     1       3.041   6.135  18.975  0.00  0.00    +0.000 A 
ATOM     11  N   UNL     1       2.798   5.241  19.967  0.00  0.00    +0.000 NA
ATOM     12  N   UNL     1       2.006   5.891  20.855  0.00  0.00    +0.000 N 
ATOM     13  C   UNL     1       1.723   7.137  20.441  0.00  0.00    +0.000 A 
ATOM     14  H   UNL     1       1.719   5.404  21.698  0.00  0.00    +0.000 HD
ENDROOT
BRANCH  10  15
ATOM     15  C   UNL     1       3.857   5.788  17.813  0.00  0.00    +0.000 A 
ATOM     16  C   UNL     1       4.522   6.776  17.075  0.00  0.00    +0.000 A 
ATOM     17  C   UNL     1       5.250   6.442  15.930  0.00  0.00    +0.000 A 
ATOM     18  C   UNL     1       5.328   5.115  15.516  0.00  0.00    +0.000 A 
ATOM     19  C   UNL     1       4.695   4.118  16.254  0.00  0.00    +0.000 A 
ATOM     20  C   UNL     1       3.967   4.452  17.400  0.00  0.00    +0.000 A 
ENDBRANCH  10  15
BRANCH   1  24
ATOM     21  C   UNL     1       1.917  13.483  17.880  0.00  0.00    +0.000 C 
ATOM     22  C   UNL     1       1.791  12.651  19.130  0.00  0.00    +0.000 C 
ATOM     23  O   UNL     1       2.339  12.998  20.170  0.00  0.00    +0.000 OA
ATOM     24  N   UNL     1       1.021  11.518  18.948  0.00  0.00    +0.000 N 
ATOM     25  H   UNL     1       0.761  11.273  17.992  0.00  0.00    +0.000 HD
ENDBRANCH   1  24
TORSDOF 2
ENDMDL
MODEL 7
REMARK VINA RESULT:      -7.8      1.118      1.570
REMARK  Name = 
REMARK  3 active torsions:
REMARK  status: ('A' for Active; 'I' for Inactive)
REMARK    1  A    between atoms: C_1  and  C_2
REMARK    2  A    between atoms: N_4  and  C_5
REMARK    3  A    between atoms: C_14  and  C_15
REMARK                            x       y       z     vdW  Elec       q    Type
REMARK                         _______ _______ _______ _____ _____    ______ ____
ROOT
ATOM      1  C   UNL     1       3.378   4.129  19.259  0.00  0.00    +0.000 A 
ATOM      2  C   UNL     1       4.182   3.564  18.263  0.00  0.00    +0.000 A 
ATOM      3  C   UNL     1       4.599   4.308  17.132  0.00  0.00    +0.000 A 
ATOM      4  C   UNL     1       4.233   5.645  16.959  0.00  0.00    +0.000 A 
ATOM      5  C   UNL     1       3.429   6.194  17.928  0.00  0.00    +0.000 A 
ATOM      6  C   UNL     1       2.992   5.441  19.052  0.00  0.00    +0.000 A 
ATOM      7  C   UNL     1       2.138   6.329  19.913  0.00  0.00    +0.000 C 
ATOM      8  O   UNL     1       1.593   5.999  20.950  0.00  0.00    +0.000 OA
ATOM      9  C   UNL     1       2.135   7.606  19.237  0.00  0.00    +0.000 A 
ATOM     10  C   UNL     1       1.661   8.925  19.267  0.00  0.00    +0.000 A 
ATOM     11  N   UNL     1       2.117   9.598  18.179  0.00  0.00    +0.000 NA
ATOM     12  N   UNL     1       2.874   8.706  17.493  0.00  0.00    +0.000 N 
ATOM     13  C   UNL     1       2.882   7.504  18.093  0.00  0.00    +0.000 A 
ATOM     14  H   UNL     1       3.336   9.013  16.643  0.00  0.00    +0.000 HD
ENDROOT
BRANCH  10  15
ATOM     15  C   UNL     1       0.785   9.561  20.249  0.00  0.00    +0.000 A 
ATOM     16  C   UNL     1      -0.136  10.544  19.866  0.00  0.00    +0.000 A 
ATOM     17  C   UNL     1      -0.928  11.191  20.821  0.00  0.00    +0.000 A 
ATOM     18  C   UNL     1      -0.811  10.853  22.167  0.00  0.00    +0.000 A 
ATOM     19  C   UNL     1       0.081   9.858  22.559  0.00  0.00    +0.000 A 
ATOM     20  C   UNL     1       0.872   9.212  21.605  0.00  0.00    +0.000 A 
ENDBRANCH  10  15
BRANCH   1  24
ATOM     21  C   UNL     1       1.614   2.232  22.005  0.00  0.00    +0.000 C 
ATOM     22  C   UNL     1       1.743   2.852  20.639  0.00  0.00    +0.000 C 
ATOM     23  O   UNL     1       0.816   2.798  19.838  0.00  0.00    +0.000 OA
ATOM     24  N   UNL     1       2.972   3.449  20.430  0.00  0.00    +0.000 N 
ATOM     25  H   UNL     1       3.701   3.278  21.122  0.00  0.00    +0.000 HD
ENDBRANCH   1  24
TORSDOF 2
ENDMDL
MODEL 8
REMARK VINA RESULT:      -7.7      1.177      1.930
REMARK  Name = 
REMARK  3 active torsions:
REMARK  status: ('A' for Active; 'I' for Inactive)
REMARK    1  A    between atoms: C_1  and  C_2
REMARK    2  A    between atoms: N_4  and  C_5
REMARK    3  A    between atoms: C_14  and  C_15
REMARK                            x       y       z     vdW  Elec       q    Type
REMARK                         _______ _______ _______ _____ _____    ______ ____
ROOT
ATOM      1  C   UNL     1       3.349   4.027  19.214  0.00  0.00    +0.000 A 
ATOM      2  C   UNL     1       4.114   3.457  18.190  0.00  0.00    +0.000 A 
ATOM      3  C   UNL     1       4.512   4.204  17.054  0.00  0.00    +0.000 A 
ATOM      4  C   UNL     1       4.165   5.549  16.902  0.00  0.00    +0.000 A 
ATOM      5  C   UNL     1       3.399   6.103  17.898  0.00  0.00    +0.000 A 
ATOM      6  C   UNL     1       2.981   5.348  19.028  0.00  0.00    +0.000 A 
ATOM      7  C   UNL     1       2.168   6.243  19.922  0.00  0.00    +0.000 C 
ATOM      8  O   UNL     1       1.648   5.914  20.971  0.00  0.00    +0.000 OA
ATOM      9  C   UNL     1       2.168   7.526  19.256  0.00  0.00    +0.000 A 
ATOM     10  C   UNL     1       1.719   8.853  19.311  0.00  0.00    +0.000 A 
ATOM     11  N   UNL     1       2.155   9.527  18.216  0.00  0.00    +0.000 NA
ATOM     12  N   UNL     1       2.877   8.629  17.501  0.00  0.00    +0.000 N 
ATOM     13  C   UNL     1       2.880   7.421  18.090  0.00  0.00    +0.000 A 
ATOM     14  H   UNL     1       3.319   8.934  16.641  0.00  0.00    +0.000 HD
ENDROOT
BRANCH  10  15
ATOM     15  C   UNL     1       0.882   9.495  20.323  0.00  0.00    +0.000 A 
ATOM     16  C   UNL     1       0.943   9.102  21.666  0.00  0.00    +0.000 A 
ATOM     17  C   UNL     1       0.096   9.679  22.617  0.00  0.00    +0.000 A 
ATOM     18  C   UNL     1      -0.814  10.662  22.235  0.00  0.00    +0.000 A 
ATOM     19  C   UNL     1      -0.867  11.083  20.908  0.00  0.00    +0.000 A 
ATOM     20  C   UNL     1      -0.019  10.506  19.958  0.00  0.00    +0.000 A 
ENDBRANCH  10  15
BRANCH   1  24
ATOM     21  C   UNL     1       1.630   2.141  21.996  0.00  0.00    +0.000 C 
ATOM     22  C   UNL     1       1.730   2.772  20.632  0.00  0.00    +0.000 C 
ATOM     23  O   UNL     1       0.778   2.747  19.859  0.00  0.00    +0.000 OA
ATOM     24  N   UNL     1       2.965   3.345  20.390  0.00  0.00    +0.000 N 
ATOM     25  H   UNL     1       3.711   3.151  21.058  0.00  0.00    +0.000 HD
ENDBRANCH   1  24
TORSDOF 2
ENDMDL
MODEL 9
REMARK VINA RESULT:      -7.7      5.570      9.031
REMARK  Name = 
REMARK  3 active torsions:
REMARK  status: ('A' for Active; 'I' for Inactive)
REMARK    1  A    between atoms: C_1  and  C_2
REMARK    2  A    between atoms: N_4  and  C_5
REMARK    3  A    between atoms: C_14  and  C_15
REMARK                            x       y       z     vdW  Elec       q    Type
REMARK                         _______ _______ _______ _____ _____    ______ ____
ROOT
ATOM      1  C   UNL     1       5.115   4.463  18.606  0.00  0.00    +0.000 A 
ATOM      2  C   UNL     1       5.806   5.168  19.597  0.00  0.00    +0.000 A 
ATOM      3  C   UNL     1       6.974   5.914  19.304  0.00  0.00    +0.000 A 
ATOM      4  C   UNL     1       7.490   5.987  18.007  0.00  0.00    +0.000 A 
ATOM      5  C   UNL     1       6.822   5.280  17.038  0.00  0.00    +0.000 A 
ATOM      6  C   UNL     1       5.663   4.514  17.336  0.00  0.00    +0.000 A 
ATOM      7  C   UNL     1       5.179   3.873  16.065  0.00  0.00    +0.000 C 
ATOM      8  O   UNL     1       4.212   3.141  15.964  0.00  0.00    +0.000 OA
ATOM      9  C   UNL     1       6.100   4.330  15.049  0.00  0.00    +0.000 A 
ATOM     10  C   UNL     1       6.436   4.273  13.689  0.00  0.00    +0.000 A 
ATOM     11  N   UNL     1       7.541   5.029  13.461  0.00  0.00    +0.000 NA
ATOM     12  N   UNL     1       7.873   5.557  14.665  0.00  0.00    +0.000 N 
ATOM     13  C   UNL     1       7.041   5.136  15.633  0.00  0.00    +0.000 A 
ATOM     14  H   UNL     1       8.670   6.182  14.718  0.00  0.00    +0.000 HD
ENDROOT
BRANCH  10  15
ATOM     15  C   UNL     1       5.787   3.522  12.615  0.00  0.00    +0.000 A 
ATOM     16  C   UNL     1       4.526   3.895  12.133  0.00  0.00    +0.000 A 
ATOM     17  C   UNL     1       3.886   3.136  11.149  0.00  0.00    +0.000 A 
ATOM     18  C   UNL     1       4.504   2.000  10.632  0.00  0.00    +0.000 A 
ATOM     19  C   UNL     1       5.770   1.631  11.084  0.00  0.00    +0.000 A 
ATOM     20  C   UNL     1       6.410   2.391  12.067  0.00  0.00    +0.000 A 
ENDBRANCH  10  15
BRANCH   1  24
ATOM     21  C   UNL     1       1.582   3.231  19.103  0.00  0.00    +0.000 C 
ATOM     22  C   UNL     1       2.640   4.258  18.792  0.00  0.00    +0.000 C 
ATOM     23  O   UNL     1       2.330   5.416  18.536  0.00  0.00    +0.000 OA
ATOM     24  N   UNL     1       3.921   3.742  18.831  0.00  0.00    +0.000 N 
ATOM     25  H   UNL     1       4.018   2.728  18.899  0.00  0.00    +0.000 HD
ENDBRANCH   1  24
TORSDOF 2
ENDMDL
