MODEL 1
REMARK VINA RESULT:      -7.0      0.000      0.000
REMARK  Name = 
REMARK  6 active torsions:
REMARK  status: ('A' for Active; 'I' for Inactive)
REMARK    1  A    between atoms: C_1  and  C_2
REMARK    2  A    between atoms: C_2  and  C_3
REMARK    3  A    between atoms: C_3  and  C_4
REMARK    4  A    between atoms: C_10  and  C_11
REMARK    5  A    between atoms: C_12  and  O_13
REMARK    6  A    between atoms: C_17  and  C_18
REMARK                            x       y       z     vdW  Elec       q    Type
REMARK                         _______ _______ _______ _____ _____    ______ ____
ROOT
ATOM      1  C   UNL     1      10.453  11.554  19.141  0.00  0.00    +0.000 C 
ATOM      2  C   UNL     1      10.584  11.679  20.671  0.00  0.00    +0.000 C 
ATOM      3  C   UNL     1       9.781  12.898  21.144  0.00  0.00    +0.000 C 
ATOM      4  C   UNL     1      10.541  14.168  20.687  0.00  0.00    +0.000 C 
ATOM      5  C   UNL     1       9.950  15.446  21.299  0.00  0.00    +0.000 C 
ATOM      6  C   UNL     1       9.545  15.325  22.754  0.00  0.00    +0.000 C 
ATOM      7  C   UNL     1       8.661  14.119  23.108  0.00  0.00    +0.000 C 
ATOM      8  C   UNL     1       8.484  14.176  24.652  0.00  0.00    +0.000 C 
ATOM      9  C   UNL     1       7.230  13.966  22.496  0.00  0.00    +0.000 C 
ATOM     10  C   UNL     1       6.895  12.495  22.802  0.00  0.00    +0.000 C 
ATOM     11  C   UNL     1       8.244  11.753  22.829  0.00  0.00    +0.000 C 
ATOM     12  C   UNL     1       9.352  12.819  22.635  0.00  0.00    +0.000 C 
ATOM     13  C   UNL     1      10.621  14.231  19.091  0.00  0.00    +0.000 C 
ATOM     14  C   UNL     1       9.303  14.807  18.506  0.00  0.00    +0.000 C 
ATOM     15  C   UNL     1      11.766  15.210  18.661  0.00  0.00    +0.000 C 
ATOM     16  C   UNL     1      11.963  15.226  17.139  0.00  0.00    +0.000 C 
ATOM     17  C   UNL     1      12.333  13.846  16.619  0.00  0.00    +0.000 C 
ATOM     18  C   UNL     1      11.649  12.727  17.336  0.00  0.00    +0.000 C 
ATOM     19  C   UNL     1      10.900  12.846  18.453  0.00  0.00    +0.000 C 
ENDROOT
BRANCH   9  20
ATOM     20  O   UNL     1       7.138  14.203  21.097  0.00  0.00    +0.000 OA
ATOM     21  H   UNL     1       7.277  15.156  20.923  0.00  0.00    +0.000 HD
ENDBRANCH   9  20
BRANCH   1  22
ATOM     22  C   UNL     1       9.049  11.010  18.765  0.00  0.00    +0.000 C 
BRANCH  22  24
ATOM     23  C   UNL     1       8.054   8.943  17.748  0.00  0.00    +0.000 C 
ATOM     24  C   UNL     1       8.876   9.500  18.904  0.00  0.00    +0.000 C 
ENDBRANCH  22  24
ENDBRANCH   1  22
TORSDOF 3
ENDMDL
MODEL 2
REMARK VINA RESULT:      -6.4      7.372     11.181
REMARK  Name = 
REMARK  6 active torsions:
REMARK  status: ('A' for Active; 'I' for Inactive)
REMARK    1  A    between atoms: C_1  and  C_2
REMARK    2  A    between atoms: C_2  and  C_3
REMARK    3  A    between atoms: C_3  and  C_4
REMARK    4  A    between atoms: C_10  and  C_11
REMARK    5  A    between atoms: C_12  and  O_13
REMARK    6  A    between atoms: C_17  and  C_18
REMARK                            x       y       z     vdW  Elec       q    Type
REMARK                         _______ _______ _______ _____ _____    ______ ____
ROOT
ATOM      1  C   UNL     1       5.723   6.032  17.973  0.00  0.00    +0.000 C 
ATOM      2  C   UNL     1       4.238   6.203  18.344  0.00  0.00    +0.000 C 
ATOM      3  C   UNL     1       3.581   4.818  18.428  0.00  0.00    +0.000 C 
ATOM      4  C   UNL     1       3.454   4.269  16.985  0.00  0.00    +0.000 C 
ATOM      5  C   UNL     1       2.607   2.990  16.927  0.00  0.00    +0.000 C 
ATOM      6  C   UNL     1       1.377   3.002  17.813  0.00  0.00    +0.000 C 
ATOM      7  C   UNL     1       1.604   3.411  19.275  0.00  0.00    +0.000 C 
ATOM      8  C   UNL     1       0.190   3.441  19.921  0.00  0.00    +0.000 C 
ATOM      9  C   UNL     1       2.511   2.552  20.217  0.00  0.00    +0.000 C 
ATOM     10  C   UNL     1       2.755   3.506  21.401  0.00  0.00    +0.000 C 
ATOM     11  C   UNL     1       2.688   4.929  20.817  0.00  0.00    +0.000 C 
ATOM     12  C   UNL     1       2.309   4.787  19.321  0.00  0.00    +0.000 C 
ATOM     13  C   UNL     1       4.899   4.079  16.328  0.00  0.00    +0.000 C 
ATOM     14  C   UNL     1       5.530   2.736  16.785  0.00  0.00    +0.000 C 
ATOM     15  C   UNL     1       4.761   3.999  14.769  0.00  0.00    +0.000 C 
ATOM     16  C   UNL     1       6.127   3.929  14.076  0.00  0.00    +0.000 C 
ATOM     17  C   UNL     1       6.966   5.158  14.389  0.00  0.00    +0.000 C 
ATOM     18  C   UNL     1       6.789   5.671  15.782  0.00  0.00    +0.000 C 
ATOM     19  C   UNL     1       5.867   5.240  16.671  0.00  0.00    +0.000 C 
ENDROOT
BRANCH   9  20
ATOM     20  O   UNL     1       3.754   2.146  19.659  0.00  0.00    +0.000 OA
ATOM     21  H   UNL     1       3.785   1.168  19.623  0.00  0.00    +0.000 HD
ENDBRANCH   9  20
BRANCH   1  22
ATOM     22  C   UNL     1       6.527   5.518  19.197  0.00  0.00    +0.000 C 
BRANCH  22  24
ATOM     23  C   UNL     1       8.204   7.287  18.600  0.00  0.00    +0.000 C 
ATOM     24  C   UNL     1       8.003   5.908  19.217  0.00  0.00    +0.000 C 
ENDBRANCH  22  24
ENDBRANCH   1  22
TORSDOF 3
ENDMDL
MODEL 3
REMARK VINA RESULT:      -6.3      1.937      5.144
REMARK  Name = 
REMARK  6 active torsions:
REMARK  status: ('A' for Active; 'I' for Inactive)
REMARK    1  A    between atoms: C_1  and  C_2
REMARK    2  A    between atoms: C_2  and  C_3
REMARK    3  A    between atoms: C_3  and  C_4
REMARK    4  A    between atoms: C_10  and  C_11
REMARK    5  A    between atoms: C_12  and  O_13
REMARK    6  A    between atoms: C_17  and  C_18
REMARK                            x       y       z     vdW  Elec       q    Type
REMARK                         _______ _______ _______ _____ _____    ______ ____
ROOT
ATOM      1  C   UNL     1       9.709  13.632  21.242  0.00  0.00    +0.000 C 
ATOM      2  C   UNL     1      10.851  14.616  20.925  0.00  0.00    +0.000 C 
ATOM      3  C   UNL     1      10.579  15.277  19.566  0.00  0.00    +0.000 C 
ATOM      4  C   UNL     1      10.809  14.208  18.469  0.00  0.00    +0.000 C 
ATOM      5  C   UNL     1      10.786  14.815  17.059  0.00  0.00    +0.000 C 
ATOM      6  C   UNL     1      11.487  16.152  16.931  0.00  0.00    +0.000 C 
ATOM      7  C   UNL     1      11.096  17.219  17.964  0.00  0.00    +0.000 C 
ATOM      8  C   UNL     1      12.023  18.434  17.676  0.00  0.00    +0.000 C 
ATOM      9  C   UNL     1       9.634  17.772  18.031  0.00  0.00    +0.000 C 
ATOM     10  C   UNL     1       9.612  18.483  19.397  0.00  0.00    +0.000 C 
ATOM     11  C   UNL     1      10.621  17.727  20.282  0.00  0.00    +0.000 C 
ATOM     12  C   UNL     1      11.287  16.649  19.389  0.00  0.00    +0.000 C 
ATOM     13  C   UNL     1       9.775  13.000  18.635  0.00  0.00    +0.000 C 
ATOM     14  C   UNL     1       8.408  13.365  17.995  0.00  0.00    +0.000 C 
ATOM     15  C   UNL     1      10.307  11.743  17.866  0.00  0.00    +0.000 C 
ATOM     16  C   UNL     1       9.409  10.518  18.082  0.00  0.00    +0.000 C 
ATOM     17  C   UNL     1       9.335  10.144  19.555  0.00  0.00    +0.000 C 
ATOM     18  C   UNL     1       9.336  11.321  20.477  0.00  0.00    +0.000 C 
ATOM     19  C   UNL     1       9.553  12.605  20.118  0.00  0.00    +0.000 C 
ENDROOT
BRANCH   9  20
ATOM     20  O   UNL     1       8.608  16.790  17.980  0.00  0.00    +0.000 OA
ATOM     21  H   UNL     1       7.840  17.153  17.494  0.00  0.00    +0.000 HD
ENDBRANCH   9  20
BRANCH   1  22
ATOM     22  C   UNL     1       8.433  14.407  21.664  0.00  0.00    +0.000 C 
BRANCH  22  24
ATOM     23  C   UNL     1       8.281  12.943  23.696  0.00  0.00    +0.000 C 
ATOM     24  C   UNL     1       7.493  13.654  22.603  0.00  0.00    +0.000 C 
ENDBRANCH  22  24
ENDBRANCH   1  22
TORSDOF 3
ENDMDL
MODEL 4
REMARK VINA RESULT:      -5.9      8.360     11.184
REMARK  Name = 
REMARK  6 active torsions:
REMARK  status: ('A' for Active; 'I' for Inactive)
REMARK    1  A    between atoms: C_1  and  C_2
REMARK    2  A    between atoms: C_2  and  C_3
REMARK    3  A    between atoms: C_3  and  C_4
REMARK    4  A    between atoms: C_10  and  C_11
REMARK    5  A    between atoms: C_12  and  O_13
REMARK    6  A    between atoms: C_17  and  C_18
REMARK                            x       y       z     vdW  Elec       q    Type
REMARK                         _______ _______ _______ _____ _____    ______ ____
ROOT
ATOM      1  C   UNL     1      -1.263  12.987  22.817  0.00  0.00    +0.000 C 
ATOM      2  C   UNL     1      -0.187  14.070  22.621  0.00  0.00    +0.000 C 
ATOM      3  C   UNL     1       0.188  14.140  21.134  0.00  0.00    +0.000 C 
ATOM      4  C   UNL     1       0.999  12.866  20.793  0.00  0.00    +0.000 C 
ATOM      5  C   UNL     1       1.620  12.935  19.390  0.00  0.00    +0.000 C 
ATOM      6  C   UNL     1       2.195  14.286  19.016  0.00  0.00    +0.000 C 
ATOM      7  C   UNL     1       1.274  15.495  19.240  0.00  0.00    +0.000 C 
ATOM      8  C   UNL     1       2.133  16.741  18.881  0.00  0.00    +0.000 C 
ATOM      9  C   UNL     1      -0.072  15.634  18.455  0.00  0.00    +0.000 C 
ATOM     10  C   UNL     1      -0.807  16.729  19.250  0.00  0.00    +0.000 C 
ATOM     11  C   UNL     1      -0.302  16.608  20.700  0.00  0.00    +0.000 C 
ATOM     12  C   UNL     1       0.790  15.508  20.709  0.00  0.00    +0.000 C 
ATOM     13  C   UNL     1       0.106  11.557  21.006  0.00  0.00    +0.000 C 
ATOM     14  C   UNL     1      -0.801  11.313  19.769  0.00  0.00    +0.000 C 
ATOM     15  C   UNL     1       1.034  10.302  21.133  0.00  0.00    +0.000 C 
ATOM     16  C   UNL     1       0.237   9.030  21.451  0.00  0.00    +0.000 C 
ATOM     17  C   UNL     1      -0.515   9.167  22.765  0.00  0.00    +0.000 C 
ATOM     18  C   UNL     1      -1.048  10.541  23.016  0.00  0.00    +0.000 C 
ATOM     19  C   UNL     1      -0.778  11.639  22.277  0.00  0.00    +0.000 C 
ENDROOT
BRANCH   9  20
ATOM     20  O   UNL     1      -0.869  14.458  18.401  0.00  0.00    +0.000 OA
ATOM     21  H   UNL     1      -1.778  14.673  18.695  0.00  0.00    +0.000 HD
ENDBRANCH   9  20
BRANCH   1  22
ATOM     22  C   UNL     1      -2.637  13.494  22.303  0.00  0.00    +0.000 C 
BRANCH  22  24
ATOM     23  C   UNL     1      -3.939  12.555  24.232  0.00  0.00    +0.000 C 
ATOM     24  C   UNL     1      -3.839  12.648  22.714  0.00  0.00    +0.000 C 
ENDBRANCH  22  24
ENDBRANCH   1  22
TORSDOF 3
ENDMDL
MODEL 5
REMARK VINA RESULT:      -5.9      1.992      3.576
REMARK  Name = 
REMARK  6 active torsions:
REMARK  status: ('A' for Active; 'I' for Inactive)
REMARK    1  A    between atoms: C_1  and  C_2
REMARK    2  A    between atoms: C_2  and  C_3
REMARK    3  A    between atoms: C_3  and  C_4
REMARK    4  A    between atoms: C_10  and  C_11
REMARK    5  A    between atoms: C_12  and  O_13
REMARK    6  A    between atoms: C_17  and  C_18
REMARK                            x       y       z     vdW  Elec       q    Type
REMARK                         _______ _______ _______ _____ _____    ______ ____
ROOT
ATOM      1  C   UNL     1       9.744  12.861  21.619  0.00  0.00    +0.000 C 
ATOM      2  C   UNL     1       9.517  14.340  21.985  0.00  0.00    +0.000 C 
ATOM      3  C   UNL     1       8.624  14.988  20.918  0.00  0.00    +0.000 C 
ATOM      4  C   UNL     1       9.466  15.138  19.627  0.00  0.00    +0.000 C 
ATOM      5  C   UNL     1       8.746  15.980  18.563  0.00  0.00    +0.000 C 
ATOM      6  C   UNL     1       8.015  17.194  19.102  0.00  0.00    +0.000 C 
ATOM      7  C   UNL     1       7.076  16.941  20.290  0.00  0.00    +0.000 C 
ATOM      8  C   UNL     1       6.546  18.343  20.704  0.00  0.00    +0.000 C 
ATOM      9  C   UNL     1       5.826  16.012  20.142  0.00  0.00    +0.000 C 
ATOM     10  C   UNL     1       5.433  15.751  21.608  0.00  0.00    +0.000 C 
ATOM     11  C   UNL     1       6.740  15.837  22.417  0.00  0.00    +0.000 C 
ATOM     12  C   UNL     1       7.861  16.243  21.426  0.00  0.00    +0.000 C 
ATOM     13  C   UNL     1       9.913  13.705  19.077  0.00  0.00    +0.000 C 
ATOM     14  C   UNL     1       8.766  13.059  18.255  0.00  0.00    +0.000 C 
ATOM     15  C   UNL     1      11.125  13.872  18.098  0.00  0.00    +0.000 C 
ATOM     16  C   UNL     1      11.669  12.518  17.624  0.00  0.00    +0.000 C 
ATOM     17  C   UNL     1      12.153  11.680  18.798  0.00  0.00    +0.000 C 
ATOM     18  C   UNL     1      11.323  11.834  20.032  0.00  0.00    +0.000 C 
ATOM     19  C   UNL     1      10.335  12.737  20.212  0.00  0.00    +0.000 C 
ENDROOT
BRANCH   9  20
ATOM     20  O   UNL     1       6.061  14.778  19.478  0.00  0.00    +0.000 OA
ATOM     21  H   UNL     1       6.632  14.215  20.039  0.00  0.00    +0.000 HD
ENDBRANCH   9  20
BRANCH   1  22
ATOM     22  C   UNL     1       8.467  12.032  21.916  0.00  0.00    +0.000 C 
BRANCH  22  24
ATOM     23  C   UNL     1       6.566  12.012  23.555  0.00  0.00    +0.000 C 
ATOM     24  C   UNL     1       8.079  11.938  23.390  0.00  0.00    +0.000 C 
ENDBRANCH  22  24
ENDBRANCH   1  22
TORSDOF 3
ENDMDL
MODEL 6
REMARK VINA RESULT:      -5.9      9.951     12.414
REMARK  Name = 
REMARK  6 active torsions:
REMARK  status: ('A' for Active; 'I' for Inactive)
REMARK    1  A    between atoms: C_1  and  C_2
REMARK    2  A    between atoms: C_2  and  C_3
REMARK    3  A    between atoms: C_3  and  C_4
REMARK    4  A    between atoms: C_10  and  C_11
REMARK    5  A    between atoms: C_12  and  O_13
REMARK    6  A    between atoms: C_17  and  C_18
REMARK                            x       y       z     vdW  Elec       q    Type
REMARK                         _______ _______ _______ _____ _____    ______ ____
ROOT
ATOM      1  C   UNL     1      -0.597  12.147  22.631  0.00  0.00    +0.000 C 
ATOM      2  C   UNL     1      -1.318  13.269  23.401  0.00  0.00    +0.000 C 
ATOM      3  C   UNL     1      -2.684  13.526  22.750  0.00  0.00    +0.000 C 
ATOM      4  C   UNL     1      -2.433  14.226  21.391  0.00  0.00    +0.000 C 
ATOM      5  C   UNL     1      -3.734  14.735  20.754  0.00  0.00    +0.000 C 
ATOM      6  C   UNL     1      -4.714  15.361  21.726  0.00  0.00    +0.000 C 
ATOM      7  C   UNL     1      -5.034  14.538  22.983  0.00  0.00    +0.000 C 
ATOM      8  C   UNL     1      -5.964  15.441  23.843  0.00  0.00    +0.000 C 
ATOM      9  C   UNL     1      -5.736  13.144  22.872  0.00  0.00    +0.000 C 
ATOM     10  C   UNL     1      -5.505  12.546  24.272  0.00  0.00    +0.000 C 
ATOM     11  C   UNL     1      -4.186  13.158  24.780  0.00  0.00    +0.000 C 
ATOM     12  C   UNL     1      -3.718  14.176  23.710  0.00  0.00    +0.000 C 
ATOM     13  C   UNL     1      -1.602  13.273  20.413  0.00  0.00    +0.000 C 
ATOM     14  C   UNL     1      -2.546  12.256  19.716  0.00  0.00    +0.000 C 
ATOM     15  C   UNL     1      -0.949  14.129  19.274  0.00  0.00    +0.000 C 
ATOM     16  C   UNL     1      -0.047  13.282  18.367  0.00  0.00    +0.000 C 
ATOM     17  C   UNL     1       1.087  12.649  19.158  0.00  0.00    +0.000 C 
ATOM     18  C   UNL     1       0.698  12.225  20.538  0.00  0.00    +0.000 C 
ATOM     19  C   UNL     1      -0.475  12.502  21.147  0.00  0.00    +0.000 C 
ENDROOT
BRANCH   9  20
ATOM     20  O   UNL     1      -5.207  12.274  21.881  0.00  0.00    +0.000 OA
ATOM     21  H   UNL     1      -5.937  11.952  21.314  0.00  0.00    +0.000 HD
ENDBRANCH   9  20
BRANCH   1  22
ATOM     22  C   UNL     1      -1.228  10.771  22.972  0.00  0.00    +0.000 C 
BRANCH  22  24
ATOM     23  C   UNL     1      -0.239   8.784  21.801  0.00  0.00    +0.000 C 
ATOM     24  C   UNL     1      -0.242   9.611  23.081  0.00  0.00    +0.000 C 
ENDBRANCH  22  24
ENDBRANCH   1  22
TORSDOF 3
ENDMDL
MODEL 7
REMARK VINA RESULT:      -5.7      8.307     11.437
REMARK  Name = 
REMARK  6 active torsions:
REMARK  status: ('A' for Active; 'I' for Inactive)
REMARK    1  A    between atoms: C_1  and  C_2
REMARK    2  A    between atoms: C_2  and  C_3
REMARK    3  A    between atoms: C_3  and  C_4
REMARK    4  A    between atoms: C_10  and  C_11
REMARK    5  A    between atoms: C_12  and  O_13
REMARK    6  A    between atoms: C_17  and  C_18
REMARK                            x       y       z     vdW  Elec       q    Type
REMARK                         _______ _______ _______ _____ _____    ______ ____
ROOT
ATOM      1  C   UNL     1       3.204   6.880  18.080  0.00  0.00    +0.000 C 
ATOM      2  C   UNL     1       2.198   5.782  17.687  0.00  0.00    +0.000 C 
ATOM      3  C   UNL     1       2.620   4.459  18.342  0.00  0.00    +0.000 C 
ATOM      4  C   UNL     1       3.891   3.958  17.612  0.00  0.00    +0.000 C 
ATOM      5  C   UNL     1       4.272   2.531  18.032  0.00  0.00    +0.000 C 
ATOM      6  C   UNL     1       3.102   1.582  18.192  0.00  0.00    +0.000 C 
ATOM      7  C   UNL     1       1.939   2.087  19.058  0.00  0.00    +0.000 C 
ATOM      8  C   UNL     1       0.847   0.983  18.971  0.00  0.00    +0.000 C 
ATOM      9  C   UNL     1       2.146   2.397  20.577  0.00  0.00    +0.000 C 
ATOM     10  C   UNL     1       0.885   3.209  20.924  0.00  0.00    +0.000 C 
ATOM     11  C   UNL     1       0.478   3.931  19.626  0.00  0.00    +0.000 C 
ATOM     12  C   UNL     1       1.450   3.451  18.518  0.00  0.00    +0.000 C 
ATOM     13  C   UNL     1       5.093   4.995  17.799  0.00  0.00    +0.000 C 
ATOM     14  C   UNL     1       5.791   4.775  19.168  0.00  0.00    +0.000 C 
ATOM     15  C   UNL     1       6.179   4.745  16.698  0.00  0.00    +0.000 C 
ATOM     16  C   UNL     1       7.306   5.784  16.759  0.00  0.00    +0.000 C 
ATOM     17  C   UNL     1       6.768   7.190  16.546  0.00  0.00    +0.000 C 
ATOM     18  C   UNL     1       5.420   7.419  17.151  0.00  0.00    +0.000 C 
ATOM     19  C   UNL     1       4.628   6.471  17.696  0.00  0.00    +0.000 C 
ENDROOT
BRANCH   9  20
ATOM     20  O   UNL     1       3.309   3.151  20.892  0.00  0.00    +0.000 OA
ATOM     21  H   UNL     1       4.075   2.545  20.961  0.00  0.00    +0.000 HD
ENDBRANCH   9  20
BRANCH   1  22
ATOM     22  C   UNL     1       2.974   7.318  19.550  0.00  0.00    +0.000 C 
BRANCH  22  24
ATOM     23  C   UNL     1       1.161   7.955  21.164  0.00  0.00    +0.000 C 
ATOM     24  C   UNL     1       1.755   8.207  19.783  0.00  0.00    +0.000 C 
ENDBRANCH  22  24
ENDBRANCH   1  22
TORSDOF 3
ENDMDL
MODEL 8
REMARK VINA RESULT:      -5.7      8.909     11.102
REMARK  Name = 
REMARK  6 active torsions:
REMARK  status: ('A' for Active; 'I' for Inactive)
REMARK    1  A    between atoms: C_1  and  C_2
REMARK    2  A    between atoms: C_2  and  C_3
REMARK    3  A    between atoms: C_3  and  C_4
REMARK    4  A    between atoms: C_10  and  C_11
REMARK    5  A    between atoms: C_12  and  O_13
REMARK    6  A    between atoms: C_17  and  C_18
REMARK                            x       y       z     vdW  Elec       q    Type
REMARK                         _______ _______ _______ _____ _____    ______ ____
ROOT
ATOM      1  C   UNL     1       4.737   6.329  17.662  0.00  0.00    +0.000 C 
ATOM      2  C   UNL     1       4.980   5.484  18.927  0.00  0.00    +0.000 C 
ATOM      3  C   UNL     1       3.694   4.720  19.273  0.00  0.00    +0.000 C 
ATOM      4  C   UNL     1       2.666   5.748  19.808  0.00  0.00    +0.000 C 
ATOM      5  C   UNL     1       1.422   5.066  20.397  0.00  0.00    +0.000 C 
ATOM      6  C   UNL     1       1.707   3.825  21.219  0.00  0.00    +0.000 C 
ATOM      7  C   UNL     1       2.615   2.776  20.560  0.00  0.00    +0.000 C 
ATOM      8  C   UNL     1       2.826   1.676  21.639  0.00  0.00    +0.000 C 
ATOM      9  C   UNL     1       2.174   2.043  19.250  0.00  0.00    +0.000 C 
ATOM     10  C   UNL     1       3.492   1.412  18.765  0.00  0.00    +0.000 C 
ATOM     11  C   UNL     1       4.614   2.339  19.270  0.00  0.00    +0.000 C 
ATOM     12  C   UNL     1       3.939   3.443  20.123  0.00  0.00    +0.000 C 
ATOM     13  C   UNL     1       2.303   6.819  18.679  0.00  0.00    +0.000 C 
ATOM     14  C   UNL     1       1.230   6.247  17.714  0.00  0.00    +0.000 C 
ATOM     15  C   UNL     1       1.672   8.090  19.344  0.00  0.00    +0.000 C 
ATOM     16  C   UNL     1       1.405   9.200  18.319  0.00  0.00    +0.000 C 
ATOM     17  C   UNL     1       2.692   9.641  17.640  0.00  0.00    +0.000 C 
ATOM     18  C   UNL     1       3.658   8.527  17.395  0.00  0.00    +0.000 C 
ATOM     19  C   UNL     1       3.541   7.264  17.859  0.00  0.00    +0.000 C 
ENDROOT
BRANCH   9  20
ATOM     20  O   UNL     1       1.637   2.881  18.236  0.00  0.00    +0.000 OA
ATOM     21  H   UNL     1       1.243   2.323  17.534  0.00  0.00    +0.000 HD
ENDBRANCH   9  20
BRANCH   1  22
ATOM     22  C   UNL     1       4.716   5.421  16.405  0.00  0.00    +0.000 C 
BRANCH  22  24
ATOM     23  C   UNL     1       6.095   3.974  14.888  0.00  0.00    +0.000 C 
ATOM     24  C   UNL     1       5.832   4.382  16.332  0.00  0.00    +0.000 C 
ENDBRANCH  22  24
ENDBRANCH   1  22
TORSDOF 3
ENDMDL
MODEL 9
REMARK VINA RESULT:      -5.7     10.868     14.429
REMARK  Name = 
REMARK  6 active torsions:
REMARK  status: ('A' for Active; 'I' for Inactive)
REMARK    1  A    between atoms: C_1  and  C_2
REMARK    2  A    between atoms: C_2  and  C_3
REMARK    3  A    between atoms: C_3  and  C_4
REMARK    4  A    between atoms: C_10  and  C_11
REMARK    5  A    between atoms: C_12  and  O_13
REMARK    6  A    between atoms: C_17  and  C_18
REMARK                            x       y       z     vdW  Elec       q    Type
REMARK                         _______ _______ _______ _____ _____    ______ ____
ROOT
ATOM      1  C   UNL     1      -4.142  13.324  24.118  0.00  0.00    +0.000 C 
ATOM      2  C   UNL     1      -3.012  12.463  23.524  0.00  0.00    +0.000 C 
ATOM      3  C   UNL     1      -2.797  12.862  22.057  0.00  0.00    +0.000 C 
ATOM      4  C   UNL     1      -4.010  12.343  21.246  0.00  0.00    +0.000 C 
ATOM      5  C   UNL     1      -3.796  12.487  19.732  0.00  0.00    +0.000 C 
ATOM      6  C   UNL     1      -2.399  12.146  19.253  0.00  0.00    +0.000 C 
ATOM      7  C   UNL     1      -1.244  12.819  20.010  0.00  0.00    +0.000 C 
ATOM      8  C   UNL     1       0.055  12.225  19.396  0.00  0.00    +0.000 C 
ATOM      9  C   UNL     1      -1.078  14.374  19.999  0.00  0.00    +0.000 C 
ATOM     10  C   UNL     1      -0.082  14.608  21.150  0.00  0.00    +0.000 C 
ATOM     11  C   UNL     1      -0.317  13.460  22.150  0.00  0.00    +0.000 C 
ATOM     12  C   UNL     1      -1.378  12.522  21.521  0.00  0.00    +0.000 C 
ATOM     13  C   UNL     1      -5.359  13.040  21.744  0.00  0.00    +0.000 C 
ATOM     14  C   UNL     1      -5.519  14.440  21.091  0.00  0.00    +0.000 C 
ATOM     15  C   UNL     1      -6.592  12.189  21.284  0.00  0.00    +0.000 C 
ATOM     16  C   UNL     1      -7.911  12.751  21.829  0.00  0.00    +0.000 C 
ATOM     17  C   UNL     1      -7.916  12.761  23.350  0.00  0.00    +0.000 C 
ATOM     18  C   UNL     1      -6.587  13.080  23.956  0.00  0.00    +0.000 C 
ATOM     19  C   UNL     1      -5.420  13.188  23.286  0.00  0.00    +0.000 C 
ENDROOT
BRANCH   9  20
ATOM     20  O   UNL     1      -2.268  15.115  20.232  0.00  0.00    +0.000 OA
ATOM     21  H   UNL     1      -2.065  16.072  20.181  0.00  0.00    +0.000 HD
ENDBRANCH   9  20
BRANCH   1  22
ATOM     22  C   UNL     1      -3.634  14.764  24.390  0.00  0.00    +0.000 C 
BRANCH  22  24
ATOM     23  C   UNL     1      -1.327  15.406  25.143  0.00  0.00    +0.000 C 
ATOM     24  C   UNL     1      -2.698  14.910  25.588  0.00  0.00    +0.000 C 
ENDBRANCH  22  24
ENDBRANCH   1  22
TORSDOF 3
ENDMDL
