MODEL 1
REMARK VINA RESULT:      -7.2      0.000      0.000
REMARK  Name = 
REMARK  7 active torsions:
REMARK  status: ('A' for Active; 'I' for Inactive)
REMARK    1  A    between atoms: C_1  and  C_2
REMARK    2  A    between atoms: C_2  and  O_3
REMARK    3  A    between atoms: O_3  and  C_4
REMARK    4  A    between atoms: C_10  and  C_12
REMARK    5  A    between atoms: C_15  and  C_16
REMARK    6  A    between atoms: C_16  and  S_17
REMARK    7  A    between atoms: S_17  and  C_18
REMARK                            x       y       z     vdW  Elec       q    Type
REMARK                         _______ _______ _______ _____ _____    ______ ____
ROOT
ATOM      1  C   UNL     1       7.315   7.016  17.339  0.00  0.00    +0.000 A 
ATOM      2  C   UNL     1       7.197   8.350  16.952  0.00  0.00    +0.000 A 
ATOM      3  C   UNL     1       7.893   9.348  17.632  0.00  0.00    +0.000 A 
ATOM      4  C   UNL     1       8.616   9.060  18.800  0.00  0.00    +0.000 A 
ATOM      5  C   UNL     1       8.681   7.721  19.223  0.00  0.00    +0.000 A 
ATOM      6  C   UNL     1       8.037   6.708  18.498  0.00  0.00    +0.000 A 
ENDROOT
BRANCH   1  13
ATOM      7  C   UNL     1       2.152   3.482  18.571  0.00  0.00    +0.000 C 
ATOM      8  O   UNL     1       1.641   2.567  17.939  0.00  0.00    +0.000 OA
ATOM      9  N   UNL     1       3.473   3.859  18.454  0.00  0.00    +0.000 N 
ATOM     10  C   UNL     1       4.326   3.219  17.448  0.00  0.00    +0.000 C 
ATOM     11  C   UNL     1       4.840   4.234  16.410  0.00  0.00    +0.000 C 
ATOM     12  N   UNL     1       5.410   5.420  17.065  0.00  0.00    +0.000 N 
ATOM     13  C   UNL     1       6.623   5.928  16.597  0.00  0.00    +0.000 C 
ATOM     14  O   UNL     1       7.184   5.489  15.593  0.00  0.00    +0.000 OA
ATOM     15  C   UNL     1       4.483   6.065  18.013  0.00  0.00    +0.000 C 
ATOM     16  C   UNL     1       4.034   5.059  19.085  0.00  0.00    +0.000 C 
BRANCH   7  17
ATOM     17  O   UNL     1       1.464   4.293  19.418  0.00  0.00    +0.000 OA
BRANCH  17  19
ATOM     18  C   UNL     1       1.900   3.010  21.381  0.00  0.00    +0.000 C 
ATOM     19  C   UNL     1       0.820   3.634  20.515  0.00  0.00    +0.000 C 
ENDBRANCH  17  19
ENDBRANCH   7  17
ENDBRANCH   1  13
BRANCH   4  20
ATOM     20  C   UNL     1       9.344  10.146  19.576  0.00  0.00    +0.000 C 
BRANCH  20  21
ATOM     21  S   UNL     1      10.070  11.423  18.478  0.00  0.00    +0.000 S 
BRANCH  21  22
ATOM     22  C   UNL     1       9.004  12.839  18.630  0.00  0.00    +0.000 A 
ATOM     23  C   UNL     1       8.958  13.704  19.725  0.00  0.00    +0.000 A 
ATOM     24  C   UNL     1       8.020  14.743  19.763  0.00  0.00    +0.000 A 
ATOM     25  C   UNL     1       7.127  14.927  18.706  0.00  0.00    +0.000 A 
ATOM     26 CL   UNL     1       5.960  16.184  18.776  0.00  0.00    +0.000 Cl
ATOM     27  C   UNL     1       7.172  14.082  17.602  0.00  0.00    +0.000 A 
ATOM     28  C   UNL     1       8.108  13.047  17.567  0.00  0.00    +0.000 A 
ENDBRANCH  21  22
ENDBRANCH  20  21
ENDBRANCH   4  20
TORSDOF 6
ENDMDL
MODEL 2
REMARK VINA RESULT:      -7.2      7.204      8.894
REMARK  Name = 
REMARK  7 active torsions:
REMARK  status: ('A' for Active; 'I' for Inactive)
REMARK    1  A    between atoms: C_1  and  C_2
REMARK    2  A    between atoms: C_2  and  O_3
REMARK    3  A    between atoms: O_3  and  C_4
REMARK    4  A    between atoms: C_10  and  C_12
REMARK    5  A    between atoms: C_15  and  C_16
REMARK    6  A    between atoms: C_16  and  S_17
REMARK    7  A    between atoms: S_17  and  C_18
REMARK                            x       y       z     vdW  Elec       q    Type
REMARK                         _______ _______ _______ _____ _____    ______ ____
ROOT
ATOM      1  C   UNL     1       1.201   9.201  19.558  0.00  0.00    +0.000 A 
ATOM      2  C   UNL     1       1.318   8.539  20.779  0.00  0.00    +0.000 A 
ATOM      3  C   UNL     1       0.535   8.920  21.867  0.00  0.00    +0.000 A 
ATOM      4  C   UNL     1      -0.286  10.057  21.807  0.00  0.00    +0.000 A 
ATOM      5  C   UNL     1      -0.353  10.758  20.592  0.00  0.00    +0.000 A 
ATOM      6  C   UNL     1       0.383  10.333  19.476  0.00  0.00    +0.000 A 
ENDROOT
BRANCH   1  13
ATOM      7  C   UNL     1       4.707   4.039  18.241  0.00  0.00    +0.000 C 
ATOM      8  O   UNL     1       5.371   3.755  17.253  0.00  0.00    +0.000 OA
ATOM      9  N   UNL     1       4.372   5.327  18.603  0.00  0.00    +0.000 N 
ATOM     10  C   UNL     1       4.723   6.446  17.722  0.00  0.00    +0.000 C 
ATOM     11  C   UNL     1       3.470   7.181  17.212  0.00  0.00    +0.000 C 
ATOM     12  N   UNL     1       2.558   7.505  18.318  0.00  0.00    +0.000 N 
ATOM     13  C   UNL     1       1.988   8.779  18.368  0.00  0.00    +0.000 C 
ATOM     14  O   UNL     1       2.136   9.608  17.470  0.00  0.00    +0.000 OA
ATOM     15  C   UNL     1       2.182   6.331  19.127  0.00  0.00    +0.000 C 
ATOM     16  C   UNL     1       3.439   5.649  19.689  0.00  0.00    +0.000 C 
BRANCH   7  17
ATOM     17  O   UNL     1       4.154   3.117  19.072  0.00  0.00    +0.000 OA
BRANCH  17  19
ATOM     18  C   UNL     1       2.079   2.308  18.218  0.00  0.00    +0.000 C 
ATOM     19  C   UNL     1       3.549   1.990  18.427  0.00  0.00    +0.000 C 
ENDBRANCH  17  19
ENDBRANCH   7  17
ENDBRANCH   1  13
BRANCH   4  20
ATOM     20  C   UNL     1      -1.111  10.508  23.001  0.00  0.00    +0.000 C 
BRANCH  20  21
ATOM     21  S   UNL     1      -1.428  12.315  22.992  0.00  0.00    +0.000 S 
BRANCH  21  22
ATOM     22  C   UNL     1      -3.198  12.485  23.041  0.00  0.00    +0.000 A 
ATOM     23  C   UNL     1      -4.025  12.668  21.931  0.00  0.00    +0.000 A 
ATOM     24  C   UNL     1      -5.400  12.867  22.103  0.00  0.00    +0.000 A 
ATOM     25  C   UNL     1      -5.958  12.878  23.382  0.00  0.00    +0.000 A 
ATOM     26 CL   UNL     1      -7.640  13.152  23.584  0.00  0.00    +0.000 Cl
ATOM     27  C   UNL     1      -5.149  12.680  24.497  0.00  0.00    +0.000 A 
ATOM     28  C   UNL     1      -3.777  12.483  24.322  0.00  0.00    +0.000 A 
ENDBRANCH  21  22
ENDBRANCH  20  21
ENDBRANCH   4  20
TORSDOF 6
ENDMDL
MODEL 3
REMARK VINA RESULT:      -7.2      6.466      9.973
REMARK  Name = 
REMARK  7 active torsions:
REMARK  status: ('A' for Active; 'I' for Inactive)
REMARK    1  A    between atoms: C_1  and  C_2
REMARK    2  A    between atoms: C_2  and  O_3
REMARK    3  A    between atoms: O_3  and  C_4
REMARK    4  A    between atoms: C_10  and  C_12
REMARK    5  A    between atoms: C_15  and  C_16
REMARK    6  A    between atoms: C_16  and  S_17
REMARK    7  A    between atoms: S_17  and  C_18
REMARK                            x       y       z     vdW  Elec       q    Type
REMARK                         _______ _______ _______ _____ _____    ______ ____
ROOT
ATOM      1  C   UNL     1       0.713   9.684  18.914  0.00  0.00    +0.000 A 
ATOM      2  C   UNL     1       1.454   9.089  17.894  0.00  0.00    +0.000 A 
ATOM      3  C   UNL     1       2.178   7.923  18.135  0.00  0.00    +0.000 A 
ATOM      4  C   UNL     1       2.293   7.395  19.431  0.00  0.00    +0.000 A 
ATOM      5  C   UNL     1       1.594   8.035  20.468  0.00  0.00    +0.000 A 
ATOM      6  C   UNL     1       0.810   9.169  20.211  0.00  0.00    +0.000 A 
ENDROOT
BRANCH   1  13
ATOM      7  C   UNL     1       1.781  15.919  19.723  0.00  0.00    +0.000 C 
ATOM      8  O   UNL     1       1.053  16.885  19.539  0.00  0.00    +0.000 OA
ATOM      9  N   UNL     1       1.325  14.637  19.946  0.00  0.00    +0.000 N 
ATOM     10  C   UNL     1      -0.112  14.351  19.863  0.00  0.00    +0.000 C 
ATOM     11  C   UNL     1      -0.426  13.345  18.740  0.00  0.00    +0.000 C 
ATOM     12  N   UNL     1       0.453  12.169  18.821  0.00  0.00    +0.000 N 
ATOM     13  C   UNL     1      -0.108  10.900  18.668  0.00  0.00    +0.000 C 
ATOM     14  O   UNL     1      -1.289  10.728  18.366  0.00  0.00    +0.000 OA
ATOM     15  C   UNL     1       1.887  12.512  18.829  0.00  0.00    +0.000 C 
ATOM     16  C   UNL     1       2.199  13.460  19.998  0.00  0.00    +0.000 C 
BRANCH   7  17
ATOM     17  O   UNL     1       3.139  15.971  19.661  0.00  0.00    +0.000 OA
BRANCH  17  19
ATOM     18  C   UNL     1       3.629  15.675  17.345  0.00  0.00    +0.000 C 
ATOM     19  C   UNL     1       3.678  16.642  18.515  0.00  0.00    +0.000 C 
ENDBRANCH  17  19
ENDBRANCH   7  17
ENDBRANCH   1  13
BRANCH   4  20
ATOM     20  C   UNL     1       3.115   6.148  19.714  0.00  0.00    +0.000 C 
BRANCH  20  21
ATOM     21  S   UNL     1       2.849   4.835  18.462  0.00  0.00    +0.000 S 
BRANCH  21  22
ATOM     22  C   UNL     1       4.220   4.971  17.336  0.00  0.00    +0.000 A 
ATOM     23  C   UNL     1       5.065   6.077  17.219  0.00  0.00    +0.000 A 
ATOM     24  C   UNL     1       6.065   6.098  16.240  0.00  0.00    +0.000 A 
ATOM     25  C   UNL     1       6.231   5.015  15.376  0.00  0.00    +0.000 A 
ATOM     26 CL   UNL     1       7.441   5.063  14.159  0.00  0.00    +0.000 Cl
ATOM     27  C   UNL     1       5.407   3.900  15.491  0.00  0.00    +0.000 A 
ATOM     28  C   UNL     1       4.409   3.882  16.469  0.00  0.00    +0.000 A 
ENDBRANCH  21  22
ENDBRANCH  20  21
ENDBRANCH   4  20
TORSDOF 6
ENDMDL
MODEL 4
REMARK VINA RESULT:      -7.1      0.908      1.485
REMARK  Name = 
REMARK  7 active torsions:
REMARK  status: ('A' for Active; 'I' for Inactive)
REMARK    1  A    between atoms: C_1  and  C_2
REMARK    2  A    between atoms: C_2  and  O_3
REMARK    3  A    between atoms: O_3  and  C_4
REMARK    4  A    between atoms: C_10  and  C_12
REMARK    5  A    between atoms: C_15  and  C_16
REMARK    6  A    between atoms: C_16  and  S_17
REMARK    7  A    between atoms: S_17  and  C_18
REMARK                            x       y       z     vdW  Elec       q    Type
REMARK                         _______ _______ _______ _____ _____    ______ ____
ROOT
ATOM      1  C   UNL     1       7.346   7.130  17.425  0.00  0.00    +0.000 A 
ATOM      2  C   UNL     1       8.161   6.823  18.513  0.00  0.00    +0.000 A 
ATOM      3  C   UNL     1       8.754   7.839  19.261  0.00  0.00    +0.000 A 
ATOM      4  C   UNL     1       8.660   9.182  18.861  0.00  0.00    +0.000 A 
ATOM      5  C   UNL     1       7.887   9.481  17.727  0.00  0.00    +0.000 A 
ATOM      6  C   UNL     1       7.235   8.464  17.015  0.00  0.00    +0.000 A 
ENDROOT
BRANCH   1  13
ATOM      7  C   UNL     1       2.220   3.502  18.537  0.00  0.00    +0.000 C 
ATOM      8  O   UNL     1       1.715   2.607  17.872  0.00  0.00    +0.000 OA
ATOM      9  N   UNL     1       3.537   3.896  18.430  0.00  0.00    +0.000 N 
ATOM     10  C   UNL     1       4.393   3.303  17.398  0.00  0.00    +0.000 C 
ATOM     11  C   UNL     1       4.893   4.362  16.398  0.00  0.00    +0.000 C 
ATOM     12  N   UNL     1       5.454   5.528  17.096  0.00  0.00    +0.000 N 
ATOM     13  C   UNL     1       6.661   6.065  16.644  0.00  0.00    +0.000 C 
ATOM     14  O   UNL     1       7.222   5.669  15.622  0.00  0.00    +0.000 OA
ATOM     15  C   UNL     1       4.525   6.127  18.071  0.00  0.00    +0.000 C 
ATOM     16  C   UNL     1       4.089   5.076  19.105  0.00  0.00    +0.000 C 
BRANCH   7  17
ATOM     17  O   UNL     1       1.528   4.274  19.417  0.00  0.00    +0.000 OA
BRANCH  17  19
ATOM     18  C   UNL     1       1.868   3.205  21.522  0.00  0.00    +0.000 C 
ATOM     19  C   UNL     1       0.846   3.562  20.457  0.00  0.00    +0.000 C 
ENDBRANCH  17  19
ENDBRANCH   7  17
ENDBRANCH   1  13
BRANCH   4  20
ATOM     20  C   UNL     1       9.338  10.295  19.644  0.00  0.00    +0.000 C 
BRANCH  20  21
ATOM     21  S   UNL     1      10.485  11.282  18.607  0.00  0.00    +0.000 S 
BRANCH  21  22
ATOM     22  C   UNL     1       9.775  12.911  18.536  0.00  0.00    +0.000 A 
ATOM     23  C   UNL     1       8.442  13.202  18.236  0.00  0.00    +0.000 A 
ATOM     24  C   UNL     1       8.017  14.532  18.135  0.00  0.00    +0.000 A 
ATOM     25  C   UNL     1       8.917  15.578  18.339  0.00  0.00    +0.000 A 
ATOM     26 CL   UNL     1       8.393  17.206  18.182  0.00  0.00    +0.000 Cl
ATOM     27  C   UNL     1      10.244  15.305  18.655  0.00  0.00    +0.000 A 
ATOM     28  C   UNL     1      10.665  13.977  18.754  0.00  0.00    +0.000 A 
ENDBRANCH  21  22
ENDBRANCH  20  21
ENDBRANCH   4  20
TORSDOF 6
ENDMDL
MODEL 5
REMARK VINA RESULT:      -7.0      0.888      1.603
REMARK  Name = 
REMARK  7 active torsions:
REMARK  status: ('A' for Active; 'I' for Inactive)
REMARK    1  A    between atoms: C_1  and  C_2
REMARK    2  A    between atoms: C_2  and  O_3
REMARK    3  A    between atoms: O_3  and  C_4
REMARK    4  A    between atoms: C_10  and  C_12
REMARK    5  A    between atoms: C_15  and  C_16
REMARK    6  A    between atoms: C_16  and  S_17
REMARK    7  A    between atoms: S_17  and  C_18
REMARK                            x       y       z     vdW  Elec       q    Type
REMARK                         _______ _______ _______ _____ _____    ______ ____
ROOT
ATOM      1  C   UNL     1       6.733   7.065  17.356  0.00  0.00    +0.000 A 
ATOM      2  C   UNL     1       7.702   6.630  18.259  0.00  0.00    +0.000 A 
ATOM      3  C   UNL     1       8.527   7.548  18.906  0.00  0.00    +0.000 A 
ATOM      4  C   UNL     1       8.501   8.911  18.569  0.00  0.00    +0.000 A 
ATOM      5  C   UNL     1       7.563   9.336  17.613  0.00  0.00    +0.000 A 
ATOM      6  C   UNL     1       6.686   8.421  17.012  0.00  0.00    +0.000 A 
ENDROOT
BRANCH   1  13
ATOM      7  C   UNL     1       2.975   2.393  19.529  0.00  0.00    +0.000 C 
ATOM      8  O   UNL     1       2.255   1.604  18.932  0.00  0.00    +0.000 OA
ATOM      9  N   UNL     1       4.054   3.038  18.961  0.00  0.00    +0.000 N 
ATOM     10  C   UNL     1       4.327   2.876  17.529  0.00  0.00    +0.000 C 
ATOM     11  C   UNL     1       4.226   4.217  16.777  0.00  0.00    +0.000 C 
ATOM     12  N   UNL     1       5.000   5.266  17.458  0.00  0.00    +0.000 N 
ATOM     13  C   UNL     1       5.807   6.109  16.692  0.00  0.00    +0.000 C 
ATOM     14  O   UNL     1       5.818   6.079  15.461  0.00  0.00    +0.000 OA
ATOM     15  C   UNL     1       4.634   5.433  18.876  0.00  0.00    +0.000 C 
ATOM     16  C   UNL     1       4.808   4.104  19.629  0.00  0.00    +0.000 C 
BRANCH   7  17
ATOM     17  O   UNL     1       2.763   2.791  20.812  0.00  0.00    +0.000 OA
BRANCH  17  19
ATOM     18  C   UNL     1       1.077   4.449  20.504  0.00  0.00    +0.000 C 
ATOM     19  C   UNL     1       1.407   3.111  21.141  0.00  0.00    +0.000 C 
ENDBRANCH  17  19
ENDBRANCH   7  17
ENDBRANCH   1  13
BRANCH   4  20
ATOM     20  C   UNL     1       9.426   9.915  19.237  0.00  0.00    +0.000 C 
BRANCH  20  21
ATOM     21  S   UNL     1       9.998  11.217  18.080  0.00  0.00    +0.000 S 
BRANCH  21  22
ATOM     22  C   UNL     1       8.878  12.580  18.310  0.00  0.00    +0.000 A 
ATOM     23  C   UNL     1       7.925  13.011  17.384  0.00  0.00    +0.000 A 
ATOM     24  C   UNL     1       7.151  14.147  17.648  0.00  0.00    +0.000 A 
ATOM     25  C   UNL     1       7.319  14.855  18.838  0.00  0.00    +0.000 A 
ATOM     26 CL   UNL     1       6.386  16.265  19.139  0.00  0.00    +0.000 Cl
ATOM     27  C   UNL     1       8.253  14.429  19.777  0.00  0.00    +0.000 A 
ATOM     28  C   UNL     1       9.025  13.296  19.511  0.00  0.00    +0.000 A 
ENDBRANCH  21  22
ENDBRANCH  20  21
ENDBRANCH   4  20
TORSDOF 6
ENDMDL
MODEL 6
REMARK VINA RESULT:      -6.9      6.333      8.587
REMARK  Name = 
REMARK  7 active torsions:
REMARK  status: ('A' for Active; 'I' for Inactive)
REMARK    1  A    between atoms: C_1  and  C_2
REMARK    2  A    between atoms: C_2  and  O_3
REMARK    3  A    between atoms: O_3  and  C_4
REMARK    4  A    between atoms: C_10  and  C_12
REMARK    5  A    between atoms: C_15  and  C_16
REMARK    6  A    between atoms: C_16  and  S_17
REMARK    7  A    between atoms: S_17  and  C_18
REMARK                            x       y       z     vdW  Elec       q    Type
REMARK                         _______ _______ _______ _____ _____    ______ ____
ROOT
ATOM      1  C   UNL     1       1.618   7.786  20.365  0.00  0.00    +0.000 A 
ATOM      2  C   UNL     1       2.097   8.085  19.091  0.00  0.00    +0.000 A 
ATOM      3  C   UNL     1       2.445   7.063  18.209  0.00  0.00    +0.000 A 
ATOM      4  C   UNL     1       2.453   5.721  18.621  0.00  0.00    +0.000 A 
ATOM      5  C   UNL     1       2.027   5.430  19.928  0.00  0.00    +0.000 A 
ATOM      6  C   UNL     1       1.612   6.453  20.792  0.00  0.00    +0.000 A 
ENDROOT
BRANCH   1  13
ATOM      7  C   UNL     1      -2.619  12.534  19.952  0.00  0.00    +0.000 C 
ATOM      8  O   UNL     1      -2.908  13.419  20.747  0.00  0.00    +0.000 OA
ATOM      9  N   UNL     1      -1.417  11.859  19.949  0.00  0.00    +0.000 N 
ATOM     10  C   UNL     1      -0.437  12.113  21.010  0.00  0.00    +0.000 C 
ATOM     11  C   UNL     1      -0.162  10.848  21.844  0.00  0.00    +0.000 C 
ATOM     12  N   UNL     1       0.123   9.694  20.979  0.00  0.00    +0.000 N 
ATOM     13  C   UNL     1       1.192   8.858  21.306  0.00  0.00    +0.000 C 
ATOM     14  O   UNL     1       1.841   8.985  22.343  0.00  0.00    +0.000 OA
ATOM     15  C   UNL     1      -0.929   9.442  19.978  0.00  0.00    +0.000 C 
ATOM     16  C   UNL     1      -1.143  10.690  19.106  0.00  0.00    +0.000 C 
BRANCH   7  17
ATOM     17  O   UNL     1      -3.475  12.052  19.012  0.00  0.00    +0.000 OA
BRANCH  17  19
ATOM     18  C   UNL     1      -5.669  11.156  18.739  0.00  0.00    +0.000 C 
ATOM     19  C   UNL     1      -4.860  12.343  19.232  0.00  0.00    +0.000 C 
ENDBRANCH  17  19
ENDBRANCH   7  17
ENDBRANCH   1  13
BRANCH   4  20
ATOM     20  C   UNL     1       2.872   4.601  17.682  0.00  0.00    +0.000 C 
BRANCH  20  21
ATOM     21  S   UNL     1       4.432   3.793  18.208  0.00  0.00    +0.000 S 
BRANCH  21  22
ATOM     22  C   UNL     1       5.673   5.066  18.129  0.00  0.00    +0.000 A 
ATOM     23  C   UNL     1       6.719   5.234  19.039  0.00  0.00    +0.000 A 
ATOM     24  C   UNL     1       7.591   6.323  18.915  0.00  0.00    +0.000 A 
ATOM     25  C   UNL     1       7.428   7.244  17.880  0.00  0.00    +0.000 A 
ATOM     26 CL   UNL     1       8.484   8.592  17.754  0.00  0.00    +0.000 Cl
ATOM     27  C   UNL     1       6.401   7.080  16.956  0.00  0.00    +0.000 A 
ATOM     28  C   UNL     1       5.532   5.994  17.083  0.00  0.00    +0.000 A 
ENDBRANCH  21  22
ENDBRANCH  20  21
ENDBRANCH   4  20
TORSDOF 6
ENDMDL
MODEL 7
REMARK VINA RESULT:      -6.9      1.714      1.952
REMARK  Name = 
REMARK  7 active torsions:
REMARK  status: ('A' for Active; 'I' for Inactive)
REMARK    1  A    between atoms: C_1  and  C_2
REMARK    2  A    between atoms: C_2  and  O_3
REMARK    3  A    between atoms: O_3  and  C_4
REMARK    4  A    between atoms: C_10  and  C_12
REMARK    5  A    between atoms: C_15  and  C_16
REMARK    6  A    between atoms: C_16  and  S_17
REMARK    7  A    between atoms: S_17  and  C_18
REMARK                            x       y       z     vdW  Elec       q    Type
REMARK                         _______ _______ _______ _____ _____    ______ ____
ROOT
ATOM      1  C   UNL     1       7.330   6.900  17.344  0.00  0.00    +0.000 A 
ATOM      2  C   UNL     1       7.221   8.227  16.929  0.00  0.00    +0.000 A 
ATOM      3  C   UNL     1       7.901   9.237  17.607  0.00  0.00    +0.000 A 
ATOM      4  C   UNL     1       8.598   8.970  18.797  0.00  0.00    +0.000 A 
ATOM      5  C   UNL     1       8.652   7.639  19.245  0.00  0.00    +0.000 A 
ATOM      6  C   UNL     1       8.025   6.613  18.524  0.00  0.00    +0.000 A 
ENDROOT
BRANCH   1  13
ATOM      7  C   UNL     1       2.119   3.411  18.503  0.00  0.00    +0.000 C 
ATOM      8  O   UNL     1       1.623   2.484  17.878  0.00  0.00    +0.000 OA
ATOM      9  N   UNL     1       3.445   3.781  18.416  0.00  0.00    +0.000 N 
ATOM     10  C   UNL     1       4.324   3.116  17.449  0.00  0.00    +0.000 C 
ATOM     11  C   UNL     1       4.871   4.107  16.404  0.00  0.00    +0.000 C 
ATOM     12  N   UNL     1       5.427   5.305  17.050  0.00  0.00    +0.000 N 
ATOM     13  C   UNL     1       6.655   5.799  16.605  0.00  0.00    +0.000 C 
ATOM     14  O   UNL     1       7.242   5.336  15.628  0.00  0.00    +0.000 OA
ATOM     15  C   UNL     1       4.476   5.974  17.957  0.00  0.00    +0.000 C 
ATOM     16  C   UNL     1       3.993   4.992  19.037  0.00  0.00    +0.000 C 
BRANCH   7  17
ATOM     17  O   UNL     1       1.412   4.243  19.314  0.00  0.00    +0.000 OA
BRANCH  17  19
ATOM     18  C   UNL     1       1.796   3.035  21.334  0.00  0.00    +0.000 C 
ATOM     19  C   UNL     1       0.738   3.610  20.409  0.00  0.00    +0.000 C 
ENDBRANCH  17  19
ENDBRANCH   7  17
ENDBRANCH   1  13
BRANCH   4  20
ATOM     20  C   UNL     1       9.307  10.070  19.569  0.00  0.00    +0.000 C 
BRANCH  20  21
ATOM     21  S   UNL     1       9.299  11.671  18.674  0.00  0.00    +0.000 S 
BRANCH  21  22
ATOM     22  C   UNL     1       9.709  12.897  19.896  0.00  0.00    +0.000 A 
ATOM     23  C   UNL     1       9.034  13.096  21.103  0.00  0.00    +0.000 A 
ATOM     24  C   UNL     1       9.404  14.147  21.951  0.00  0.00    +0.000 A 
ATOM     25  C   UNL     1      10.451  15.000  21.604  0.00  0.00    +0.000 A 
ATOM     26 CL   UNL     1      10.876  16.305  22.636  0.00  0.00    +0.000 Cl
ATOM     27  C   UNL     1      11.143  14.806  20.412  0.00  0.00    +0.000 A 
ATOM     28  C   UNL     1      10.772  13.757  19.567  0.00  0.00    +0.000 A 
ENDBRANCH  21  22
ENDBRANCH  20  21
ENDBRANCH   4  20
TORSDOF 6
ENDMDL
MODEL 8
REMARK VINA RESULT:      -6.9      6.453     10.177
REMARK  Name = 
REMARK  7 active torsions:
REMARK  status: ('A' for Active; 'I' for Inactive)
REMARK    1  A    between atoms: C_1  and  C_2
REMARK    2  A    between atoms: C_2  and  O_3
REMARK    3  A    between atoms: O_3  and  C_4
REMARK    4  A    between atoms: C_10  and  C_12
REMARK    5  A    between atoms: C_15  and  C_16
REMARK    6  A    between atoms: C_16  and  S_17
REMARK    7  A    between atoms: S_17  and  C_18
REMARK                            x       y       z     vdW  Elec       q    Type
REMARK                         _______ _______ _______ _____ _____    ______ ____
ROOT
ATOM      1  C   UNL     1       0.711  10.057  18.952  0.00  0.00    +0.000 A 
ATOM      2  C   UNL     1       1.375   9.404  17.915  0.00  0.00    +0.000 A 
ATOM      3  C   UNL     1       2.004   8.181  18.139  0.00  0.00    +0.000 A 
ATOM      4  C   UNL     1       2.105   7.643  19.432  0.00  0.00    +0.000 A 
ATOM      5  C   UNL     1       1.486   8.337  20.485  0.00  0.00    +0.000 A 
ATOM      6  C   UNL     1       0.794   9.533  20.247  0.00  0.00    +0.000 A 
ENDROOT
BRANCH   1  13
ATOM      7  C   UNL     1       2.492  16.177  19.160  0.00  0.00    +0.000 C 
ATOM      8  O   UNL     1       1.845  17.204  19.001  0.00  0.00    +0.000 OA
ATOM      9  N   UNL     1       1.945  14.968  19.533  0.00  0.00    +0.000 N 
ATOM     10  C   UNL     1       0.489  14.834  19.656  0.00  0.00    +0.000 C 
ATOM     11  C   UNL     1      -0.072  13.803  18.659  0.00  0.00    +0.000 C 
ATOM     12  N   UNL     1       0.688  12.546  18.712  0.00  0.00    +0.000 N 
ATOM     13  C   UNL     1      -0.012  11.338  18.725  0.00  0.00    +0.000 C 
ATOM     14  O   UNL     1      -1.233  11.277  18.590  0.00  0.00    +0.000 OA
ATOM     15  C   UNL     1       2.137  12.731  18.512  0.00  0.00    +0.000 C 
ATOM     16  C   UNL     1       2.697  13.708  19.558  0.00  0.00    +0.000 C 
BRANCH   7  17
ATOM     17  O   UNL     1       3.827  16.078  18.921  0.00  0.00    +0.000 OA
BRANCH  17  19
ATOM     18  C   UNL     1       4.944  16.476  20.991  0.00  0.00    +0.000 C 
ATOM     19  C   UNL     1       4.648  17.030  19.609  0.00  0.00    +0.000 C 
ENDBRANCH  17  19
ENDBRANCH   7  17
ENDBRANCH   1  13
BRANCH   4  20
ATOM     20  C   UNL     1       2.826   6.331  19.696  0.00  0.00    +0.000 C 
BRANCH  20  21
ATOM     21  S   UNL     1       2.352   5.020  18.505  0.00  0.00    +0.000 S 
BRANCH  21  22
ATOM     22  C   UNL     1       3.714   4.902  17.366  0.00  0.00    +0.000 A 
ATOM     23  C   UNL     1       4.249   3.713  16.864  0.00  0.00    +0.000 A 
ATOM     24  C   UNL     1       5.374   3.744  16.031  0.00  0.00    +0.000 A 
ATOM     25  C   UNL     1       5.966   4.960  15.690  0.00  0.00    +0.000 A 
ATOM     26 CL   UNL     1       7.364   4.986  14.692  0.00  0.00    +0.000 Cl
ATOM     27  C   UNL     1       5.435   6.153  16.169  0.00  0.00    +0.000 A 
ATOM     28  C   UNL     1       4.313   6.119  17.001  0.00  0.00    +0.000 A 
ENDBRANCH  21  22
ENDBRANCH  20  21
ENDBRANCH   4  20
TORSDOF 6
ENDMDL
MODEL 9
REMARK VINA RESULT:      -6.9      6.736      9.319
REMARK  Name = 
REMARK  7 active torsions:
REMARK  status: ('A' for Active; 'I' for Inactive)
REMARK    1  A    between atoms: C_1  and  C_2
REMARK    2  A    between atoms: C_2  and  O_3
REMARK    3  A    between atoms: O_3  and  C_4
REMARK    4  A    between atoms: C_10  and  C_12
REMARK    5  A    between atoms: C_15  and  C_16
REMARK    6  A    between atoms: C_16  and  S_17
REMARK    7  A    between atoms: S_17  and  C_18
REMARK                            x       y       z     vdW  Elec       q    Type
REMARK                         _______ _______ _______ _____ _____    ______ ____
ROOT
ATOM      1  C   UNL     1       1.573   8.002  20.548  0.00  0.00    +0.000 A 
ATOM      2  C   UNL     1       2.115   8.232  19.284  0.00  0.00    +0.000 A 
ATOM      3  C   UNL     1       2.491   7.164  18.472  0.00  0.00    +0.000 A 
ATOM      4  C   UNL     1       2.464   5.844  18.951  0.00  0.00    +0.000 A 
ATOM      5  C   UNL     1       1.974   5.623  20.249  0.00  0.00    +0.000 A 
ATOM      6  C   UNL     1       1.532   6.693  21.041  0.00  0.00    +0.000 A 
ENDROOT
BRANCH   1  13
ATOM      7  C   UNL     1      -2.734  12.642  19.777  0.00  0.00    +0.000 C 
ATOM      8  O   UNL     1      -3.048  13.570  20.510  0.00  0.00    +0.000 OA
ATOM      9  N   UNL     1      -1.522  11.988  19.833  0.00  0.00    +0.000 N 
ATOM     10  C   UNL     1      -0.561  12.327  20.888  0.00  0.00    +0.000 C 
ATOM     11  C   UNL     1      -0.277  11.122  21.805  0.00  0.00    +0.000 C 
ATOM     12  N   UNL     1       0.039   9.920  21.019  0.00  0.00    +0.000 N 
ATOM     13  C   UNL     1       1.117   9.125  21.412  0.00  0.00    +0.000 C 
ATOM     14  O   UNL     1       1.749   9.328  22.448  0.00  0.00    +0.000 OA
ATOM     15  C   UNL     1      -0.995   9.587  20.022  0.00  0.00    +0.000 C 
ATOM     16  C   UNL     1      -1.217  10.773  19.070  0.00  0.00    +0.000 C 
BRANCH   7  17
ATOM     17  O   UNL     1      -3.569  12.086  18.859  0.00  0.00    +0.000 OA
BRANCH  17  19
ATOM     18  C   UNL     1      -5.809  12.672  18.284  0.00  0.00    +0.000 C 
ATOM     19  C   UNL     1      -4.930  11.931  19.277  0.00  0.00    +0.000 C 
ENDBRANCH  17  19
ENDBRANCH   7  17
ENDBRANCH   1  13
BRANCH   4  20
ATOM     20  C   UNL     1       2.913   4.674  18.090  0.00  0.00    +0.000 C 
BRANCH  20  21
ATOM     21  S   UNL     1       4.601   4.099  18.515  0.00  0.00    +0.000 S 
BRANCH  21  22
ATOM     22  C   UNL     1       5.567   4.339  17.040  0.00  0.00    +0.000 A 
ATOM     23  C   UNL     1       6.919   4.689  17.005  0.00  0.00    +0.000 A 
ATOM     24  C   UNL     1       7.553   4.925  15.780  0.00  0.00    +0.000 A 
ATOM     25  C   UNL     1       6.845   4.808  14.584  0.00  0.00    +0.000 A 
ATOM     26 CL   UNL     1       7.624   5.130  13.088  0.00  0.00    +0.000 Cl
ATOM     27  C   UNL     1       5.502   4.444  14.602  0.00  0.00    +0.000 A 
ATOM     28  C   UNL     1       4.871   4.210  15.826  0.00  0.00    +0.000 A 
ENDBRANCH  21  22
ENDBRANCH  20  21
ENDBRANCH   4  20
TORSDOF 6
ENDMDL
