MODEL 1
REMARK VINA RESULT:      -7.4      0.000      0.000
REMARK  Name = 
REMARK  6 active torsions:
REMARK  status: ('A' for Active; 'I' for Inactive)
REMARK    1  A    between atoms: C_1  and  O_2
REMARK    2  A    between atoms: O_2  and  C_3
REMARK    3  A    between atoms: C_8  and  N_9
REMARK    4  A    between atoms: N_12  and  C_13
REMARK    5  A    between atoms: C_13  and  C_14
REMARK    6  A    between atoms: C_14  and  N_15
REMARK                            x       y       z     vdW  Elec       q    Type
REMARK                         _______ _______ _______ _____ _____    ______ ____
ROOT
ATOM      1  C   UNL     1       1.341   8.579  20.698  0.00  0.00    +0.000 C 
ENDROOT
BRANCH   1   5
ATOM      2  N   UNL     1      -0.619  11.234  22.241  0.00  0.00    +0.000 N 
ATOM      3  C   UNL     1      -0.069  10.098  22.988  0.00  0.00    +0.000 C 
ATOM      4  C   UNL     1      -0.525   8.788  22.316  0.00  0.00    +0.000 C 
ATOM      5  N   UNL     1      -0.124   8.669  20.886  0.00  0.00    +0.000 NA
ATOM      6  C   UNL     1      -0.667   9.849  20.170  0.00  0.00    +0.000 C 
ATOM      7  C   UNL     1      -0.328  11.227  20.797  0.00  0.00    +0.000 C 
BRANCH   2  13
ATOM      8  C   UNL     1      -0.919  13.578  23.005  0.00  0.00    +0.000 A 
ATOM      9  C   UNL     1      -1.736  14.529  23.643  0.00  0.00    +0.000 A 
ATOM     10  C   UNL     1      -3.007  14.189  24.104  0.00  0.00    +0.000 A 
ATOM     11  C   UNL     1      -3.466  12.891  23.935  0.00  0.00    +0.000 A 
ATOM     12  C   UNL     1      -2.657  11.943  23.308  0.00  0.00    +0.000 A 
ATOM     13  C   UNL     1      -1.363  12.241  22.834  0.00  0.00    +0.000 A 
BRANCH   8  15
ATOM     14  C   UNL     1       0.500  14.766  21.519  0.00  0.00    +0.000 C 
ATOM     15  O   UNL     1       0.373  13.896  22.641  0.00  0.00    +0.000 OA
ENDBRANCH   8  15
ENDBRANCH   2  13
ENDBRANCH   1   5
BRANCH   1  16
ATOM     16  C   UNL     1       1.691   8.350  19.224  0.00  0.00    +0.000 C 
BRANCH  16  17
ATOM     17  N   UNL     1       2.679   7.327  18.951  0.00  0.00    +0.000 N 
ATOM     18  C   UNL     1       3.416   7.453  17.788  0.00  0.00    +0.000 C 
ATOM     19  O   UNL     1       3.056   8.096  16.806  0.00  0.00    +0.000 OA
ATOM     20  C   UNL     1       4.765   6.795  17.852  0.00  0.00    +0.000 C 
ATOM     21  C   UNL     1       4.686   5.348  18.356  0.00  0.00    +0.000 C 
ATOM     22  C   UNL     1       4.042   4.411  17.309  0.00  0.00    +0.000 C 
ATOM     23  C   UNL     1       4.910   4.256  16.057  0.00  0.00    +0.000 C 
ATOM     24  N   UNL     1       6.264   3.816  16.386  0.00  0.00    +0.000 NA
ATOM     25  C   UNL     1       6.935   4.679  17.352  0.00  0.00    +0.000 C 
ATOM     26  C   UNL     1       6.116   4.829  18.634  0.00  0.00    +0.000 C 
ATOM     27  C   UNL     1       3.892   5.325  19.669  0.00  0.00    +0.000 C 
ATOM     28  C   UNL     1       2.616   6.137  19.650  0.00  0.00    +0.000 C 
ATOM     29  O   UNL     1       1.630   5.772  20.288  0.00  0.00    +0.000 OA
ATOM     30  H   UNL     1       6.820   3.775  15.531  0.00  0.00    +0.000 HD
ENDBRANCH  16  17
ENDBRANCH   1  16
TORSDOF 5
ENDMDL
MODEL 2
REMARK VINA RESULT:      -7.2      2.967      9.798
REMARK  Name = 
REMARK  6 active torsions:
REMARK  status: ('A' for Active; 'I' for Inactive)
REMARK    1  A    between atoms: C_1  and  O_2
REMARK    2  A    between atoms: O_2  and  C_3
REMARK    3  A    between atoms: C_8  and  N_9
REMARK    4  A    between atoms: N_12  and  C_13
REMARK    5  A    between atoms: C_13  and  C_14
REMARK    6  A    between atoms: C_14  and  N_15
REMARK                            x       y       z     vdW  Elec       q    Type
REMARK                         _______ _______ _______ _____ _____    ______ ____
ROOT
ATOM      1  C   UNL     1       2.344   6.079  19.387  0.00  0.00    +0.000 C 
ENDROOT
BRANCH   1   5
ATOM      2  N   UNL     1       4.521   5.181  16.607  0.00  0.00    +0.000 N 
ATOM      3  C   UNL     1       3.447   4.314  17.104  0.00  0.00    +0.000 C 
ATOM      4  C   UNL     1       3.635   4.106  18.620  0.00  0.00    +0.000 C 
ATOM      5  N   UNL     1       3.643   5.370  19.409  0.00  0.00    +0.000 NA
ATOM      6  C   UNL     1       4.715   6.233  18.857  0.00  0.00    +0.000 C 
ATOM      7  C   UNL     1       4.668   6.460  17.323  0.00  0.00    +0.000 C 
BRANCH   2  13
ATOM      8  C   UNL     1       6.760   4.935  15.561  0.00  0.00    +0.000 A 
ATOM      9  C   UNL     1       7.514   4.583  14.427  0.00  0.00    +0.000 A 
ATOM     10  C   UNL     1       6.894   4.108  13.272  0.00  0.00    +0.000 A 
ATOM     11  C   UNL     1       5.513   3.988  13.243  0.00  0.00    +0.000 A 
ATOM     12  C   UNL     1       4.759   4.342  14.363  0.00  0.00    +0.000 A 
ATOM     13  C   UNL     1       5.344   4.835  15.549  0.00  0.00    +0.000 A 
BRANCH   8  15
ATOM     14  C   UNL     1       7.761   4.581  17.684  0.00  0.00    +0.000 C 
ATOM     15  O   UNL     1       7.372   5.496  16.662  0.00  0.00    +0.000 OA
ENDBRANCH   8  15
ENDBRANCH   2  13
ENDBRANCH   1   5
BRANCH   1  16
ATOM     16  C   UNL     1       2.384   7.322  20.282  0.00  0.00    +0.000 C 
BRANCH  16  17
ATOM     17  N   UNL     1       1.442   8.373  19.960  0.00  0.00    +0.000 N 
ATOM     18  C   UNL     1       1.589   9.002  18.738  0.00  0.00    +0.000 C 
ATOM     19  O   UNL     1       2.636   9.035  18.096  0.00  0.00    +0.000 OA
ATOM     20  C   UNL     1       0.313   9.585  18.199  0.00  0.00    +0.000 C 
ATOM     21  C   UNL     1      -0.415  10.453  19.234  0.00  0.00    +0.000 C 
ATOM     22  C   UNL     1       0.332  11.780  19.495  0.00  0.00    +0.000 C 
ATOM     23  C   UNL     1       0.333  12.697  18.269  0.00  0.00    +0.000 C 
ATOM     24  N   UNL     1      -1.020  12.950  17.778  0.00  0.00    +0.000 NA
ATOM     25  C   UNL     1      -1.767  11.730  17.486  0.00  0.00    +0.000 C 
ATOM     26  C   UNL     1      -1.823  10.804  18.701  0.00  0.00    +0.000 C 
ATOM     27  C   UNL     1      -0.569   9.649  20.532  0.00  0.00    +0.000 C 
ATOM     28  C   UNL     1       0.681   8.920  20.975  0.00  0.00    +0.000 C 
ATOM     29  O   UNL     1       0.933   8.775  22.170  0.00  0.00    +0.000 OA
ATOM     30  H   UNL     1      -0.969  13.520  16.934  0.00  0.00    +0.000 HD
ENDBRANCH  16  17
ENDBRANCH   1  16
TORSDOF 5
ENDMDL
MODEL 3
REMARK VINA RESULT:      -7.1      1.958      3.175
REMARK  Name = 
REMARK  6 active torsions:
REMARK  status: ('A' for Active; 'I' for Inactive)
REMARK    1  A    between atoms: C_1  and  O_2
REMARK    2  A    between atoms: O_2  and  C_3
REMARK    3  A    between atoms: C_8  and  N_9
REMARK    4  A    between atoms: N_12  and  C_13
REMARK    5  A    between atoms: C_13  and  C_14
REMARK    6  A    between atoms: C_14  and  N_15
REMARK                            x       y       z     vdW  Elec       q    Type
REMARK                         _______ _______ _______ _____ _____    ______ ____
ROOT
ATOM      1  C   UNL     1       1.197   8.545  18.227  0.00  0.00    +0.000 C 
ENDROOT
BRANCH   1   5
ATOM      2  N   UNL     1      -0.282  11.285  20.120  0.00  0.00    +0.000 N 
ATOM      3  C   UNL     1      -1.072  10.300  19.372  0.00  0.00    +0.000 C 
ATOM      4  C   UNL     1      -0.569  10.257  17.916  0.00  0.00    +0.000 C 
ATOM      5  N   UNL     1       0.877   9.920  17.784  0.00  0.00    +0.000 NA
ATOM      6  C   UNL     1       1.640  10.912  18.579  0.00  0.00    +0.000 C 
ATOM      7  C   UNL     1       1.176  11.093  20.048  0.00  0.00    +0.000 C 
BRANCH   2  13
ATOM      8  C   UNL     1      -0.792  12.454  22.251  0.00  0.00    +0.000 A 
ATOM      9  C   UNL     1      -1.422  13.533  22.898  0.00  0.00    +0.000 A 
ATOM     10  C   UNL     1      -2.101  14.508  22.170  0.00  0.00    +0.000 A 
ATOM     11  C   UNL     1      -2.160  14.407  20.788  0.00  0.00    +0.000 A 
ATOM     12  C   UNL     1      -1.541  13.336  20.141  0.00  0.00    +0.000 A 
ATOM     13  C   UNL     1      -0.850  12.323  20.838  0.00  0.00    +0.000 A 
BRANCH   8  15
ATOM     14  C   UNL     1      -1.025  10.301  23.222  0.00  0.00    +0.000 C 
ATOM     15  O   UNL     1      -0.206  11.443  22.984  0.00  0.00    +0.000 OA
ENDBRANCH   8  15
ENDBRANCH   2  13
ENDBRANCH   1   5
BRANCH   1  16
ATOM     16  C   UNL     1       2.707   8.290  18.170  0.00  0.00    +0.000 C 
BRANCH  16  17
ATOM     17  N   UNL     1       3.118   6.905  18.077  0.00  0.00    +0.000 N 
ATOM     18  C   UNL     1       2.584   6.022  18.998  0.00  0.00    +0.000 C 
ATOM     19  O   UNL     1       2.127   6.352  20.090  0.00  0.00    +0.000 OA
ATOM     20  C   UNL     1       2.525   4.602  18.513  0.00  0.00    +0.000 C 
ATOM     21  C   UNL     1       3.865   4.125  17.937  0.00  0.00    +0.000 C 
ATOM     22  C   UNL     1       4.926   3.929  19.044  0.00  0.00    +0.000 C 
ATOM     23  C   UNL     1       4.571   2.780  19.991  0.00  0.00    +0.000 C 
ATOM     24  N   UNL     1       4.336   1.532  19.268  0.00  0.00    +0.000 NA
ATOM     25  C   UNL     1       3.321   1.649  18.225  0.00  0.00    +0.000 C 
ATOM     26  C   UNL     1       3.660   2.763  17.236  0.00  0.00    +0.000 C 
ATOM     27  C   UNL     1       4.346   5.145  16.896  0.00  0.00    +0.000 C 
ATOM     28  C   UNL     1       4.237   6.590  17.330  0.00  0.00    +0.000 C 
ATOM     29  O   UNL     1       5.066   7.421  16.962  0.00  0.00    +0.000 OA
ATOM     30  H   UNL     1       4.053   0.809  19.930  0.00  0.00    +0.000 HD
ENDBRANCH  16  17
ENDBRANCH   1  16
TORSDOF 5
ENDMDL
MODEL 4
REMARK VINA RESULT:      -7.1      0.597      1.143
REMARK  Name = 
REMARK  6 active torsions:
REMARK  status: ('A' for Active; 'I' for Inactive)
REMARK    1  A    between atoms: C_1  and  O_2
REMARK    2  A    between atoms: O_2  and  C_3
REMARK    3  A    between atoms: C_8  and  N_9
REMARK    4  A    between atoms: N_12  and  C_13
REMARK    5  A    between atoms: C_13  and  C_14
REMARK    6  A    between atoms: C_14  and  N_15
REMARK                            x       y       z     vdW  Elec       q    Type
REMARK                         _______ _______ _______ _____ _____    ______ ____
ROOT
ATOM      1  C   UNL     1       1.018   8.208  20.942  0.00  0.00    +0.000 C 
ENDROOT
BRANCH   1   5
ATOM      2  N   UNL     1      -0.837  11.004  22.364  0.00  0.00    +0.000 N 
ATOM      3  C   UNL     1      -0.426  10.939  20.957  0.00  0.00    +0.000 C 
ATOM      4  C   UNL     1       1.093  10.686  20.891  0.00  0.00    +0.000 C 
ATOM      5  N   UNL     1       1.530   9.440  21.582  0.00  0.00    +0.000 NA
ATOM      6  C   UNL     1       1.068   9.525  22.989  0.00  0.00    +0.000 C 
ATOM      7  C   UNL     1      -0.437   9.845  23.181  0.00  0.00    +0.000 C 
BRANCH   2  13
ATOM      8  C   UNL     1      -1.054  13.398  22.987  0.00  0.00    +0.000 A 
ATOM      9  C   UNL     1      -1.835  14.413  23.569  0.00  0.00    +0.000 A 
ATOM     10  C   UNL     1      -3.113  14.144  24.055  0.00  0.00    +0.000 A 
ATOM     11  C   UNL     1      -3.616  12.855  23.967  0.00  0.00    +0.000 A 
ATOM     12  C   UNL     1      -2.844  11.843  23.395  0.00  0.00    +0.000 A 
ATOM     13  C   UNL     1      -1.543  12.068  22.898  0.00  0.00    +0.000 A 
BRANCH   8  15
ATOM     14  C   UNL     1       0.517  14.987  22.185  0.00  0.00    +0.000 C 
ATOM     15  O   UNL     1       0.245  13.651  22.598  0.00  0.00    +0.000 OA
ENDBRANCH   8  15
ENDBRANCH   2  13
ENDBRANCH   1   5
BRANCH   1  16
ATOM     16  C   UNL     1       1.450   8.134  19.474  0.00  0.00    +0.000 C 
BRANCH  16  17
ATOM     17  N   UNL     1       2.470   7.158  19.156  0.00  0.00    +0.000 N 
ATOM     18  C   UNL     1       3.212   7.369  18.008  0.00  0.00    +0.000 C 
ATOM     19  O   UNL     1       2.840   8.054  17.059  0.00  0.00    +0.000 OA
ATOM     20  C   UNL     1       4.580   6.749  18.048  0.00  0.00    +0.000 C 
ATOM     21  C   UNL     1       4.541   5.275  18.472  0.00  0.00    +0.000 C 
ATOM     22  C   UNL     1       3.933   4.378  17.369  0.00  0.00    +0.000 C 
ATOM     23  C   UNL     1       4.815   4.317  16.119  0.00  0.00    +0.000 C 
ATOM     24  N   UNL     1       6.179   3.900  16.435  0.00  0.00    +0.000 NA
ATOM     25  C   UNL     1       6.817   4.729  17.454  0.00  0.00    +0.000 C 
ATOM     26  C   UNL     1       5.983   4.784  18.734  0.00  0.00    +0.000 C 
ATOM     27  C   UNL     1       3.738   5.156  19.774  0.00  0.00    +0.000 C 
ATOM     28  C   UNL     1       2.438   5.930  19.788  0.00  0.00    +0.000 C 
ATOM     29  O   UNL     1       1.459   5.501  20.396  0.00  0.00    +0.000 OA
ATOM     30  H   UNL     1       6.742   3.923  15.585  0.00  0.00    +0.000 HD
ENDBRANCH  16  17
ENDBRANCH   1  16
TORSDOF 5
ENDMDL
MODEL 5
REMARK VINA RESULT:      -7.1      2.949      8.670
REMARK  Name = 
REMARK  6 active torsions:
REMARK  status: ('A' for Active; 'I' for Inactive)
REMARK    1  A    between atoms: C_1  and  O_2
REMARK    2  A    between atoms: O_2  and  C_3
REMARK    3  A    between atoms: C_8  and  N_9
REMARK    4  A    between atoms: N_12  and  C_13
REMARK    5  A    between atoms: C_13  and  C_14
REMARK    6  A    between atoms: C_14  and  N_15
REMARK                            x       y       z     vdW  Elec       q    Type
REMARK                         _______ _______ _______ _____ _____    ______ ____
ROOT
ATOM      1  C   UNL     1       0.111  11.072  21.570  0.00  0.00    +0.000 C 
ENDROOT
BRANCH   1   5
ATOM      2  N   UNL     1       1.749   8.353  19.781  0.00  0.00    +0.000 N 
ATOM      3  C   UNL     1       1.311   9.596  19.136  0.00  0.00    +0.000 C 
ATOM      4  C   UNL     1      -0.182   9.822  19.449  0.00  0.00    +0.000 C 
ATOM      5  N   UNL     1      -0.491   9.895  20.905  0.00  0.00    +0.000 NA
ATOM      6  C   UNL     1      -0.004   8.641  21.528  0.00  0.00    +0.000 C 
ATOM      7  C   UNL     1       1.472   8.272  21.226  0.00  0.00    +0.000 C 
BRANCH   2  13
ATOM      8  C   UNL     1       2.283   5.951  19.445  0.00  0.00    +0.000 A 
ATOM      9  C   UNL     1       2.973   4.975  18.703  0.00  0.00    +0.000 A 
ATOM     10  C   UNL     1       3.743   5.328  17.596  0.00  0.00    +0.000 A 
ATOM     11  C   UNL     1       3.833   6.662  17.229  0.00  0.00    +0.000 A 
ATOM     12  C   UNL     1       3.156   7.635  17.965  0.00  0.00    +0.000 A 
ATOM     13  C   UNL     1       2.372   7.324  19.096  0.00  0.00    +0.000 A 
BRANCH   8  15
ATOM     14  C   UNL     1       1.715   4.241  20.990  0.00  0.00    +0.000 C 
ATOM     15  O   UNL     1       1.603   5.605  20.594  0.00  0.00    +0.000 OA
ENDBRANCH   8  15
ENDBRANCH   2  13
ENDBRANCH   1   5
BRANCH   1  16
ATOM     16  C   UNL     1      -0.334  12.371  20.892  0.00  0.00    +0.000 C 
BRANCH  16  17
ATOM     17  N   UNL     1       0.699  13.128  20.216  0.00  0.00    +0.000 N 
ATOM     18  C   UNL     1       1.550  13.881  21.004  0.00  0.00    +0.000 C 
ATOM     19  O   UNL     1       1.279  14.276  22.135  0.00  0.00    +0.000 OA
ATOM     20  C   UNL     1       2.899  14.115  20.387  0.00  0.00    +0.000 C 
ATOM     21  C   UNL     1       2.801  14.635  18.947  0.00  0.00    +0.000 C 
ATOM     22  C   UNL     1       2.289  16.093  18.898  0.00  0.00    +0.000 C 
ATOM     23  C   UNL     1       3.285  17.078  19.515  0.00  0.00    +0.000 C 
ATOM     24  N   UNL     1       4.608  16.970  18.902  0.00  0.00    +0.000 NA
ATOM     25  C   UNL     1       5.156  15.618  18.943  0.00  0.00    +0.000 C 
ATOM     26  C   UNL     1       4.205  14.608  18.301  0.00  0.00    +0.000 C 
ATOM     27  C   UNL     1       1.876  13.706  18.148  0.00  0.00    +0.000 C 
ATOM     28  C   UNL     1       0.591  13.334  18.854  0.00  0.00    +0.000 C 
ATOM     29  O   UNL     1      -0.447  13.161  18.219  0.00  0.00    +0.000 OA
ATOM     30  H   UNL     1       5.250  17.605  19.377  0.00  0.00    +0.000 HD
ENDBRANCH  16  17
ENDBRANCH   1  16
TORSDOF 5
ENDMDL
MODEL 6
REMARK VINA RESULT:      -7.0      2.924      9.298
REMARK  Name = 
REMARK  6 active torsions:
REMARK  status: ('A' for Active; 'I' for Inactive)
REMARK    1  A    between atoms: C_1  and  O_2
REMARK    2  A    between atoms: O_2  and  C_3
REMARK    3  A    between atoms: C_8  and  N_9
REMARK    4  A    between atoms: N_12  and  C_13
REMARK    5  A    between atoms: C_13  and  C_14
REMARK    6  A    between atoms: C_14  and  N_15
REMARK                            x       y       z     vdW  Elec       q    Type
REMARK                         _______ _______ _______ _____ _____    ______ ____
ROOT
ATOM      1  C   UNL     1       1.869   6.158  20.486  0.00  0.00    +0.000 C 
ENDROOT
BRANCH   1   5
ATOM      2  N   UNL     1       4.331   5.380  17.916  0.00  0.00    +0.000 N 
ATOM      3  C   UNL     1       3.088   6.111  17.648  0.00  0.00    +0.000 C 
ATOM      4  C   UNL     1       1.898   5.280  18.168  0.00  0.00    +0.000 C 
ATOM      5  N   UNL     1       1.970   4.961  19.622  0.00  0.00    +0.000 NA
ATOM      6  C   UNL     1       3.252   4.256  19.860  0.00  0.00    +0.000 C 
ATOM      7  C   UNL     1       4.519   4.967  19.317  0.00  0.00    +0.000 C 
BRANCH   2  13
ATOM      8  C   UNL     1       6.494   5.775  16.760  0.00  0.00    +0.000 A 
ATOM      9  C   UNL     1       7.370   5.424  15.717  0.00  0.00    +0.000 A 
ATOM     10  C   UNL     1       7.063   4.382  14.842  0.00  0.00    +0.000 A 
ATOM     11  C   UNL     1       5.873   3.689  15.003  0.00  0.00    +0.000 A 
ATOM     12  C   UNL     1       4.998   4.037  16.033  0.00  0.00    +0.000 A 
ATOM     13  C   UNL     1       5.264   5.088  16.935  0.00  0.00    +0.000 A 
BRANCH   8  15
ATOM     14  C   UNL     1       7.875   6.735  18.434  0.00  0.00    +0.000 C 
ATOM     15  O   UNL     1       6.758   6.868  17.559  0.00  0.00    +0.000 OA
ENDBRANCH   8  15
ENDBRANCH   2  13
ENDBRANCH   1   5
BRANCH   1  16
ATOM     16  C   UNL     1       2.374   7.406  19.754  0.00  0.00    +0.000 C 
BRANCH  16  17
ATOM     17  N   UNL     1       1.456   8.524  19.686  0.00  0.00    +0.000 N 
ATOM     18  C   UNL     1       1.388   9.215  18.491  0.00  0.00    +0.000 C 
ATOM     19  O   UNL     1       2.280   9.229  17.646  0.00  0.00    +0.000 OA
ATOM     20  C   UNL     1       0.070   9.898  18.259  0.00  0.00    +0.000 C 
ATOM     21  C   UNL     1      -0.370  10.741  19.463  0.00  0.00    +0.000 C 
ATOM     22  C   UNL     1       0.501  12.008  19.624  0.00  0.00    +0.000 C 
ATOM     23  C   UNL     1       0.308  12.995  18.469  0.00  0.00    +0.000 C 
ATOM     24  N   UNL     1      -1.097  13.349  18.285  0.00  0.00    +0.000 NA
ATOM     25  C   UNL     1      -1.968  12.191  18.100  0.00  0.00    +0.000 C 
ATOM     26  C   UNL     1      -1.832  11.199  19.255  0.00  0.00    +0.000 C 
ATOM     27  C   UNL     1      -0.304   9.871  20.726  0.00  0.00    +0.000 C 
ATOM     28  C   UNL     1       0.959   9.050  20.863  0.00  0.00    +0.000 C 
ATOM     29  O   UNL     1       1.443   8.822  21.970  0.00  0.00    +0.000 OA
ATOM     30  H   UNL     1      -1.185  13.964  17.476  0.00  0.00    +0.000 HD
ENDBRANCH  16  17
ENDBRANCH   1  16
TORSDOF 5
ENDMDL
MODEL 7
REMARK VINA RESULT:      -7.0      1.599      2.674
REMARK  Name = 
REMARK  6 active torsions:
REMARK  status: ('A' for Active; 'I' for Inactive)
REMARK    1  A    between atoms: C_1  and  O_2
REMARK    2  A    between atoms: O_2  and  C_3
REMARK    3  A    between atoms: C_8  and  N_9
REMARK    4  A    between atoms: N_12  and  C_13
REMARK    5  A    between atoms: C_13  and  C_14
REMARK    6  A    between atoms: C_14  and  N_15
REMARK                            x       y       z     vdW  Elec       q    Type
REMARK                         _______ _______ _______ _____ _____    ______ ____
ROOT
ATOM      1  C   UNL     1       0.707   8.559  20.548  0.00  0.00    +0.000 C 
ENDROOT
BRANCH   1   5
ATOM      2  N   UNL     1      -1.065  11.211  22.310  0.00  0.00    +0.000 N 
ATOM      3  C   UNL     1      -0.893  11.184  20.853  0.00  0.00    +0.000 C 
ATOM      4  C   UNL     1       0.608  11.036  20.530  0.00  0.00    +0.000 C 
ATOM      5  N   UNL     1       1.237   9.819  21.116  0.00  0.00    +0.000 NA
ATOM      6  C   UNL     1       1.013   9.862  22.581  0.00  0.00    +0.000 C 
ATOM      7  C   UNL     1      -0.457  10.077  23.028  0.00  0.00    +0.000 C 
BRANCH   2  13
ATOM      8  C   UNL     1      -1.214  13.516  23.223  0.00  0.00    +0.000 A 
ATOM      9  C   UNL     1      -1.966  14.472  23.929  0.00  0.00    +0.000 A 
ATOM     10  C   UNL     1      -3.252  14.182  24.382  0.00  0.00    +0.000 A 
ATOM     11  C   UNL     1      -3.791  12.928  24.137  0.00  0.00    +0.000 A 
ATOM     12  C   UNL     1      -3.047  11.973  23.443  0.00  0.00    +0.000 A 
ATOM     13  C   UNL     1      -1.740  12.221  22.973  0.00  0.00    +0.000 A 
BRANCH   8  15
ATOM     14  C   UNL     1       0.262  14.644  21.746  0.00  0.00    +0.000 C 
ATOM     15  O   UNL     1       0.092  13.777  22.864  0.00  0.00    +0.000 OA
ENDBRANCH   8  15
ENDBRANCH   2  13
ENDBRANCH   1   5
BRANCH   1  16
ATOM     16  C   UNL     1       1.426   7.345  21.145  0.00  0.00    +0.000 C 
BRANCH  16  17
ATOM     17  N   UNL     1       1.861   6.333  20.206  0.00  0.00    +0.000 N 
ATOM     18  C   UNL     1       1.997   5.042  20.683  0.00  0.00    +0.000 C 
ATOM     19  O   UNL     1       2.167   4.755  21.866  0.00  0.00    +0.000 OA
ATOM     20  C   UNL     1       1.831   3.985  19.629  0.00  0.00    +0.000 C 
ATOM     21  C   UNL     1       2.692   4.257  18.389  0.00  0.00    +0.000 C 
ATOM     22  C   UNL     1       4.195   4.037  18.676  0.00  0.00    +0.000 C 
ATOM     23  C   UNL     1       4.522   2.569  18.964  0.00  0.00    +0.000 C 
ATOM     24  N   UNL     1       4.063   1.689  17.891  0.00  0.00    +0.000 NA
ATOM     25  C   UNL     1       2.641   1.833  17.593  0.00  0.00    +0.000 C 
ATOM     26  C   UNL     1       2.281   3.281  17.262  0.00  0.00    +0.000 C 
ATOM     27  C   UNL     1       2.433   5.693  17.912  0.00  0.00    +0.000 C 
ATOM     28  C   UNL     1       2.429   6.732  19.011  0.00  0.00    +0.000 C 
ATOM     29  O   UNL     1       2.842   7.871  18.800  0.00  0.00    +0.000 OA
ATOM     30  H   UNL     1       4.254   0.720  18.148  0.00  0.00    +0.000 HD
ENDBRANCH  16  17
ENDBRANCH   1  16
TORSDOF 5
ENDMDL
MODEL 8
REMARK VINA RESULT:      -6.9      1.952      2.948
REMARK  Name = 
REMARK  6 active torsions:
REMARK  status: ('A' for Active; 'I' for Inactive)
REMARK    1  A    between atoms: C_1  and  O_2
REMARK    2  A    between atoms: O_2  and  C_3
REMARK    3  A    between atoms: C_8  and  N_9
REMARK    4  A    between atoms: N_12  and  C_13
REMARK    5  A    between atoms: C_13  and  C_14
REMARK    6  A    between atoms: C_14  and  N_15
REMARK                            x       y       z     vdW  Elec       q    Type
REMARK                         _______ _______ _______ _____ _____    ______ ____
ROOT
ATOM      1  C   UNL     1       1.113   8.618  18.121  0.00  0.00    +0.000 C 
ENDROOT
BRANCH   1   5
ATOM      2  N   UNL     1      -0.461  11.073  20.305  0.00  0.00    +0.000 N 
ATOM      3  C   UNL     1      -1.204  10.262  19.334  0.00  0.00    +0.000 C 
ATOM      4  C   UNL     1      -0.562  10.436  17.943  0.00  0.00    +0.000 C 
ATOM      5  N   UNL     1       0.878  10.060  17.888  0.00  0.00    +0.000 NA
ATOM      6  C   UNL     1       1.590  10.872  18.905  0.00  0.00    +0.000 C 
ATOM      7  C   UNL     1       0.991  10.829  20.335  0.00  0.00    +0.000 C 
BRANCH   2  13
ATOM      8  C   UNL     1      -1.242  13.375  20.813  0.00  0.00    +0.000 A 
ATOM      9  C   UNL     1      -1.846  14.254  21.730  0.00  0.00    +0.000 A 
ATOM     10  C   UNL     1      -2.304  13.799  22.965  0.00  0.00    +0.000 A 
ATOM     11  C   UNL     1      -2.154  12.460  23.293  0.00  0.00    +0.000 A 
ATOM     12  C   UNL     1      -1.550  11.585  22.390  0.00  0.00    +0.000 A 
ATOM     13  C   UNL     1      -1.065  12.003  21.133  0.00  0.00    +0.000 A 
BRANCH   8  15
ATOM     14  C   UNL     1      -0.620  15.270  19.526  0.00  0.00    +0.000 C 
ATOM     15  O   UNL     1      -0.705  13.852  19.635  0.00  0.00    +0.000 OA
ENDBRANCH   8  15
ENDBRANCH   2  13
ENDBRANCH   1   5
BRANCH   1  16
ATOM     16  C   UNL     1       2.602   8.334  18.344  0.00  0.00    +0.000 C 
BRANCH  16  17
ATOM     17  N   UNL     1       3.018   6.954  18.206  0.00  0.00    +0.000 N 
ATOM     18  C   UNL     1       2.486   6.040  19.096  0.00  0.00    +0.000 C 
ATOM     19  O   UNL     1       2.026   6.332  20.198  0.00  0.00    +0.000 OA
ATOM     20  C   UNL     1       2.432   4.636  18.564  0.00  0.00    +0.000 C 
ATOM     21  C   UNL     1       3.774   4.183  17.975  0.00  0.00    +0.000 C 
ATOM     22  C   UNL     1       4.835   3.954  19.076  0.00  0.00    +0.000 C 
ATOM     23  C   UNL     1       4.482   2.773  19.984  0.00  0.00    +0.000 C 
ATOM     24  N   UNL     1       4.252   1.549  19.219  0.00  0.00    +0.000 NA
ATOM     25  C   UNL     1       3.238   1.697  18.180  0.00  0.00    +0.000 C 
ATOM     26  C   UNL     1       3.575   2.844  17.228  0.00  0.00    +0.000 C 
ATOM     27  C   UNL     1       4.253   5.239  16.969  0.00  0.00    +0.000 C 
ATOM     28  C   UNL     1       4.139   6.668  17.451  0.00  0.00    +0.000 C 
ATOM     29  O   UNL     1       4.966   7.513  17.111  0.00  0.00    +0.000 OA
ATOM     30  H   UNL     1       3.971   0.804  19.857  0.00  0.00    +0.000 HD
ENDBRANCH  16  17
ENDBRANCH   1  16
TORSDOF 5
ENDMDL
MODEL 9
REMARK VINA RESULT:      -6.9      2.137      9.879
REMARK  Name = 
REMARK  6 active torsions:
REMARK  status: ('A' for Active; 'I' for Inactive)
REMARK    1  A    between atoms: C_1  and  O_2
REMARK    2  A    between atoms: O_2  and  C_3
REMARK    3  A    between atoms: C_8  and  N_9
REMARK    4  A    between atoms: N_12  and  C_13
REMARK    5  A    between atoms: C_13  and  C_14
REMARK    6  A    between atoms: C_14  and  N_15
REMARK                            x       y       z     vdW  Elec       q    Type
REMARK                         _______ _______ _______ _____ _____    ______ ____
ROOT
ATOM      1  C   UNL     1       1.569  10.871  19.831  0.00  0.00    +0.000 C 
ENDROOT
BRANCH   1   5
ATOM      2  N   UNL     1       2.393   7.538  18.611  0.00  0.00    +0.000 N 
ATOM      3  C   UNL     1       2.251   8.707  17.736  0.00  0.00    +0.000 C 
ATOM      4  C   UNL     1       0.878   9.360  17.992  0.00  0.00    +0.000 C 
ATOM      5  N   UNL     1       0.662   9.782  19.404  0.00  0.00    +0.000 NA
ATOM      6  C   UNL     1       0.848   8.586  20.261  0.00  0.00    +0.000 C 
ATOM      7  C   UNL     1       2.170   7.805  20.043  0.00  0.00    +0.000 C 
BRANCH   2  13
ATOM      8  C   UNL     1       3.986   5.888  17.658  0.00  0.00    +0.000 A 
ATOM      9  C   UNL     1       4.206   4.585  17.176  0.00  0.00    +0.000 A 
ATOM     10  C   UNL     1       3.184   3.637  17.178  0.00  0.00    +0.000 A 
ATOM     11  C   UNL     1       1.932   3.989  17.658  0.00  0.00    +0.000 A 
ATOM     12  C   UNL     1       1.706   5.282  18.133  0.00  0.00    +0.000 A 
ATOM     13  C   UNL     1       2.708   6.275  18.141  0.00  0.00    +0.000 A 
BRANCH   8  15
ATOM     14  C   UNL     1       6.237   6.385  17.093  0.00  0.00    +0.000 C 
ATOM     15  O   UNL     1       4.973   6.846  17.562  0.00  0.00    +0.000 OA
ENDBRANCH   8  15
ENDBRANCH   2  13
ENDBRANCH   1   5
BRANCH   1  16
ATOM     16  C   UNL     1       0.932  12.242  19.584  0.00  0.00    +0.000 C 
BRANCH  16  17
ATOM     17  N   UNL     1      -0.167  12.605  20.454  0.00  0.00    +0.000 N 
ATOM     18  C   UNL     1      -1.440  12.570  19.915  0.00  0.00    +0.000 C 
ATOM     19  O   UNL     1      -1.686  12.648  18.714  0.00  0.00    +0.000 OA
ATOM     20  C   UNL     1      -2.522  12.336  20.930  0.00  0.00    +0.000 C 
ATOM     21  C   UNL     1      -2.409  13.281  22.133  0.00  0.00    +0.000 C 
ATOM     22  C   UNL     1      -2.780  14.734  21.756  0.00  0.00    +0.000 C 
ATOM     23  C   UNL     1      -4.259  14.878  21.388  0.00  0.00    +0.000 C 
ATOM     24  N   UNL     1      -5.134  14.374  22.445  0.00  0.00    +0.000 NA
ATOM     25  C   UNL     1      -4.848  12.994  22.825  0.00  0.00    +0.000 C 
ATOM     26  C   UNL     1      -3.387  12.818  23.237  0.00  0.00    +0.000 C 
ATOM     27  C   UNL     1      -0.978  13.211  22.684  0.00  0.00    +0.000 C 
ATOM     28  C   UNL     1       0.108  13.272  21.632  0.00  0.00    +0.000 C 
ATOM     29  O   UNL     1       1.182  13.821  21.870  0.00  0.00    +0.000 OA
ATOM     30  H   UNL     1      -6.104  14.441  22.137  0.00  0.00    +0.000 HD
ENDBRANCH  16  17
ENDBRANCH   1  16
TORSDOF 5
ENDMDL
