MODEL 1
REMARK VINA RESULT:      -8.7      0.000      0.000
REMARK  Name = 
REMARK  8 active torsions:
REMARK  status: ('A' for Active; 'I' for Inactive)
REMARK    1  A    between atoms: C_1  and  O_2
REMARK    2  A    between atoms: O_2  and  C_3
REMARK    3  A    between atoms: C_5  and  C_6
REMARK    4  A    between atoms: N_8  and  C_9
REMARK    5  A    between atoms: C_13  and  C_14
REMARK    6  A    between atoms: C_14  and  N_15
REMARK    7  A    between atoms: C_18  and  C_19
REMARK    8  A    between atoms: N_21  and  C_22
REMARK                            x       y       z     vdW  Elec       q    Type
REMARK                         _______ _______ _______ _____ _____    ______ ____
ROOT
ATOM      1  C   UNL     1       0.595   9.859  19.854  0.00  0.00    +0.000 A 
ATOM      2  C   UNL     1       0.967  10.204  18.550  0.00  0.00    +0.000 A 
ATOM      3  C   UNL     1       1.807   9.395  17.785  0.00  0.00    +0.000 A 
ATOM      4  C   UNL     1       2.307   8.215  18.318  0.00  0.00    +0.000 A 
ATOM      5  C   UNL     1       2.000   7.846  19.634  0.00  0.00    +0.000 A 
ATOM      6  C   UNL     1       1.152   8.686  20.404  0.00  0.00    +0.000 A 
ENDROOT
BRANCH   1   9
ATOM      7  C   UNL     1       0.070  11.726  21.428  0.00  0.00    +0.000 C 
ATOM      8  O   UNL     1       1.217  12.159  21.481  0.00  0.00    +0.000 OA
ATOM      9  N   UNL     1      -0.327  10.655  20.615  0.00  0.00    +0.000 N 
ATOM     10  H   UNL     1      -1.307  10.510  20.424  0.00  0.00    +0.000 HD
BRANCH   7  13
ATOM     11  C   UNL     1      -1.450  14.531  23.401  0.00  0.00    +0.000 A 
ATOM     12  C   UNL     1      -0.627  13.810  22.556  0.00  0.00    +0.000 A 
ATOM     13  C   UNL     1      -0.925  12.459  22.276  0.00  0.00    +0.000 A 
ATOM     14  C   UNL     1      -2.055  11.902  22.863  0.00  0.00    +0.000 A 
ATOM     15  C   UNL     1      -2.811  12.725  23.691  0.00  0.00    +0.000 A 
ATOM     16 CL   UNL     1      -4.204  12.115  24.495  0.00  0.00    +0.000 Cl
ATOM     17  N   UNL     1      -2.548  14.020  23.973  0.00  0.00    +0.000 NA
BRANCH  11  19
ATOM     18  C   UNL     1      -2.142  16.758  23.709  0.00  0.00    +0.000 C 
ATOM     19  O   UNL     1      -1.058  15.840  23.648  0.00  0.00    +0.000 OA
ENDBRANCH  11  19
ENDBRANCH   7  13
ENDBRANCH   1   9
BRANCH   5  20
ATOM     20  C   UNL     1       2.499   6.498  20.132  0.00  0.00    +0.000 C 
BRANCH  20  21
ATOM     21  N   UNL     1       1.704   5.328  19.667  0.00  0.00    +0.000 NA
ATOM     22  C   UNL     1       1.783   5.221  18.200  0.00  0.00    +0.000 C 
ATOM     23  C   UNL     1       1.207   3.917  17.633  0.00  0.00    +0.000 C 
ATOM     24  C   UNL     1       1.790   2.683  18.319  0.00  0.00    +0.000 C 
ATOM     25  C   UNL     1       1.558   2.818  19.825  0.00  0.00    +0.000 C 
ATOM     26  C   UNL     1       2.169   4.117  20.363  0.00  0.00    +0.000 C 
BRANCH  24  27
ATOM     27  C   UNL     1       3.273   2.508  17.998  0.00  0.00    +0.000 C 
ATOM     28  O   UNL     1       3.870   1.441  18.099  0.00  0.00    +0.000 OA
ATOM     29  N   UNL     1       3.891   3.666  17.574  0.00  0.00    +0.000 N 
ATOM     30  H   UNL     1       3.465   4.549  17.825  0.00  0.00    +0.000 HD
BRANCH  29  31
ATOM     31  C   UNL     1       5.288   3.661  17.170  0.00  0.00    +0.000 C 
ATOM     32  C   UNL     1       5.432   4.194  15.740  0.00  0.00    +0.000 C 
ATOM     33  C   UNL     1       5.289   5.709  15.655  0.00  0.00    +0.000 C 
ATOM     34  C   UNL     1       6.265   6.396  16.604  0.00  0.00    +0.000 C 
ATOM     35  C   UNL     1       6.050   5.941  18.042  0.00  0.00    +0.000 C 
ATOM     36  C   UNL     1       6.148   4.423  18.185  0.00  0.00    +0.000 C 
ENDBRANCH  29  31
ENDBRANCH  24  27
ENDBRANCH  20  21
ENDBRANCH   5  20
TORSDOF 7
ENDMDL
MODEL 2
REMARK VINA RESULT:      -8.6      2.899      3.412
REMARK  Name = 
REMARK  8 active torsions:
REMARK  status: ('A' for Active; 'I' for Inactive)
REMARK    1  A    between atoms: C_1  and  O_2
REMARK    2  A    between atoms: O_2  and  C_3
REMARK    3  A    between atoms: C_5  and  C_6
REMARK    4  A    between atoms: N_8  and  C_9
REMARK    5  A    between atoms: C_13  and  C_14
REMARK    6  A    between atoms: C_14  and  N_15
REMARK    7  A    between atoms: C_18  and  C_19
REMARK    8  A    between atoms: N_21  and  C_22
REMARK                            x       y       z     vdW  Elec       q    Type
REMARK                         _______ _______ _______ _____ _____    ______ ____
ROOT
ATOM      1  C   UNL     1       0.282  10.519  20.274  0.00  0.00    +0.000 A 
ATOM      2  C   UNL     1      -0.037  10.003  21.535  0.00  0.00    +0.000 A 
ATOM      3  C   UNL     1       0.412   8.751  21.954  0.00  0.00    +0.000 A 
ATOM      4  C   UNL     1       1.189   7.974  21.106  0.00  0.00    +0.000 A 
ATOM      5  C   UNL     1       1.501   8.426  19.818  0.00  0.00    +0.000 A 
ATOM      6  C   UNL     1       1.028   9.699  19.401  0.00  0.00    +0.000 A 
ENDROOT
BRANCH   1   9
ATOM      7  C   UNL     1       0.690  12.972  20.038  0.00  0.00    +0.000 C 
ATOM      8  O   UNL     1       1.851  12.935  20.436  0.00  0.00    +0.000 OA
ATOM      9  N   UNL     1      -0.118  11.838  19.871  0.00  0.00    +0.000 N 
ATOM     10  H   UNL     1      -0.956  11.902  19.314  0.00  0.00    +0.000 HD
BRANCH   7  13
ATOM     11  C   UNL     1       0.677  16.437  18.602  0.00  0.00    +0.000 A 
ATOM     12  C   UNL     1       1.035  15.135  18.896  0.00  0.00    +0.000 A 
ATOM     13  C   UNL     1       0.182  14.338  19.690  0.00  0.00    +0.000 A 
ATOM     14  C   UNL     1      -1.005  14.901  20.144  0.00  0.00    +0.000 A 
ATOM     15  C   UNL     1      -1.263  16.219  19.780  0.00  0.00    +0.000 A 
ATOM     16 CL   UNL     1      -2.685  17.015  20.327  0.00  0.00    +0.000 Cl
ATOM     17  N   UNL     1      -0.464  17.001  19.021  0.00  0.00    +0.000 NA
BRANCH  11  19
ATOM     18  C   UNL     1       2.943  16.753  18.054  0.00  0.00    +0.000 C 
ATOM     19  O   UNL     1       1.595  17.156  17.848  0.00  0.00    +0.000 OA
ENDBRANCH  11  19
ENDBRANCH   7  13
ENDBRANCH   1   9
BRANCH   5  20
ATOM     20  C   UNL     1       2.434   7.575  18.969  0.00  0.00    +0.000 C 
BRANCH  20  21
ATOM     21  N   UNL     1       2.273   6.106  19.145  0.00  0.00    +0.000 NA
ATOM     22  C   UNL     1       1.883   5.489  17.866  0.00  0.00    +0.000 C 
ATOM     23  C   UNL     1       1.927   3.955  17.868  0.00  0.00    +0.000 C 
ATOM     24  C   UNL     1       3.268   3.418  18.366  0.00  0.00    +0.000 C 
ATOM     25  C   UNL     1       3.537   4.013  19.750  0.00  0.00    +0.000 C 
ATOM     26  C   UNL     1       3.513   5.545  19.706  0.00  0.00    +0.000 C 
BRANCH  24  27
ATOM     27  C   UNL     1       4.400   3.739  17.393  0.00  0.00    +0.000 C 
ATOM     28  O   UNL     1       4.282   3.689  16.172  0.00  0.00    +0.000 OA
ATOM     29  N   UNL     1       5.580   4.098  18.011  0.00  0.00    +0.000 N 
ATOM     30  H   UNL     1       5.721   3.804  18.969  0.00  0.00    +0.000 HD
BRANCH  29  31
ATOM     31  C   UNL     1       6.741   4.494  17.228  0.00  0.00    +0.000 C 
ATOM     32  C   UNL     1       6.416   5.726  16.377  0.00  0.00    +0.000 C 
ATOM     33  C   UNL     1       6.375   7.014  17.192  0.00  0.00    +0.000 C 
ATOM     34  C   UNL     1       7.674   7.203  17.967  0.00  0.00    +0.000 C 
ATOM     35  C   UNL     1       7.942   6.021  18.890  0.00  0.00    +0.000 C 
ATOM     36  C   UNL     1       7.961   4.694  18.135  0.00  0.00    +0.000 C 
ENDBRANCH  29  31
ENDBRANCH  24  27
ENDBRANCH  20  21
ENDBRANCH   5  20
TORSDOF 7
ENDMDL
MODEL 3
REMARK VINA RESULT:      -8.5      1.470      1.812
REMARK  Name = 
REMARK  8 active torsions:
REMARK  status: ('A' for Active; 'I' for Inactive)
REMARK    1  A    between atoms: C_1  and  O_2
REMARK    2  A    between atoms: O_2  and  C_3
REMARK    3  A    between atoms: C_5  and  C_6
REMARK    4  A    between atoms: N_8  and  C_9
REMARK    5  A    between atoms: C_13  and  C_14
REMARK    6  A    between atoms: C_14  and  N_15
REMARK    7  A    between atoms: C_18  and  C_19
REMARK    8  A    between atoms: N_21  and  C_22
REMARK                            x       y       z     vdW  Elec       q    Type
REMARK                         _______ _______ _______ _____ _____    ______ ____
ROOT
ATOM      1  C   UNL     1       0.964   9.597  19.909  0.00  0.00    +0.000 A 
ATOM      2  C   UNL     1       1.581   9.688  18.656  0.00  0.00    +0.000 A 
ATOM      3  C   UNL     1       2.304   8.627  18.112  0.00  0.00    +0.000 A 
ATOM      4  C   UNL     1       2.436   7.442  18.822  0.00  0.00    +0.000 A 
ATOM      5  C   UNL     1       1.873   7.314  20.099  0.00  0.00    +0.000 A 
ATOM      6  C   UNL     1       1.149   8.407  20.644  0.00  0.00    +0.000 A 
ENDROOT
BRANCH   1   9
ATOM      7  C   UNL     1      -0.002  10.898  21.809  0.00  0.00    +0.000 C 
ATOM      8  O   UNL     1       0.612  10.297  22.685  0.00  0.00    +0.000 OA
ATOM      9  N   UNL     1       0.159  10.663  20.436  0.00  0.00    +0.000 N 
ATOM     10  H   UNL     1      -0.174  11.344  19.771  0.00  0.00    +0.000 HD
BRANCH   7  13
ATOM     11  C   UNL     1      -2.968  12.432  23.518  0.00  0.00    +0.000 A 
ATOM     12  C   UNL     1      -2.018  11.523  23.093  0.00  0.00    +0.000 A 
ATOM     13  C   UNL     1      -0.933  11.964  22.304  0.00  0.00    +0.000 A 
ATOM     14  C   UNL     1      -0.860  13.315  21.987  0.00  0.00    +0.000 A 
ATOM     15  C   UNL     1      -1.870  14.137  22.475  0.00  0.00    +0.000 A 
ATOM     16 CL   UNL     1      -1.888  15.816  22.103  0.00  0.00    +0.000 Cl
ATOM     17  N   UNL     1      -2.917  13.740  23.233  0.00  0.00    +0.000 NA
BRANCH  11  19
ATOM     18  C   UNL     1      -5.141  12.769  24.353  0.00  0.00    +0.000 C 
ATOM     19  O   UNL     1      -4.017  11.903  24.257  0.00  0.00    +0.000 OA
ENDBRANCH  11  19
ENDBRANCH   7  13
ENDBRANCH   1   9
BRANCH   5  20
ATOM     20  C   UNL     1       1.968   5.961  20.789  0.00  0.00    +0.000 C 
BRANCH  20  21
ATOM     21  N   UNL     1       1.392   4.826  20.017  0.00  0.00    +0.000 NA
ATOM     22  C   UNL     1       1.650   5.016  18.580  0.00  0.00    +0.000 C 
ATOM     23  C   UNL     1       1.320   3.793  17.714  0.00  0.00    +0.000 C 
ATOM     24  C   UNL     1       1.980   2.519  18.240  0.00  0.00    +0.000 C 
ATOM     25  C   UNL     1       1.563   2.333  19.700  0.00  0.00    +0.000 C 
ATOM     26  C   UNL     1       1.932   3.560  20.541  0.00  0.00    +0.000 C 
BRANCH  24  27
ATOM     27  C   UNL     1       3.500   2.573  18.098  0.00  0.00    +0.000 C 
ATOM     28  O   UNL     1       4.262   1.773  18.632  0.00  0.00    +0.000 OA
ATOM     29  N   UNL     1       3.948   3.607  17.304  0.00  0.00    +0.000 N 
ATOM     30  H   UNL     1       3.338   4.404  17.174  0.00  0.00    +0.000 HD
BRANCH  29  31
ATOM     31  C   UNL     1       5.365   3.765  17.015  0.00  0.00    +0.000 C 
ATOM     32  C   UNL     1       5.561   4.407  15.637  0.00  0.00    +0.000 C 
ATOM     33  C   UNL     1       5.271   5.904  15.635  0.00  0.00    +0.000 C 
ATOM     34  C   UNL     1       6.097   6.615  16.700  0.00  0.00    +0.000 C 
ATOM     35  C   UNL     1       5.823   6.042  18.085  0.00  0.00    +0.000 C 
ATOM     36  C   UNL     1       6.064   4.535  18.142  0.00  0.00    +0.000 C 
ENDBRANCH  29  31
ENDBRANCH  24  27
ENDBRANCH  20  21
ENDBRANCH   5  20
TORSDOF 7
ENDMDL
MODEL 4
REMARK VINA RESULT:      -8.4      3.073      3.747
REMARK  Name = 
REMARK  8 active torsions:
REMARK  status: ('A' for Active; 'I' for Inactive)
REMARK    1  A    between atoms: C_1  and  O_2
REMARK    2  A    between atoms: O_2  and  C_3
REMARK    3  A    between atoms: C_5  and  C_6
REMARK    4  A    between atoms: N_8  and  C_9
REMARK    5  A    between atoms: C_13  and  C_14
REMARK    6  A    between atoms: C_14  and  N_15
REMARK    7  A    between atoms: C_18  and  C_19
REMARK    8  A    between atoms: N_21  and  C_22
REMARK                            x       y       z     vdW  Elec       q    Type
REMARK                         _______ _______ _______ _____ _____    ______ ____
ROOT
ATOM      1  C   UNL     1       0.475  10.541  20.190  0.00  0.00    +0.000 A 
ATOM      2  C   UNL     1      -0.297  10.284  21.328  0.00  0.00    +0.000 A 
ATOM      3  C   UNL     1      -0.246   9.058  21.992  0.00  0.00    +0.000 A 
ATOM      4  C   UNL     1       0.580   8.048  21.519  0.00  0.00    +0.000 A 
ATOM      5  C   UNL     1       1.340   8.239  20.359  0.00  0.00    +0.000 A 
ATOM      6  C   UNL     1       1.270   9.489  19.688  0.00  0.00    +0.000 A 
ENDROOT
BRANCH   1   9
ATOM      7  C   UNL     1       1.182  12.932  20.046  0.00  0.00    +0.000 C 
ATOM      8  O   UNL     1       1.951  12.882  21.002  0.00  0.00    +0.000 OA
ATOM      9  N   UNL     1       0.477  11.827  19.550  0.00  0.00    +0.000 N 
ATOM     10  H   UNL     1       0.067  11.869  18.629  0.00  0.00    +0.000 HD
BRANCH   7  13
ATOM     11  C   UNL     1       2.257  16.070  18.294  0.00  0.00    +0.000 A 
ATOM     12  C   UNL     1       2.258  14.800  18.841  0.00  0.00    +0.000 A 
ATOM     13  C   UNL     1       1.069  14.275  19.392  0.00  0.00    +0.000 A 
ATOM     14  C   UNL     1      -0.074  15.064  19.355  0.00  0.00    +0.000 A 
ATOM     15  C   UNL     1       0.043  16.324  18.775  0.00  0.00    +0.000 A 
ATOM     16 CL   UNL     1      -1.306  17.389  18.719  0.00  0.00    +0.000 Cl
ATOM     17  N   UNL     1       1.168  16.848  18.240  0.00  0.00    +0.000 NA
BRANCH  11  19
ATOM     18  C   UNL     1       4.530  15.570  17.958  0.00  0.00    +0.000 C 
ATOM     19  O   UNL     1       3.479  16.517  17.811  0.00  0.00    +0.000 OA
ENDBRANCH  11  19
ENDBRANCH   7  13
ENDBRANCH   1   9
BRANCH   5  20
ATOM     20  C   UNL     1       2.298   7.133  19.942  0.00  0.00    +0.000 C 
BRANCH  20  21
ATOM     21  N   UNL     1       1.682   5.782  19.835  0.00  0.00    +0.000 NA
ATOM     22  C   UNL     1       1.822   5.277  18.459  0.00  0.00    +0.000 C 
ATOM     23  C   UNL     1       1.445   3.799  18.290  0.00  0.00    +0.000 C 
ATOM     24  C   UNL     1       2.166   2.901  19.295  0.00  0.00    +0.000 C 
ATOM     25  C   UNL     1       1.868   3.424  20.702  0.00  0.00    +0.000 C 
ATOM     26  C   UNL     1       2.283   4.893  20.844  0.00  0.00    +0.000 C 
BRANCH  24  27
ATOM     27  C   UNL     1       3.668   2.849  19.027  0.00  0.00    +0.000 C 
ATOM     28  O   UNL     1       4.440   2.103  19.623  0.00  0.00    +0.000 OA
ATOM     29  N   UNL     1       4.088   3.718  18.041  0.00  0.00    +0.000 N 
ATOM     30  H   UNL     1       3.502   4.515  17.832  0.00  0.00    +0.000 HD
BRANCH  29  31
ATOM     31  C   UNL     1       5.480   3.750  17.620  0.00  0.00    +0.000 C 
ATOM     32  C   UNL     1       5.574   3.925  16.100  0.00  0.00    +0.000 C 
ATOM     33  C   UNL     1       5.278   5.351  15.649  0.00  0.00    +0.000 C 
ATOM     34  C   UNL     1       6.177   6.344  16.377  0.00  0.00    +0.000 C 
ATOM     35  C   UNL     1       6.005   6.238  17.887  0.00  0.00    +0.000 C 
ATOM     36  C   UNL     1       6.255   4.821  18.397  0.00  0.00    +0.000 C 
ENDBRANCH  29  31
ENDBRANCH  24  27
ENDBRANCH  20  21
ENDBRANCH   5  20
TORSDOF 7
ENDMDL
MODEL 5
REMARK VINA RESULT:      -8.4      2.673      3.157
REMARK  Name = 
REMARK  8 active torsions:
REMARK  status: ('A' for Active; 'I' for Inactive)
REMARK    1  A    between atoms: C_1  and  O_2
REMARK    2  A    between atoms: O_2  and  C_3
REMARK    3  A    between atoms: C_5  and  C_6
REMARK    4  A    between atoms: N_8  and  C_9
REMARK    5  A    between atoms: C_13  and  C_14
REMARK    6  A    between atoms: C_14  and  N_15
REMARK    7  A    between atoms: C_18  and  C_19
REMARK    8  A    between atoms: N_21  and  C_22
REMARK                            x       y       z     vdW  Elec       q    Type
REMARK                         _______ _______ _______ _____ _____    ______ ____
ROOT
ATOM      1  C   UNL     1       0.301  10.588  20.250  0.00  0.00    +0.000 A 
ATOM      2  C   UNL     1      -0.049  10.061  21.498  0.00  0.00    +0.000 A 
ATOM      3  C   UNL     1       0.371   8.796  21.908  0.00  0.00    +0.000 A 
ATOM      4  C   UNL     1       1.150   8.017  21.064  0.00  0.00    +0.000 A 
ATOM      5  C   UNL     1       1.492   8.480  19.787  0.00  0.00    +0.000 A 
ATOM      6  C   UNL     1       1.048   9.767  19.380  0.00  0.00    +0.000 A 
ENDROOT
BRANCH   1   9
ATOM      7  C   UNL     1       0.265  13.061  20.599  0.00  0.00    +0.000 C 
ATOM      8  O   UNL     1       0.998  13.049  21.584  0.00  0.00    +0.000 OA
ATOM      9  N   UNL     1      -0.070  11.919  19.858  0.00  0.00    +0.000 N 
ATOM     10  H   UNL     1      -0.458  12.022  18.932  0.00  0.00    +0.000 HD
BRANCH   7  13
ATOM     11  C   UNL     1      -1.849  16.159  20.620  0.00  0.00    +0.000 A 
ATOM     12  C   UNL     1      -1.277  14.953  20.978  0.00  0.00    +0.000 A 
ATOM     13  C   UNL     1      -0.233  14.416  20.194  0.00  0.00    +0.000 A 
ATOM     14  C   UNL     1       0.190  15.135  19.083  0.00  0.00    +0.000 A 
ATOM     15  C   UNL     1      -0.456  16.340  18.825  0.00  0.00    +0.000 A 
ATOM     16 CL   UNL     1      -0.031  17.282  17.450  0.00  0.00    +0.000 Cl
ATOM     17  N   UNL     1      -1.456  16.876  19.559  0.00  0.00    +0.000 NA
BRANCH  11  19
ATOM     18  C   UNL     1      -3.597  15.531  22.063  0.00  0.00    +0.000 C 
ATOM     19  O   UNL     1      -2.894  16.590  21.426  0.00  0.00    +0.000 OA
ENDBRANCH  11  19
ENDBRANCH   7  13
ENDBRANCH   1   9
BRANCH   5  20
ATOM     20  C   UNL     1       2.426   7.625  18.944  0.00  0.00    +0.000 C 
BRANCH  20  21
ATOM     21  N   UNL     1       2.264   6.157  19.127  0.00  0.00    +0.000 NA
ATOM     22  C   UNL     1       1.873   5.535  17.851  0.00  0.00    +0.000 C 
ATOM     23  C   UNL     1       1.916   4.001  17.860  0.00  0.00    +0.000 C 
ATOM     24  C   UNL     1       3.257   3.465  18.360  0.00  0.00    +0.000 C 
ATOM     25  C   UNL     1       3.527   4.066  19.740  0.00  0.00    +0.000 C 
ATOM     26  C   UNL     1       3.505   5.598  19.689  0.00  0.00    +0.000 C 
BRANCH  24  27
ATOM     27  C   UNL     1       4.388   3.780  17.384  0.00  0.00    +0.000 C 
ATOM     28  O   UNL     1       4.276   3.702  16.164  0.00  0.00    +0.000 OA
ATOM     29  N   UNL     1       5.560   4.170  17.998  0.00  0.00    +0.000 N 
ATOM     30  H   UNL     1       5.701   3.901  18.962  0.00  0.00    +0.000 HD
BRANCH  29  31
ATOM     31  C   UNL     1       6.718   4.566  17.211  0.00  0.00    +0.000 C 
ATOM     32  C   UNL     1       6.408   5.830  16.402  0.00  0.00    +0.000 C 
ATOM     33  C   UNL     1       6.405   7.093  17.255  0.00  0.00    +0.000 C 
ATOM     34  C   UNL     1       7.718   7.232  18.017  0.00  0.00    +0.000 C 
ATOM     35  C   UNL     1       7.974   6.017  18.901  0.00  0.00    +0.000 C 
ATOM     36  C   UNL     1       7.954   4.713  18.106  0.00  0.00    +0.000 C 
ENDBRANCH  29  31
ENDBRANCH  24  27
ENDBRANCH  20  21
ENDBRANCH   5  20
TORSDOF 7
ENDMDL
MODEL 6
REMARK VINA RESULT:      -8.4      4.146     11.387
REMARK  Name = 
REMARK  8 active torsions:
REMARK  status: ('A' for Active; 'I' for Inactive)
REMARK    1  A    between atoms: C_1  and  O_2
REMARK    2  A    between atoms: O_2  and  C_3
REMARK    3  A    between atoms: C_5  and  C_6
REMARK    4  A    between atoms: N_8  and  C_9
REMARK    5  A    between atoms: C_13  and  C_14
REMARK    6  A    between atoms: C_14  and  N_15
REMARK    7  A    between atoms: C_18  and  C_19
REMARK    8  A    between atoms: N_21  and  C_22
REMARK                            x       y       z     vdW  Elec       q    Type
REMARK                         _______ _______ _______ _____ _____    ______ ____
ROOT
ATOM      1  C   UNL     1       1.602   9.694  18.358  0.00  0.00    +0.000 A 
ATOM      2  C   UNL     1       2.220  10.912  18.054  0.00  0.00    +0.000 A 
ATOM      3  C   UNL     1       1.841  12.104  18.670  0.00  0.00    +0.000 A 
ATOM      4  C   UNL     1       0.815  12.106  19.606  0.00  0.00    +0.000 A 
ATOM      5  C   UNL     1       0.136  10.921  19.914  0.00  0.00    +0.000 A 
ATOM      6  C   UNL     1       0.527   9.716  19.271  0.00  0.00    +0.000 A 
ENDROOT
BRANCH   1   9
ATOM      7  C   UNL     1       2.494   7.368  18.539  0.00  0.00    +0.000 C 
ATOM      8  O   UNL     1       2.453   7.323  19.766  0.00  0.00    +0.000 OA
ATOM      9  N   UNL     1       2.042   8.455  17.779  0.00  0.00    +0.000 N 
ATOM     10  H   UNL     1       1.869   8.336  16.792  0.00  0.00    +0.000 HD
BRANCH   7  13
ATOM     11  C   UNL     1       2.689   3.785  17.446  0.00  0.00    +0.000 A 
ATOM     12  C   UNL     1       2.225   4.982  17.958  0.00  0.00    +0.000 A 
ATOM     13  C   UNL     1       3.034   6.136  17.877  0.00  0.00    +0.000 A 
ATOM     14  C   UNL     1       4.280   6.023  17.272  0.00  0.00    +0.000 A 
ATOM     15  C   UNL     1       4.638   4.768  16.788  0.00  0.00    +0.000 A 
ATOM     16 CL   UNL     1       6.175   4.518  16.059  0.00  0.00    +0.000 Cl
ATOM     17  N   UNL     1       3.882   3.650  16.852  0.00  0.00    +0.000 NA
BRANCH  11  19
ATOM     18  C   UNL     1       1.060   2.750  18.791  0.00  0.00    +0.000 C 
ATOM     19  O   UNL     1       1.842   2.697  17.604  0.00  0.00    +0.000 OA
ENDBRANCH  11  19
ENDBRANCH   7  13
ENDBRANCH   1   9
BRANCH   5  20
ATOM     20  C   UNL     1      -0.913  10.964  21.015  0.00  0.00    +0.000 C 
BRANCH  20  21
ATOM     21  N   UNL     1      -1.224  12.327  21.527  0.00  0.00    +0.000 NA
ATOM     22  C   UNL     1      -2.181  12.993  20.626  0.00  0.00    +0.000 C 
ATOM     23  C   UNL     1      -2.760  14.301  21.180  0.00  0.00    +0.000 C 
ATOM     24  C   UNL     1      -3.337  14.127  22.583  0.00  0.00    +0.000 C 
ATOM     25  C   UNL     1      -2.244  13.545  23.481  0.00  0.00    +0.000 C 
ATOM     26  C   UNL     1      -1.708  12.226  22.914  0.00  0.00    +0.000 C 
BRANCH  24  27
ATOM     27  C   UNL     1      -4.581  13.241  22.575  0.00  0.00    +0.000 C 
ATOM     28  O   UNL     1      -4.827  12.406  23.440  0.00  0.00    +0.000 OA
ATOM     29  N   UNL     1      -5.417  13.466  21.501  0.00  0.00    +0.000 N 
ATOM     30  H   UNL     1      -5.022  13.896  20.675  0.00  0.00    +0.000 HD
BRANCH  29  31
ATOM     31  C   UNL     1      -6.676  12.748  21.374  0.00  0.00    +0.000 C 
ATOM     32  C   UNL     1      -7.788  13.698  20.915  0.00  0.00    +0.000 C 
ATOM     33  C   UNL     1      -7.697  14.044  19.433  0.00  0.00    +0.000 C 
ATOM     34  C   UNL     1      -7.665  12.778  18.585  0.00  0.00    +0.000 C 
ATOM     35  C   UNL     1      -6.495  11.883  18.975  0.00  0.00    +0.000 C 
ATOM     36  C   UNL     1      -6.513  11.528  20.460  0.00  0.00    +0.000 C 
ENDBRANCH  29  31
ENDBRANCH  24  27
ENDBRANCH  20  21
ENDBRANCH   5  20
TORSDOF 7
ENDMDL
MODEL 7
REMARK VINA RESULT:      -8.4      3.138      3.602
REMARK  Name = 
REMARK  8 active torsions:
REMARK  status: ('A' for Active; 'I' for Inactive)
REMARK    1  A    between atoms: C_1  and  O_2
REMARK    2  A    between atoms: O_2  and  C_3
REMARK    3  A    between atoms: C_5  and  C_6
REMARK    4  A    between atoms: N_8  and  C_9
REMARK    5  A    between atoms: C_13  and  C_14
REMARK    6  A    between atoms: C_14  and  N_15
REMARK    7  A    between atoms: C_18  and  C_19
REMARK    8  A    between atoms: N_21  and  C_22
REMARK                            x       y       z     vdW  Elec       q    Type
REMARK                         _______ _______ _______ _____ _____    ______ ____
ROOT
ATOM      1  C   UNL     1       0.471  10.585  20.292  0.00  0.00    +0.000 A 
ATOM      2  C   UNL     1      -0.335  10.288  21.397  0.00  0.00    +0.000 A 
ATOM      3  C   UNL     1      -0.301   9.041  22.020  0.00  0.00    +0.000 A 
ATOM      4  C   UNL     1       0.542   8.049  21.539  0.00  0.00    +0.000 A 
ATOM      5  C   UNL     1       1.338   8.281  20.410  0.00  0.00    +0.000 A 
ATOM      6  C   UNL     1       1.284   9.553  19.780  0.00  0.00    +0.000 A 
ENDROOT
BRANCH   1   9
ATOM      7  C   UNL     1       1.257  12.954  20.194  0.00  0.00    +0.000 C 
ATOM      8  O   UNL     1       2.069  12.844  21.109  0.00  0.00    +0.000 OA
ATOM      9  N   UNL     1       0.489  11.892  19.697  0.00  0.00    +0.000 N 
ATOM     10  H   UNL     1       0.037  11.982  18.799  0.00  0.00    +0.000 HD
BRANCH   7  13
ATOM     11  C   UNL     1      -0.253  16.243  19.209  0.00  0.00    +0.000 A 
ATOM     12  C   UNL     1      -0.053  15.011  19.803  0.00  0.00    +0.000 A 
ATOM     13  C   UNL     1       1.162  14.323  19.592  0.00  0.00    +0.000 A 
ATOM     14  C   UNL     1       2.125  14.924  18.791  0.00  0.00    +0.000 A 
ATOM     15  C   UNL     1       1.815  16.168  18.251  0.00  0.00    +0.000 A 
ATOM     16 CL   UNL     1       2.926  16.974  17.215  0.00  0.00    +0.000 Cl
ATOM     17  N   UNL     1       0.662  16.848  18.439  0.00  0.00    +0.000 NA
BRANCH  11  19
ATOM     18  C   UNL     1      -1.733  17.983  18.650  0.00  0.00    +0.000 C 
ATOM     19  O   UNL     1      -1.490  16.827  19.442  0.00  0.00    +0.000 OA
ENDBRANCH  11  19
ENDBRANCH   7  13
ENDBRANCH   1   9
BRANCH   5  20
ATOM     20  C   UNL     1       2.311   7.191  19.986  0.00  0.00    +0.000 C 
BRANCH  20  21
ATOM     21  N   UNL     1       1.689   5.863  19.733  0.00  0.00    +0.000 NA
ATOM     22  C   UNL     1       1.905   5.468  18.331  0.00  0.00    +0.000 C 
ATOM     23  C   UNL     1       1.523   4.015  18.021  0.00  0.00    +0.000 C 
ATOM     24  C   UNL     1       2.174   3.028  18.989  0.00  0.00    +0.000 C 
ATOM     25  C   UNL     1       1.800   3.440  20.414  0.00  0.00    +0.000 C 
ATOM     26  C   UNL     1       2.220   4.886  20.699  0.00  0.00    +0.000 C 
BRANCH  24  27
ATOM     27  C   UNL     1       3.690   2.975  18.804  0.00  0.00    +0.000 C 
ATOM     28  O   UNL     1       4.443   2.346  19.541  0.00  0.00    +0.000 OA
ATOM     29  N   UNL     1       4.144   3.701  17.723  0.00  0.00    +0.000 N 
ATOM     30  H   UNL     1       3.555   4.443  17.370  0.00  0.00    +0.000 HD
BRANCH  29  31
ATOM     31  C   UNL     1       5.555   3.706  17.369  0.00  0.00    +0.000 C 
ATOM     32  C   UNL     1       5.727   3.941  15.864  0.00  0.00    +0.000 C 
ATOM     33  C   UNL     1       5.497   5.393  15.461  0.00  0.00    +0.000 C 
ATOM     34  C   UNL     1       6.388   6.326  16.272  0.00  0.00    +0.000 C 
ATOM     35  C   UNL     1       6.139   6.164  17.767  0.00  0.00    +0.000 C 
ATOM     36  C   UNL     1       6.323   4.719  18.227  0.00  0.00    +0.000 C 
ENDBRANCH  29  31
ENDBRANCH  24  27
ENDBRANCH  20  21
ENDBRANCH   5  20
TORSDOF 7
ENDMDL
MODEL 8
REMARK VINA RESULT:      -8.4      1.612      1.873
REMARK  Name = 
REMARK  8 active torsions:
REMARK  status: ('A' for Active; 'I' for Inactive)
REMARK    1  A    between atoms: C_1  and  O_2
REMARK    2  A    between atoms: O_2  and  C_3
REMARK    3  A    between atoms: C_5  and  C_6
REMARK    4  A    between atoms: N_8  and  C_9
REMARK    5  A    between atoms: C_13  and  C_14
REMARK    6  A    between atoms: C_14  and  N_15
REMARK    7  A    between atoms: C_18  and  C_19
REMARK    8  A    between atoms: N_21  and  C_22
REMARK                            x       y       z     vdW  Elec       q    Type
REMARK                         _______ _______ _______ _____ _____    ______ ____
ROOT
ATOM      1  C   UNL     1       0.318   9.797  19.568  0.00  0.00    +0.000 A 
ATOM      2  C   UNL     1       0.907   9.904  18.303  0.00  0.00    +0.000 A 
ATOM      3  C   UNL     1       1.861   8.991  17.855  0.00  0.00    +0.000 A 
ATOM      4  C   UNL     1       2.260   7.946  18.676  0.00  0.00    +0.000 A 
ATOM      5  C   UNL     1       1.732   7.818  19.967  0.00  0.00    +0.000 A 
ATOM      6  C   UNL     1       0.769   8.762  20.413  0.00  0.00    +0.000 A 
ENDROOT
BRANCH   1   9
ATOM      7  C   UNL     1      -0.568  11.579  21.076  0.00  0.00    +0.000 C 
ATOM      8  O   UNL     1       0.488  11.758  21.677  0.00  0.00    +0.000 OA
ATOM      9  N   UNL     1      -0.718  10.693  20.000  0.00  0.00    +0.000 N 
ATOM     10  H   UNL     1      -1.522  10.773  19.396  0.00  0.00    +0.000 HD
BRANCH   7  13
ATOM     11  C   UNL     1      -3.339  12.789  23.297  0.00  0.00    +0.000 A 
ATOM     12  C   UNL     1      -2.228  12.115  22.825  0.00  0.00    +0.000 A 
ATOM     13  C   UNL     1      -1.716  12.421  21.546  0.00  0.00    +0.000 A 
ATOM     14  C   UNL     1      -2.353  13.408  20.804  0.00  0.00    +0.000 A 
ATOM     15  C   UNL     1      -3.459  14.022  21.383  0.00  0.00    +0.000 A 
ATOM     16 CL   UNL     1      -4.340  15.225  20.526  0.00  0.00    +0.000 Cl
ATOM     17  N   UNL     1      -3.968  13.748  22.605  0.00  0.00    +0.000 NA
BRANCH  11  19
ATOM     18  C   UNL     1      -5.206  12.240  24.618  0.00  0.00    +0.000 C 
ATOM     19  O   UNL     1      -3.794  12.395  24.548  0.00  0.00    +0.000 OA
ENDBRANCH  11  19
ENDBRANCH   7  13
ENDBRANCH   1   9
BRANCH   5  20
ATOM     20  C   UNL     1       2.133   6.600  20.785  0.00  0.00    +0.000 C 
BRANCH  20  21
ATOM     21  N   UNL     1       1.538   5.315  20.325  0.00  0.00    +0.000 NA
ATOM     22  C   UNL     1       1.737   5.165  18.874  0.00  0.00    +0.000 C 
ATOM     23  C   UNL     1       1.384   3.773  18.332  0.00  0.00    +0.000 C 
ATOM     24  C   UNL     1       2.077   2.658  19.113  0.00  0.00    +0.000 C 
ATOM     25  C   UNL     1       1.721   2.817  20.592  0.00  0.00    +0.000 C 
ATOM     26  C   UNL     1       2.112   4.207  21.107  0.00  0.00    +0.000 C 
BRANCH  24  27
ATOM     27  C   UNL     1       3.589   2.676  18.900  0.00  0.00    +0.000 C 
ATOM     28  O   UNL     1       4.365   1.910  19.463  0.00  0.00    +0.000 OA
ATOM     29  N   UNL     1       4.013   3.636  18.005  0.00  0.00    +0.000 N 
ATOM     30  H   UNL     1       3.407   4.429  17.838  0.00  0.00    +0.000 HD
BRANCH  29  31
ATOM     31  C   UNL     1       5.417   3.749  17.642  0.00  0.00    +0.000 C 
ATOM     32  C   UNL     1       5.569   3.850  16.120  0.00  0.00    +0.000 C 
ATOM     33  C   UNL     1       5.194   5.224  15.577  0.00  0.00    +0.000 C 
ATOM     34  C   UNL     1       5.985   6.317  16.286  0.00  0.00    +0.000 C 
ATOM     35  C   UNL     1       5.750   6.280  17.791  0.00  0.00    +0.000 C 
ATOM     36  C   UNL     1       6.077   4.913  18.390  0.00  0.00    +0.000 C 
ENDBRANCH  29  31
ENDBRANCH  24  27
ENDBRANCH  20  21
ENDBRANCH   5  20
TORSDOF 7
ENDMDL
MODEL 9
REMARK VINA RESULT:      -8.3      1.719      1.854
REMARK  Name = 
REMARK  8 active torsions:
REMARK  status: ('A' for Active; 'I' for Inactive)
REMARK    1  A    between atoms: C_1  and  O_2
REMARK    2  A    between atoms: O_2  and  C_3
REMARK    3  A    between atoms: C_5  and  C_6
REMARK    4  A    between atoms: N_8  and  C_9
REMARK    5  A    between atoms: C_13  and  C_14
REMARK    6  A    between atoms: C_14  and  N_15
REMARK    7  A    between atoms: C_18  and  C_19
REMARK    8  A    between atoms: N_21  and  C_22
REMARK                            x       y       z     vdW  Elec       q    Type
REMARK                         _______ _______ _______ _____ _____    ______ ____
ROOT
ATOM      1  C   UNL     1       0.986   9.617  19.520  0.00  0.00    +0.000 A 
ATOM      2  C   UNL     1       1.575   9.755  18.258  0.00  0.00    +0.000 A 
ATOM      3  C   UNL     1       2.403   8.770  17.720  0.00  0.00    +0.000 A 
ATOM      4  C   UNL     1       2.672   7.618  18.444  0.00  0.00    +0.000 A 
ATOM      5  C   UNL     1       2.142   7.449  19.730  0.00  0.00    +0.000 A 
ATOM      6  C   UNL     1       1.309   8.466  20.270  0.00  0.00    +0.000 A 
ENDROOT
BRANCH   1   9
ATOM      7  C   UNL     1      -1.115  10.961  19.401  0.00  0.00    +0.000 C 
ATOM      8  O   UNL     1      -1.551  10.405  18.397  0.00  0.00    +0.000 OA
ATOM      9  N   UNL     1       0.076  10.597  20.044  0.00  0.00    +0.000 N 
ATOM     10  H   UNL     1       0.251  10.912  20.986  0.00  0.00    +0.000 HD
BRANCH   7  13
ATOM     11  C   UNL     1      -2.099  13.951  21.442  0.00  0.00    +0.000 A 
ATOM     12  C   UNL     1      -1.352  12.960  20.833  0.00  0.00    +0.000 A 
ATOM     13  C   UNL     1      -1.978  12.061  19.943  0.00  0.00    +0.000 A 
ATOM     14  C   UNL     1      -3.338  12.215  19.704  0.00  0.00    +0.000 A 
ATOM     15  C   UNL     1      -3.985  13.252  20.369  0.00  0.00    +0.000 A 
ATOM     16 CL   UNL     1      -5.675  13.498  20.170  0.00  0.00    +0.000 Cl
ATOM     17  N   UNL     1      -3.409  14.126  21.224  0.00  0.00    +0.000 NA
BRANCH  11  19
ATOM     18  C   UNL     1       0.002  14.574  22.298  0.00  0.00    +0.000 C 
ATOM     19  O   UNL     1      -1.407  14.763  22.330  0.00  0.00    +0.000 OA
ENDBRANCH  11  19
ENDBRANCH   7  13
ENDBRANCH   1   9
BRANCH   5  20
ATOM     20  C   UNL     1       2.392   6.126  20.438  0.00  0.00    +0.000 C 
BRANCH  20  21
ATOM     21  N   UNL     1       1.667   4.962  19.858  0.00  0.00    +0.000 NA
ATOM     22  C   UNL     1       1.704   5.033  18.388  0.00  0.00    +0.000 C 
ATOM     23  C   UNL     1       1.205   3.763  17.685  0.00  0.00    +0.000 C 
ATOM     24  C   UNL     1       1.898   2.505  18.205  0.00  0.00    +0.000 C 
ATOM     25  C   UNL     1       1.708   2.447  19.722  0.00  0.00    +0.000 C 
ATOM     26  C   UNL     1       2.243   3.717  20.394  0.00  0.00    +0.000 C 
BRANCH  24  27
ATOM     27  C   UNL     1       3.378   2.481  17.828  0.00  0.00    +0.000 C 
ATOM     28  O   UNL     1       4.083   1.479  17.903  0.00  0.00    +0.000 OA
ATOM     29  N   UNL     1       3.860   3.696  17.387  0.00  0.00    +0.000 N 
ATOM     30  H   UNL     1       3.356   4.531  17.656  0.00  0.00    +0.000 HD
BRANCH  29  31
ATOM     31  C   UNL     1       5.234   3.832  16.930  0.00  0.00    +0.000 C 
ATOM     32  C   UNL     1       5.293   4.682  15.656  0.00  0.00    +0.000 C 
ATOM     33  C   UNL     1       5.110   6.171  15.930  0.00  0.00    +0.000 C 
ATOM     34  C   UNL     1       6.116   6.656  16.967  0.00  0.00    +0.000 C 
ATOM     35  C   UNL     1       5.985   5.876  18.269  0.00  0.00    +0.000 C 
ATOM     36  C   UNL     1       6.126   4.370  18.055  0.00  0.00    +0.000 C 
ENDBRANCH  29  31
ENDBRANCH  24  27
ENDBRANCH  20  21
ENDBRANCH   5  20
TORSDOF 7
ENDMDL
