MODEL 1
REMARK VINA RESULT:      -8.4      0.000      0.000
REMARK  Name = 
REMARK  6 active torsions:
REMARK  status: ('A' for Active; 'I' for Inactive)
REMARK    1  A    between atoms: C_1  and  N_2
REMARK    2  A    between atoms: N_2  and  C_3
REMARK    3  A    between atoms: C_3  and  C_4
REMARK    4  A    between atoms: C_8  and  C_9
REMARK    5  A    between atoms: C_11  and  N_12
REMARK    6  A    between atoms: N_12  and  C_13
REMARK                            x       y       z     vdW  Elec       q    Type
REMARK                         _______ _______ _______ _____ _____    ______ ____
ROOT
ATOM      1  C   UNL     1       6.586   4.106  13.667  0.00  0.00    +0.000 A 
ATOM      2  N   UNL     1       7.351   5.175  14.048  0.00  0.00    +0.000 NA
ATOM      3  C   UNL     1       7.121   5.287  15.334  0.00  0.00    +0.000 A 
ATOM      4  N   UNL     1       7.640   6.188  16.218  0.00  0.00    +0.000 NA
ATOM      5  C   UNL     1       7.280   6.054  17.454  0.00  0.00    +0.000 A 
ATOM      6  C   UNL     1       7.804   7.026  18.480  0.00  0.00    +0.000 C 
ATOM      7  C   UNL     1       6.363   5.000  17.974  0.00  0.00    +0.000 A 
ATOM      8  C   UNL     1       5.844   4.127  17.079  0.00  0.00    +0.000 A 
ATOM      9  N   UNL     1       6.227   4.280  15.729  0.00  0.00    +0.000 N 
ATOM     10  N   UNL     1       5.878   3.525  14.645  0.00  0.00    +0.000 NA
ENDROOT
BRANCH   8  11
ATOM     11  N   UNL     1       4.963   3.114  17.433  0.00  0.00    +0.000 N 
ATOM     12  H   UNL     1       5.429   2.245  17.718  0.00  0.00    +0.000 HD
BRANCH  11  13
ATOM     13  C   UNL     1       3.709   3.316  18.060  0.00  0.00    +0.000 A 
ATOM     14  C   UNL     1       2.702   4.043  17.401  0.00  0.00    +0.000 A 
ATOM     15  C   UNL     1       1.516   4.386  18.060  0.00  0.00    +0.000 A 
ATOM     16  C   UNL     1       1.321   4.020  19.388  0.00  0.00    +0.000 A 
ATOM     17  C   UNL     1       2.299   3.286  20.045  0.00  0.00    +0.000 A 
ATOM     18 CL   UNL     1       2.080   2.841  21.693  0.00  0.00    +0.000 Cl
ATOM     19  C   UNL     1       3.474   2.936  19.393  0.00  0.00    +0.000 A 
ENDBRANCH  11  13
ENDBRANCH   8  11
BRANCH   1  20
ATOM     20  C   UNL     1       6.560   3.631  12.242  0.00  0.00    +0.000 C 
BRANCH  20  22
ATOM     21  C   UNL     1       4.366   3.120  11.397  0.00  0.00    +0.000 C 
ATOM     22  N   UNL     1       5.534   2.590  12.080  0.00  0.00    +0.000 NA
ATOM     23  H   UNL     1       5.941   1.828  11.538  0.00  0.00    +0.000 HD
ENDBRANCH  20  22
ENDBRANCH   1  20
TORSDOF 4
ENDMDL
MODEL 2
REMARK VINA RESULT:      -8.1      1.328      1.401
REMARK  Name = 
REMARK  6 active torsions:
REMARK  status: ('A' for Active; 'I' for Inactive)
REMARK    1  A    between atoms: C_1  and  N_2
REMARK    2  A    between atoms: N_2  and  C_3
REMARK    3  A    between atoms: C_3  and  C_4
REMARK    4  A    between atoms: C_8  and  C_9
REMARK    5  A    between atoms: C_11  and  N_12
REMARK    6  A    between atoms: N_12  and  C_13
REMARK                            x       y       z     vdW  Elec       q    Type
REMARK                         _______ _______ _______ _____ _____    ______ ____
ROOT
ATOM      1  C   UNL     1       5.790   4.280  14.540  0.00  0.00    +0.000 A 
ATOM      2  N   UNL     1       6.546   5.420  14.586  0.00  0.00    +0.000 NA
ATOM      3  C   UNL     1       6.745   5.618  15.866  0.00  0.00    +0.000 A 
ATOM      4  N   UNL     1       7.450   6.615  16.476  0.00  0.00    +0.000 NA
ATOM      5  C   UNL     1       7.530   6.558  17.766  0.00  0.00    +0.000 A 
ATOM      6  C   UNL     1       8.280   7.637  18.504  0.00  0.00    +0.000 C 
ATOM      7  C   UNL     1       6.927   5.494  18.619  0.00  0.00    +0.000 A 
ATOM      8  C   UNL     1       6.216   4.524  17.998  0.00  0.00    +0.000 A 
ATOM      9  N   UNL     1       6.117   4.593  16.591  0.00  0.00    +0.000 N 
ATOM     10  N   UNL     1       5.495   3.736  15.729  0.00  0.00    +0.000 NA
ENDROOT
BRANCH   8  11
ATOM     11  N   UNL     1       5.588   3.489  18.680  0.00  0.00    +0.000 N 
ATOM     12  H   UNL     1       6.167   3.074  19.418  0.00  0.00    +0.000 HD
BRANCH  11  13
ATOM     13  C   UNL     1       4.198   3.424  18.946  0.00  0.00    +0.000 A 
ATOM     14  C   UNL     1       3.413   2.428  18.338  0.00  0.00    +0.000 A 
ATOM     15  C   UNL     1       2.020   2.437  18.464  0.00  0.00    +0.000 A 
ATOM     16  C   UNL     1       1.387   3.444  19.186  0.00  0.00    +0.000 A 
ATOM     17  C   UNL     1       2.151   4.423  19.807  0.00  0.00    +0.000 A 
ATOM     18 CL   UNL     1       1.383   5.685  20.688  0.00  0.00    +0.000 Cl
ATOM     19  C   UNL     1       3.536   4.413  19.692  0.00  0.00    +0.000 A 
ENDBRANCH  11  13
ENDBRANCH   8  11
BRANCH   1  20
ATOM     20  C   UNL     1       5.334   3.695  13.234  0.00  0.00    +0.000 C 
BRANCH  20  22
ATOM     21  C   UNL     1       6.007   2.052  11.610  0.00  0.00    +0.000 C 
ATOM     22  N   UNL     1       6.470   3.061  12.547  0.00  0.00    +0.000 NA
ATOM     23  H   UNL     1       6.984   3.788  12.052  0.00  0.00    +0.000 HD
ENDBRANCH  20  22
ENDBRANCH   1  20
TORSDOF 4
ENDMDL
MODEL 3
REMARK VINA RESULT:      -7.9      1.393      1.587
REMARK  Name = 
REMARK  6 active torsions:
REMARK  status: ('A' for Active; 'I' for Inactive)
REMARK    1  A    between atoms: C_1  and  N_2
REMARK    2  A    between atoms: N_2  and  C_3
REMARK    3  A    between atoms: C_3  and  C_4
REMARK    4  A    between atoms: C_8  and  C_9
REMARK    5  A    between atoms: C_11  and  N_12
REMARK    6  A    between atoms: N_12  and  C_13
REMARK                            x       y       z     vdW  Elec       q    Type
REMARK                         _______ _______ _______ _____ _____    ______ ____
ROOT
ATOM      1  C   UNL     1       5.758   4.376  14.641  0.00  0.00    +0.000 A 
ATOM      2  N   UNL     1       6.616   5.442  14.670  0.00  0.00    +0.000 NA
ATOM      3  C   UNL     1       6.771   5.689  15.948  0.00  0.00    +0.000 A 
ATOM      4  N   UNL     1       7.538   6.648  16.544  0.00  0.00    +0.000 NA
ATOM      5  C   UNL     1       7.550   6.653  17.838  0.00  0.00    +0.000 A 
ATOM      6  C   UNL     1       8.363   7.696  18.560  0.00  0.00    +0.000 C 
ATOM      7  C   UNL     1       6.808   5.697  18.710  0.00  0.00    +0.000 A 
ATOM      8  C   UNL     1       6.038   4.765  18.100  0.00  0.00    +0.000 A 
ATOM      9  N   UNL     1       6.015   4.767  16.689  0.00  0.00    +0.000 N 
ATOM     10  N   UNL     1       5.356   3.927  15.837  0.00  0.00    +0.000 NA
ENDROOT
BRANCH   8  11
ATOM     11  N   UNL     1       5.283   3.832  18.798  0.00  0.00    +0.000 N 
ATOM     12  H   UNL     1       5.821   3.308  19.496  0.00  0.00    +0.000 HD
BRANCH  11  13
ATOM     13  C   UNL     1       3.917   3.991  19.138  0.00  0.00    +0.000 A 
ATOM     14  C   UNL     1       3.530   4.994  20.044  0.00  0.00    +0.000 A 
ATOM     15  C   UNL     1       2.213   5.070  20.511  0.00  0.00    +0.000 A 
ATOM     16  C   UNL     1       1.266   4.142  20.092  0.00  0.00    +0.000 A 
ATOM     17  C   UNL     1       1.629   3.157  19.183  0.00  0.00    +0.000 A 
ATOM     18 CL   UNL     1       0.474   1.991  18.669  0.00  0.00    +0.000 Cl
ATOM     19  C   UNL     1       2.933   3.083  18.711  0.00  0.00    +0.000 A 
ENDBRANCH  11  13
ENDBRANCH   8  11
BRANCH   1  20
ATOM     20  C   UNL     1       5.312   3.766  13.343  0.00  0.00    +0.000 C 
BRANCH  20  22
ATOM     21  C   UNL     1       5.930   2.210  11.614  0.00  0.00    +0.000 C 
ATOM     22  N   UNL     1       6.395   2.947  12.777  0.00  0.00    +0.000 NA
ATOM     23  H   UNL     1       7.157   3.571  12.514  0.00  0.00    +0.000 HD
ENDBRANCH  20  22
ENDBRANCH   1  20
TORSDOF 4
ENDMDL
MODEL 4
REMARK VINA RESULT:      -7.7      1.373      4.321
REMARK  Name = 
REMARK  6 active torsions:
REMARK  status: ('A' for Active; 'I' for Inactive)
REMARK    1  A    between atoms: C_1  and  N_2
REMARK    2  A    between atoms: N_2  and  C_3
REMARK    3  A    between atoms: C_3  and  C_4
REMARK    4  A    between atoms: C_8  and  C_9
REMARK    5  A    between atoms: C_11  and  N_12
REMARK    6  A    between atoms: N_12  and  C_13
REMARK                            x       y       z     vdW  Elec       q    Type
REMARK                         _______ _______ _______ _____ _____    ______ ____
ROOT
ATOM      1  C   UNL     1       7.576   6.710  17.794  0.00  0.00    +0.000 A 
ATOM      2  N   UNL     1       7.703   6.742  16.431  0.00  0.00    +0.000 NA
ATOM      3  C   UNL     1       7.021   5.699  16.024  0.00  0.00    +0.000 A 
ATOM      4  N   UNL     1       6.808   5.264  14.748  0.00  0.00    +0.000 NA
ATOM      5  C   UNL     1       6.054   4.220  14.614  0.00  0.00    +0.000 A 
ATOM      6  C   UNL     1       5.791   3.678  13.233  0.00  0.00    +0.000 C 
ATOM      7  C   UNL     1       5.405   3.478  15.733  0.00  0.00    +0.000 A 
ATOM      8  C   UNL     1       5.643   3.914  16.992  0.00  0.00    +0.000 A 
ATOM      9  N   UNL     1       6.475   5.044  17.140  0.00  0.00    +0.000 N 
ATOM     10  N   UNL     1       6.845   5.698  18.281  0.00  0.00    +0.000 NA
ENDROOT
BRANCH   8  11
ATOM     11  N   UNL     1       5.115   3.298  18.119  0.00  0.00    +0.000 N 
ATOM     12  H   UNL     1       5.756   3.289  18.921  0.00  0.00    +0.000 HD
BRANCH  11  13
ATOM     13  C   UNL     1       3.747   3.324  18.488  0.00  0.00    +0.000 A 
ATOM     14  C   UNL     1       2.803   3.931  17.642  0.00  0.00    +0.000 A 
ATOM     15  C   UNL     1       1.477   4.104  18.054  0.00  0.00    +0.000 A 
ATOM     16  C   UNL     1       1.076   3.686  19.318  0.00  0.00    +0.000 A 
ATOM     17  C   UNL     1       1.993   3.068  20.157  0.00  0.00    +0.000 A 
ATOM     18 CL   UNL     1       1.516   2.561  21.730  0.00  0.00    +0.000 Cl
ATOM     19  C   UNL     1       3.308   2.886  19.749  0.00  0.00    +0.000 A 
ENDBRANCH  11  13
ENDBRANCH   8  11
BRANCH   1  20
ATOM     20  C   UNL     1       8.220   7.750  18.664  0.00  0.00    +0.000 C 
BRANCH  20  22
ATOM     21  C   UNL     1       9.003  10.026  18.697  0.00  0.00    +0.000 C 
ATOM     22  N   UNL     1       8.174   9.060  17.996  0.00  0.00    +0.000 NA
ATOM     23  H   UNL     1       8.511   8.938  17.041  0.00  0.00    +0.000 HD
ENDBRANCH  20  22
ENDBRANCH   1  20
TORSDOF 4
ENDMDL
MODEL 5
REMARK VINA RESULT:      -7.7      1.789      4.527
REMARK  Name = 
REMARK  6 active torsions:
REMARK  status: ('A' for Active; 'I' for Inactive)
REMARK    1  A    between atoms: C_1  and  N_2
REMARK    2  A    between atoms: N_2  and  C_3
REMARK    3  A    between atoms: C_3  and  C_4
REMARK    4  A    between atoms: C_8  and  C_9
REMARK    5  A    between atoms: C_11  and  N_12
REMARK    6  A    between atoms: N_12  and  C_13
REMARK                            x       y       z     vdW  Elec       q    Type
REMARK                         _______ _______ _______ _____ _____    ______ ____
ROOT
ATOM      1  C   UNL     1       7.740   7.124  17.972  0.00  0.00    +0.000 A 
ATOM      2  N   UNL     1       7.785   7.052  16.605  0.00  0.00    +0.000 NA
ATOM      3  C   UNL     1       7.069   5.991  16.320  0.00  0.00    +0.000 A 
ATOM      4  N   UNL     1       6.776   5.466  15.095  0.00  0.00    +0.000 NA
ATOM      5  C   UNL     1       6.005   4.426  15.085  0.00  0.00    +0.000 A 
ATOM      6  C   UNL     1       5.654   3.785  13.767  0.00  0.00    +0.000 C 
ATOM      7  C   UNL     1       5.417   3.778  16.293  0.00  0.00    +0.000 A 
ATOM      8  C   UNL     1       5.735   4.303  17.499  0.00  0.00    +0.000 A 
ATOM      9  N   UNL     1       6.586   5.430  17.512  0.00  0.00    +0.000 N 
ATOM     10  N   UNL     1       7.030   6.162  18.577  0.00  0.00    +0.000 NA
ENDROOT
BRANCH   8  11
ATOM     11  N   UNL     1       5.270   3.780  18.699  0.00  0.00    +0.000 N 
ATOM     12  H   UNL     1       6.014   3.587  19.379  0.00  0.00    +0.000 HD
BRANCH  11  13
ATOM     13  C   UNL     1       4.029   4.111  19.297  0.00  0.00    +0.000 A 
ATOM     14  C   UNL     1       3.544   5.429  19.227  0.00  0.00    +0.000 A 
ATOM     15  C   UNL     1       2.402   5.811  19.938  0.00  0.00    +0.000 A 
ATOM     16  C   UNL     1       1.732   4.891  20.738  0.00  0.00    +0.000 A 
ATOM     17  C   UNL     1       2.189   3.581  20.802  0.00  0.00    +0.000 A 
ATOM     18 CL   UNL     1       1.383   2.436  21.800  0.00  0.00    +0.000 Cl
ATOM     19  C   UNL     1       3.318   3.195  20.091  0.00  0.00    +0.000 A 
ENDBRANCH  11  13
ENDBRANCH   8  11
BRANCH   1  20
ATOM     20  C   UNL     1       8.445   8.217  18.722  0.00  0.00    +0.000 C 
BRANCH  20  22
ATOM     21  C   UNL     1       9.196  10.487  18.443  0.00  0.00    +0.000 C 
ATOM     22  N   UNL     1       8.177   9.515  18.083  0.00  0.00    +0.000 NA
ATOM     23  H   UNL     1       8.169   9.374  17.074  0.00  0.00    +0.000 HD
ENDBRANCH  20  22
ENDBRANCH   1  20
TORSDOF 4
ENDMDL
MODEL 6
REMARK VINA RESULT:      -7.7      1.099      1.287
REMARK  Name = 
REMARK  6 active torsions:
REMARK  status: ('A' for Active; 'I' for Inactive)
REMARK    1  A    between atoms: C_1  and  N_2
REMARK    2  A    between atoms: N_2  and  C_3
REMARK    3  A    between atoms: C_3  and  C_4
REMARK    4  A    between atoms: C_8  and  C_9
REMARK    5  A    between atoms: C_11  and  N_12
REMARK    6  A    between atoms: N_12  and  C_13
REMARK                            x       y       z     vdW  Elec       q    Type
REMARK                         _______ _______ _______ _____ _____    ______ ____
ROOT
ATOM      1  C   UNL     1       6.529   4.194  13.881  0.00  0.00    +0.000 A 
ATOM      2  N   UNL     1       7.463   4.993  14.484  0.00  0.00    +0.000 NA
ATOM      3  C   UNL     1       7.117   4.986  15.749  0.00  0.00    +0.000 A 
ATOM      4  N   UNL     1       7.718   5.615  16.800  0.00  0.00    +0.000 NA
ATOM      5  C   UNL     1       7.197   5.410  17.967  0.00  0.00    +0.000 A 
ATOM      6  C   UNL     1       7.802   6.088  19.170  0.00  0.00    +0.000 C 
ATOM      7  C   UNL     1       6.014   4.544  18.242  0.00  0.00    +0.000 A 
ATOM      8  C   UNL     1       5.421   3.944  17.184  0.00  0.00    +0.000 A 
ATOM      9  N   UNL     1       5.981   4.177  15.909  0.00  0.00    +0.000 N 
ATOM     10  N   UNL     1       5.601   3.675  14.697  0.00  0.00    +0.000 NA
ENDROOT
BRANCH   8  11
ATOM     11  N   UNL     1       4.302   3.131  17.304  0.00  0.00    +0.000 N 
ATOM     12  H   UNL     1       4.450   2.174  16.964  0.00  0.00    +0.000 HD
BRANCH  11  13
ATOM     13  C   UNL     1       3.348   3.219  18.347  0.00  0.00    +0.000 A 
ATOM     14  C   UNL     1       2.572   2.097  18.687  0.00  0.00    +0.000 A 
ATOM     15  C   UNL     1       1.522   2.202  19.605  0.00  0.00    +0.000 A 
ATOM     16  C   UNL     1       1.222   3.428  20.190  0.00  0.00    +0.000 A 
ATOM     17  C   UNL     1       1.991   4.540  19.879  0.00  0.00    +0.000 A 
ATOM     18 CL   UNL     1       1.622   6.067  20.580  0.00  0.00    +0.000 Cl
ATOM     19  C   UNL     1       3.040   4.439  18.974  0.00  0.00    +0.000 A 
ENDBRANCH  11  13
ENDBRANCH   8  11
BRANCH   1  20
ATOM     20  C   UNL     1       6.562   3.930  12.403  0.00  0.00    +0.000 C 
BRANCH  20  22
ATOM     21  C   UNL     1       4.515   3.100  11.448  0.00  0.00    +0.000 C 
ATOM     22  N   UNL     1       5.766   2.734  12.091  0.00  0.00    +0.000 NA
ATOM     23  H   UNL     1       6.317   2.141  11.471  0.00  0.00    +0.000 HD
ENDBRANCH  20  22
ENDBRANCH   1  20
TORSDOF 4
ENDMDL
MODEL 7
REMARK VINA RESULT:      -7.6      1.985      4.679
REMARK  Name = 
REMARK  6 active torsions:
REMARK  status: ('A' for Active; 'I' for Inactive)
REMARK    1  A    between atoms: C_1  and  N_2
REMARK    2  A    between atoms: N_2  and  C_3
REMARK    3  A    between atoms: C_3  and  C_4
REMARK    4  A    between atoms: C_8  and  C_9
REMARK    5  A    between atoms: C_11  and  N_12
REMARK    6  A    between atoms: N_12  and  C_13
REMARK                            x       y       z     vdW  Elec       q    Type
REMARK                         _______ _______ _______ _____ _____    ______ ____
ROOT
ATOM      1  C   UNL     1       7.735   7.054  18.056  0.00  0.00    +0.000 A 
ATOM      2  N   UNL     1       7.667   7.060  16.688  0.00  0.00    +0.000 NA
ATOM      3  C   UNL     1       6.932   6.012  16.403  0.00  0.00    +0.000 A 
ATOM      4  N   UNL     1       6.540   5.554  15.179  0.00  0.00    +0.000 NA
ATOM      5  C   UNL     1       5.772   4.512  15.174  0.00  0.00    +0.000 A 
ATOM      6  C   UNL     1       5.315   3.944  13.855  0.00  0.00    +0.000 C 
ATOM      7  C   UNL     1       5.286   3.794  16.388  0.00  0.00    +0.000 A 
ATOM      8  C   UNL     1       5.702   4.253  17.591  0.00  0.00    +0.000 A 
ATOM      9  N   UNL     1       6.549   5.382  17.597  0.00  0.00    +0.000 N 
ATOM     10  N   UNL     1       7.078   6.056  18.661  0.00  0.00    +0.000 NA
ENDROOT
BRANCH   8  11
ATOM     11  N   UNL     1       5.337   3.662  18.794  0.00  0.00    +0.000 N 
ATOM     12  H   UNL     1       6.119   3.547  19.449  0.00  0.00    +0.000 HD
BRANCH  11  13
ATOM     13  C   UNL     1       4.084   3.835  19.432  0.00  0.00    +0.000 A 
ATOM     14  C   UNL     1       3.240   2.729  19.635  0.00  0.00    +0.000 A 
ATOM     15  C   UNL     1       1.940   2.899  20.122  0.00  0.00    +0.000 A 
ATOM     16  C   UNL     1       1.457   4.172  20.402  0.00  0.00    +0.000 A 
ATOM     17  C   UNL     1       2.285   5.272  20.224  0.00  0.00    +0.000 A 
ATOM     18 CL   UNL     1       1.697   6.856  20.549  0.00  0.00    +0.000 Cl
ATOM     19  C   UNL     1       3.580   5.107  19.749  0.00  0.00    +0.000 A 
ENDBRANCH  11  13
ENDBRANCH   8  11
BRANCH   1  20
ATOM     20  C   UNL     1       8.498   8.109  18.805  0.00  0.00    +0.000 C 
BRANCH  20  22
ATOM     21  C   UNL     1       9.158  10.423  18.790  0.00  0.00    +0.000 C 
ATOM     22  N   UNL     1       8.384   9.399  18.109  0.00  0.00    +0.000 NA
ATOM     23  H   UNL     1       8.728   9.275  17.158  0.00  0.00    +0.000 HD
ENDBRANCH  20  22
ENDBRANCH   1  20
TORSDOF 4
ENDMDL
MODEL 8
REMARK VINA RESULT:      -7.6      1.385      1.774
REMARK  Name = 
REMARK  6 active torsions:
REMARK  status: ('A' for Active; 'I' for Inactive)
REMARK    1  A    between atoms: C_1  and  N_2
REMARK    2  A    between atoms: N_2  and  C_3
REMARK    3  A    between atoms: C_3  and  C_4
REMARK    4  A    between atoms: C_8  and  C_9
REMARK    5  A    between atoms: C_11  and  N_12
REMARK    6  A    between atoms: N_12  and  C_13
REMARK                            x       y       z     vdW  Elec       q    Type
REMARK                         _______ _______ _______ _____ _____    ______ ____
ROOT
ATOM      1  C   UNL     1       6.389   4.088  14.531  0.00  0.00    +0.000 A 
ATOM      2  N   UNL     1       7.019   5.303  14.549  0.00  0.00    +0.000 NA
ATOM      3  C   UNL     1       7.071   5.614  15.822  0.00  0.00    +0.000 A 
ATOM      4  N   UNL     1       7.610   6.723  16.407  0.00  0.00    +0.000 NA
ATOM      5  C   UNL     1       7.569   6.768  17.700  0.00  0.00    +0.000 A 
ATOM      6  C   UNL     1       8.132   7.972  18.410  0.00  0.00    +0.000 C 
ATOM      7  C   UNL     1       6.996   5.710  18.581  0.00  0.00    +0.000 A 
ATOM      8  C   UNL     1       6.450   4.627  17.981  0.00  0.00    +0.000 A 
ATOM      9  N   UNL     1       6.482   4.583  16.570  0.00  0.00    +0.000 N 
ATOM     10  N   UNL     1       6.036   3.603  15.729  0.00  0.00    +0.000 NA
ENDROOT
BRANCH   8  11
ATOM     11  N   UNL     1       5.866   3.584  18.688  0.00  0.00    +0.000 N 
ATOM     12  H   UNL     1       6.491   3.156  19.380  0.00  0.00    +0.000 HD
BRANCH  11  13
ATOM     13  C   UNL     1       4.496   3.516  19.043  0.00  0.00    +0.000 A 
ATOM     14  C   UNL     1       4.086   2.698  20.110  0.00  0.00    +0.000 A 
ATOM     15  C   UNL     1       2.728   2.497  20.380  0.00  0.00    +0.000 A 
ATOM     16  C   UNL     1       1.759   3.098  19.583  0.00  0.00    +0.000 A 
ATOM     17  C   UNL     1       2.149   3.923  18.537  0.00  0.00    +0.000 A 
ATOM     18 CL   UNL     1       0.962   4.658  17.532  0.00  0.00    +0.000 Cl
ATOM     19  C   UNL     1       3.496   4.132  18.271  0.00  0.00    +0.000 A 
ENDBRANCH  11  13
ENDBRANCH   8  11
BRANCH   1  20
ATOM     20  C   UNL     1       6.123   3.363  13.242  0.00  0.00    +0.000 C 
BRANCH  20  22
ATOM     21  C   UNL     1       4.445   3.061  11.545  0.00  0.00    +0.000 C 
ATOM     22  N   UNL     1       4.963   3.959  12.563  0.00  0.00    +0.000 NA
ATOM     23  H   UNL     1       4.247   4.142  13.265  0.00  0.00    +0.000 HD
ENDBRANCH  20  22
ENDBRANCH   1  20
TORSDOF 4
ENDMDL
MODEL 9
REMARK VINA RESULT:      -7.6      3.640      5.730
REMARK  Name = 
REMARK  6 active torsions:
REMARK  status: ('A' for Active; 'I' for Inactive)
REMARK    1  A    between atoms: C_1  and  N_2
REMARK    2  A    between atoms: N_2  and  C_3
REMARK    3  A    between atoms: C_3  and  C_4
REMARK    4  A    between atoms: C_8  and  C_9
REMARK    5  A    between atoms: C_11  and  N_12
REMARK    6  A    between atoms: N_12  and  C_13
REMARK                            x       y       z     vdW  Elec       q    Type
REMARK                         _______ _______ _______ _____ _____    ______ ____
ROOT
ATOM      1  C   UNL     1       5.870   4.766  18.419  0.00  0.00    +0.000 A 
ATOM      2  N   UNL     1       5.264   3.594  18.054  0.00  0.00    +0.000 NA
ATOM      3  C   UNL     1       4.045   3.709  18.522  0.00  0.00    +0.000 A 
ATOM      4  N   UNL     1       3.010   2.824  18.430  0.00  0.00    +0.000 NA
ATOM      5  C   UNL     1       1.884   3.201  18.945  0.00  0.00    +0.000 A 
ATOM      6  C   UNL     1       0.703   2.265  18.892  0.00  0.00    +0.000 C 
ATOM      7  C   UNL     1       1.638   4.512  19.612  0.00  0.00    +0.000 A 
ATOM      8  C   UNL     1       2.682   5.367  19.710  0.00  0.00    +0.000 A 
ATOM      9  N   UNL     1       3.913   4.952  19.159  0.00  0.00    +0.000 N 
ATOM     10  N   UNL     1       5.099   5.627  19.096  0.00  0.00    +0.000 NA
ENDROOT
BRANCH   8  11
ATOM     11  N   UNL     1       2.588   6.609  20.325  0.00  0.00    +0.000 N 
ATOM     12  H   UNL     1       3.389   6.830  20.927  0.00  0.00    +0.000 HD
BRANCH  11  13
ATOM     13  C   UNL     1       1.979   7.751  19.751  0.00  0.00    +0.000 A 
ATOM     14  C   UNL     1       2.241   8.089  18.411  0.00  0.00    +0.000 A 
ATOM     15  C   UNL     1       1.774   9.292  17.870  0.00  0.00    +0.000 A 
ATOM     16  C   UNL     1       1.051  10.181  18.657  0.00  0.00    +0.000 A 
ATOM     17  C   UNL     1       0.768   9.852  19.976  0.00  0.00    +0.000 A 
ATOM     18 CL   UNL     1      -0.110  10.950  20.968  0.00  0.00    +0.000 Cl
ATOM     19  C   UNL     1       1.222   8.655  20.515  0.00  0.00    +0.000 A 
ENDBRANCH  11  13
ENDBRANCH   8  11
BRANCH   1  20
ATOM     20  C   UNL     1       7.304   5.047  18.069  0.00  0.00    +0.000 C 
BRANCH  20  22
ATOM     21  C   UNL     1       7.241   4.836  15.673  0.00  0.00    +0.000 C 
ATOM     22  N   UNL     1       7.705   4.234  16.912  0.00  0.00    +0.000 NA
ATOM     23  H   UNL     1       8.723   4.170  16.910  0.00  0.00    +0.000 HD
ENDBRANCH  20  22
ENDBRANCH   1  20
TORSDOF 4
ENDMDL
