MODEL 1
REMARK VINA RESULT:      -7.9      0.000      0.000
REMARK  Name = 
REMARK  6 active torsions:
REMARK  status: ('A' for Active; 'I' for Inactive)
REMARK    1  A    between atoms: C_2  and  C_5
REMARK    2  A    between atoms: N_3  and  O_4
REMARK    3  A    between atoms: C_8  and  S_9
REMARK    4  A    between atoms: S_9  and  C_10
REMARK    5  A    between atoms: C_12  and  C_13
REMARK    6  A    between atoms: N_16  and  C_17
REMARK                            x       y       z     vdW  Elec       q    Type
REMARK                         _______ _______ _______ _____ _____    ______ ____
ROOT
ATOM      1  C   UNL     1       4.728   5.304  19.182  0.00  0.00    +0.000 A 
ATOM      2  N   UNL     1       3.837   4.453  19.769  0.00  0.00    +0.000 NA
ATOM      3  C   UNL     1       2.794   5.221  20.026  0.00  0.00    +0.000 A 
ATOM      4  N   UNL     1       3.039   6.504  19.549  0.00  0.00    +0.000 N 
ATOM      5  N   UNL     1       4.269   6.540  18.983  0.00  0.00    +0.000 NA
ENDROOT
BRANCH   4   6
ATOM      6  C   UNL     1       2.142   7.596  19.397  0.00  0.00    +0.000 A 
ATOM      7  C   UNL     1       1.929   8.213  18.162  0.00  0.00    +0.000 A 
ATOM      8  C   UNL     1       1.167   9.380  18.080  0.00  0.00    +0.000 A 
ATOM      9  C   UNL     1       0.602   9.925  19.232  0.00  0.00    +0.000 A 
ATOM     10  C   UNL     1       0.755   9.279  20.457  0.00  0.00    +0.000 A 
ATOM     11  C   UNL     1       1.508   8.106  20.541  0.00  0.00    +0.000 A 
ENDBRANCH   4   6
BRANCH   3  12
ATOM     12  C   UNL     1       1.486   4.680  20.597  0.00  0.00    +0.000 C 
ATOM     13  C   UNL     1       0.798   3.551  19.871  0.00  0.00    +0.000 C 
ATOM     14  C   UNL     1       1.409   3.316  21.224  0.00  0.00    +0.000 C 
ENDBRANCH   3  12
BRANCH   1  15
ATOM     15  S   UNL     1       6.334   4.899  18.622  0.00  0.00    +0.000 S 
BRANCH  15  19
ATOM     16  C   UNL     1       6.029   3.971  14.130  0.00  0.00    +0.000 A 
ATOM     17  C   UNL     1       7.152   4.649  14.615  0.00  0.00    +0.000 A 
ATOM     18  C   UNL     1       7.257   4.949  15.979  0.00  0.00    +0.000 A 
ATOM     19  C   UNL     1       6.246   4.593  16.871  0.00  0.00    +0.000 A 
ATOM     20  C   UNL     1       5.142   3.871  16.380  0.00  0.00    +0.000 A 
ATOM     21  C   UNL     1       5.029   3.559  15.021  0.00  0.00    +0.000 A 
BRANCH  16  23
ATOM     22  O   UNL     1       6.896   3.818  11.924  0.00  0.00    +0.000 OA
ATOM     23  C   UNL     1       5.933   3.682  12.674  0.00  0.00    +0.000 C 
ATOM     24  N   UNL     1       4.690   3.308  12.212  0.00  0.00    +0.000 N 
ATOM     25  H   UNL     1       3.837   3.530  12.715  0.00  0.00    +0.000 HD
BRANCH  24  26
ATOM     26  O   UNL     1       4.571   3.199  10.806  0.00  0.00    +0.000 OA
ATOM     27  H   UNL     1       3.755   3.715  10.627  0.00  0.00    +0.000 HD
ENDBRANCH  24  26
ENDBRANCH  16  23
ENDBRANCH  15  19
ENDBRANCH   1  15
TORSDOF 6
ENDMDL
MODEL 2
REMARK VINA RESULT:      -7.6      4.143      5.663
REMARK  Name = 
REMARK  6 active torsions:
REMARK  status: ('A' for Active; 'I' for Inactive)
REMARK    1  A    between atoms: C_2  and  C_5
REMARK    2  A    between atoms: N_3  and  O_4
REMARK    3  A    between atoms: C_8  and  S_9
REMARK    4  A    between atoms: S_9  and  C_10
REMARK    5  A    between atoms: C_12  and  C_13
REMARK    6  A    between atoms: N_16  and  C_17
REMARK                            x       y       z     vdW  Elec       q    Type
REMARK                         _______ _______ _______ _____ _____    ______ ____
ROOT
ATOM      1  C   UNL     1       1.656   8.927  18.637  0.00  0.00    +0.000 A 
ATOM      2  N   UNL     1       1.448   8.610  19.948  0.00  0.00    +0.000 NA
ATOM      3  C   UNL     1       0.369   9.299  20.269  0.00  0.00    +0.000 A 
ATOM      4  N   UNL     1      -0.093   9.979  19.146  0.00  0.00    +0.000 N 
ATOM      5  N   UNL     1       0.722   9.710  18.098  0.00  0.00    +0.000 NA
ENDROOT
BRANCH   4   6
ATOM      6  C   UNL     1      -1.325  10.658  18.948  0.00  0.00    +0.000 A 
ATOM      7  C   UNL     1      -1.661  11.808  19.668  0.00  0.00    +0.000 A 
ATOM      8  C   UNL     1      -2.942  12.354  19.563  0.00  0.00    +0.000 A 
ATOM      9  C   UNL     1      -3.886  11.762  18.726  0.00  0.00    +0.000 A 
ATOM     10  C   UNL     1      -3.537  10.655  17.955  0.00  0.00    +0.000 A 
ATOM     11  C   UNL     1      -2.255  10.111  18.049  0.00  0.00    +0.000 A 
ENDBRANCH   4   6
BRANCH   3  12
ATOM     12  C   UNL     1      -0.317   9.183  21.627  0.00  0.00    +0.000 C 
ATOM     13  C   UNL     1       0.518   9.363  22.871  0.00  0.00    +0.000 C 
ATOM     14  C   UNL     1      -0.524  10.384  22.507  0.00  0.00    +0.000 C 
ENDBRANCH   3  12
BRANCH   1  15
ATOM     15  S   UNL     1       2.960   8.349  17.625  0.00  0.00    +0.000 S 
BRANCH  15  19
ATOM     16  C   UNL     1       3.682   3.972  18.833  0.00  0.00    +0.000 A 
ATOM     17  C   UNL     1       4.713   4.905  18.987  0.00  0.00    +0.000 A 
ATOM     18  C   UNL     1       4.514   6.240  18.615  0.00  0.00    +0.000 A 
ATOM     19  C   UNL     1       3.299   6.660  18.075  0.00  0.00    +0.000 A 
ATOM     20  C   UNL     1       2.254   5.724  17.967  0.00  0.00    +0.000 A 
ATOM     21  C   UNL     1       2.438   4.389  18.342  0.00  0.00    +0.000 A 
BRANCH  16  23
ATOM     22  O   UNL     1       3.061   1.694  19.087  0.00  0.00    +0.000 OA
ATOM     23  C   UNL     1       3.926   2.557  19.217  0.00  0.00    +0.000 C 
ATOM     24  N   UNL     1       5.156   2.284  19.774  0.00  0.00    +0.000 N 
ATOM     25  H   UNL     1       5.724   3.005  20.209  0.00  0.00    +0.000 HD
BRANCH  24  26
ATOM     26  O   UNL     1       5.315   0.975  20.287  0.00  0.00    +0.000 OA
ATOM     27  H   UNL     1       6.207   1.020  20.697  0.00  0.00    +0.000 HD
ENDBRANCH  24  26
ENDBRANCH  16  23
ENDBRANCH  15  19
ENDBRANCH   1  15
TORSDOF 6
ENDMDL
MODEL 3
REMARK VINA RESULT:      -7.6      0.170      1.375
REMARK  Name = 
REMARK  6 active torsions:
REMARK  status: ('A' for Active; 'I' for Inactive)
REMARK    1  A    between atoms: C_2  and  C_5
REMARK    2  A    between atoms: N_3  and  O_4
REMARK    3  A    between atoms: C_8  and  S_9
REMARK    4  A    between atoms: S_9  and  C_10
REMARK    5  A    between atoms: C_12  and  C_13
REMARK    6  A    between atoms: N_16  and  C_17
REMARK                            x       y       z     vdW  Elec       q    Type
REMARK                         _______ _______ _______ _____ _____    ______ ____
ROOT
ATOM      1  C   UNL     1       4.673   5.319  19.217  0.00  0.00    +0.000 A 
ATOM      2  N   UNL     1       3.748   4.447  19.714  0.00  0.00    +0.000 NA
ATOM      3  C   UNL     1       2.729   5.222  20.035  0.00  0.00    +0.000 A 
ATOM      4  N   UNL     1       3.022   6.536  19.684  0.00  0.00    +0.000 N 
ATOM      5  N   UNL     1       4.259   6.583  19.133  0.00  0.00    +0.000 NA
ENDROOT
BRANCH   4   6
ATOM      6  C   UNL     1       2.164   7.667  19.630  0.00  0.00    +0.000 A 
ATOM      7  C   UNL     1       1.423   8.088  20.738  0.00  0.00    +0.000 A 
ATOM      8  C   UNL     1       0.472   9.101  20.604  0.00  0.00    +0.000 A 
ATOM      9  C   UNL     1       0.269   9.708  19.366  0.00  0.00    +0.000 A 
ATOM     10  C   UNL     1       1.050   9.339  18.273  0.00  0.00    +0.000 A 
ATOM     11  C   UNL     1       2.009   8.333  18.404  0.00  0.00    +0.000 A 
ENDBRANCH   4   6
BRANCH   3  12
ATOM     12  C   UNL     1       1.398   4.675  20.543  0.00  0.00    +0.000 C 
ATOM     13  C   UNL     1       0.758   3.533  19.793  0.00  0.00    +0.000 C 
ATOM     14  C   UNL     1       1.300   3.316  21.179  0.00  0.00    +0.000 C 
ENDBRANCH   3  12
BRANCH   1  15
ATOM     15  S   UNL     1       6.271   4.913  18.633  0.00  0.00    +0.000 S 
BRANCH  15  19
ATOM     16  C   UNL     1       6.015   3.999  14.135  0.00  0.00    +0.000 A 
ATOM     17  C   UNL     1       4.949   3.643  14.969  0.00  0.00    +0.000 A 
ATOM     18  C   UNL     1       5.014   3.905  16.343  0.00  0.00    +0.000 A 
ATOM     19  C   UNL     1       6.139   4.508  16.905  0.00  0.00    +0.000 A 
ATOM     20  C   UNL     1       7.186   4.903  16.051  0.00  0.00    +0.000 A 
ATOM     21  C   UNL     1       7.129   4.653  14.676  0.00  0.00    +0.000 A 
BRANCH  16  23
ATOM     22  O   UNL     1       6.901   3.802  11.941  0.00  0.00    +0.000 OA
ATOM     23  C   UNL     1       5.929   3.691  12.683  0.00  0.00    +0.000 C 
ATOM     24  N   UNL     1       4.685   3.327  12.214  0.00  0.00    +0.000 N 
ATOM     25  H   UNL     1       3.830   3.569  12.705  0.00  0.00    +0.000 HD
BRANCH  24  26
ATOM     26  O   UNL     1       4.578   3.200  10.809  0.00  0.00    +0.000 OA
ATOM     27  H   UNL     1       5.405   3.630  10.499  0.00  0.00    +0.000 HD
ENDBRANCH  24  26
ENDBRANCH  16  23
ENDBRANCH  15  19
ENDBRANCH   1  15
TORSDOF 6
ENDMDL
MODEL 4
REMARK VINA RESULT:      -7.6      1.456      3.706
REMARK  Name = 
REMARK  6 active torsions:
REMARK  status: ('A' for Active; 'I' for Inactive)
REMARK    1  A    between atoms: C_2  and  C_5
REMARK    2  A    between atoms: N_3  and  O_4
REMARK    3  A    between atoms: C_8  and  S_9
REMARK    4  A    between atoms: S_9  and  C_10
REMARK    5  A    between atoms: C_12  and  C_13
REMARK    6  A    between atoms: N_16  and  C_17
REMARK                            x       y       z     vdW  Elec       q    Type
REMARK                         _______ _______ _______ _____ _____    ______ ____
ROOT
ATOM      1  C   UNL     1       4.712   6.390  17.418  0.00  0.00    +0.000 A 
ATOM      2  N   UNL     1       3.842   7.440  17.476  0.00  0.00    +0.000 NA
ATOM      3  C   UNL     1       2.801   6.949  18.121  0.00  0.00    +0.000 A 
ATOM      4  N   UNL     1       3.068   5.635  18.491  0.00  0.00    +0.000 N 
ATOM      5  N   UNL     1       4.307   5.295  18.061  0.00  0.00    +0.000 NA
ENDROOT
BRANCH   4   6
ATOM      6  C   UNL     1       2.353   4.785  19.378  0.00  0.00    +0.000 A 
ATOM      7  C   UNL     1       2.579   4.797  20.757  0.00  0.00    +0.000 A 
ATOM      8  C   UNL     1       1.978   3.840  21.577  0.00  0.00    +0.000 A 
ATOM      9  C   UNL     1       1.135   2.878  21.022  0.00  0.00    +0.000 A 
ATOM     10  C   UNL     1       0.852   2.902  19.658  0.00  0.00    +0.000 A 
ATOM     11  C   UNL     1       1.444   3.863  18.836  0.00  0.00    +0.000 A 
ENDBRANCH   4   6
BRANCH   3  12
ATOM     12  C   UNL     1       1.598   7.798  18.523  0.00  0.00    +0.000 C 
ATOM     13  C   UNL     1       1.669   8.581  19.810  0.00  0.00    +0.000 C 
ATOM     14  C   UNL     1       1.650   9.299  18.490  0.00  0.00    +0.000 C 
ENDBRANCH   3  12
BRANCH   1  15
ATOM     15  S   UNL     1       6.288   6.390  16.659  0.00  0.00    +0.000 S 
BRANCH  15  19
ATOM     16  C   UNL     1       5.982   3.588  13.028  0.00  0.00    +0.000 A 
ATOM     17  C   UNL     1       7.172   4.286  13.257  0.00  0.00    +0.000 A 
ATOM     18  C   UNL     1       7.280   5.151  14.352  0.00  0.00    +0.000 A 
ATOM     19  C   UNL     1       6.207   5.344  15.222  0.00  0.00    +0.000 A 
ATOM     20  C   UNL     1       5.030   4.602  15.009  0.00  0.00    +0.000 A 
ATOM     21  C   UNL     1       4.913   3.729  13.922  0.00  0.00    +0.000 A 
BRANCH  16  23
ATOM     22  O   UNL     1       4.847   2.577  11.203  0.00  0.00    +0.000 OA
ATOM     23  C   UNL     1       5.887   2.691  11.846  0.00  0.00    +0.000 C 
ATOM     24  N   UNL     1       7.016   1.958  11.550  0.00  0.00    +0.000 N 
ATOM     25  H   UNL     1       7.732   1.765  12.244  0.00  0.00    +0.000 HD
BRANCH  24  26
ATOM     26  O   UNL     1       6.862   0.989  10.531  0.00  0.00    +0.000 OA
ATOM     27  H   UNL     1       6.691   0.170  11.047  0.00  0.00    +0.000 HD
ENDBRANCH  24  26
ENDBRANCH  16  23
ENDBRANCH  15  19
ENDBRANCH   1  15
TORSDOF 6
ENDMDL
MODEL 5
REMARK VINA RESULT:      -7.6      5.067      8.499
REMARK  Name = 
REMARK  6 active torsions:
REMARK  status: ('A' for Active; 'I' for Inactive)
REMARK    1  A    between atoms: C_2  and  C_5
REMARK    2  A    between atoms: N_3  and  O_4
REMARK    3  A    between atoms: C_8  and  S_9
REMARK    4  A    between atoms: S_9  and  C_10
REMARK    5  A    between atoms: C_12  and  C_13
REMARK    6  A    between atoms: N_16  and  C_17
REMARK                            x       y       z     vdW  Elec       q    Type
REMARK                         _______ _______ _______ _____ _____    ______ ____
ROOT
ATOM      1  C   UNL     1       1.802   8.608  19.538  0.00  0.00    +0.000 A 
ATOM      2  N   UNL     1       2.538   8.375  18.412  0.00  0.00    +0.000 NA
ATOM      3  C   UNL     1       2.791   7.080  18.465  0.00  0.00    +0.000 A 
ATOM      4  N   UNL     1       2.168   6.537  19.584  0.00  0.00    +0.000 N 
ATOM      5  N   UNL     1       1.512   7.518  20.249  0.00  0.00    +0.000 NA
ENDROOT
BRANCH   4   6
ATOM      6  C   UNL     1       1.972   5.173  19.932  0.00  0.00    +0.000 A 
ATOM      7  C   UNL     1       1.304   4.281  19.088  0.00  0.00    +0.000 A 
ATOM      8  C   UNL     1       0.990   2.995  19.530  0.00  0.00    +0.000 A 
ATOM      9  C   UNL     1       1.356   2.590  20.813  0.00  0.00    +0.000 A 
ATOM     10  C   UNL     1       2.080   3.450  21.635  0.00  0.00    +0.000 A 
ATOM     11  C   UNL     1       2.405   4.734  21.194  0.00  0.00    +0.000 A 
ENDBRANCH   4   6
BRANCH   3  12
ATOM     12  C   UNL     1       3.509   6.328  17.349  0.00  0.00    +0.000 C 
ATOM     13  C   UNL     1       4.919   6.736  16.999  0.00  0.00    +0.000 C 
ATOM     14  C   UNL     1       4.656   5.402  17.638  0.00  0.00    +0.000 C 
ENDBRANCH   3  12
BRANCH   1  15
ATOM     15  S   UNL     1       1.170  10.151  20.062  0.00  0.00    +0.000 S 
BRANCH  15  19
ATOM     16  C   UNL     1      -2.669  10.904  17.648  0.00  0.00    +0.000 A 
ATOM     17  C   UNL     1      -2.451  11.621  18.829  0.00  0.00    +0.000 A 
ATOM     18  C   UNL     1      -1.292  11.397  19.582  0.00  0.00    +0.000 A 
ATOM     19  C   UNL     1      -0.347  10.453  19.181  0.00  0.00    +0.000 A 
ATOM     20  C   UNL     1      -0.554   9.771  17.967  0.00  0.00    +0.000 A 
ATOM     21  C   UNL     1      -1.704   9.991  17.202  0.00  0.00    +0.000 A 
BRANCH  16  23
ATOM     22  O   UNL     1      -4.077  10.691  15.747  0.00  0.00    +0.000 OA
ATOM     23  C   UNL     1      -3.917  11.146  16.877  0.00  0.00    +0.000 C 
ATOM     24  N   UNL     1      -4.856  11.953  17.483  0.00  0.00    +0.000 N 
ATOM     25  H   UNL     1      -4.611  12.608  18.219  0.00  0.00    +0.000 HD
BRANCH  24  26
ATOM     26  O   UNL     1      -5.962  12.311  16.676  0.00  0.00    +0.000 OA
ATOM     27  H   UNL     1      -5.625  12.130  15.771  0.00  0.00    +0.000 HD
ENDBRANCH  24  26
ENDBRANCH  16  23
ENDBRANCH  15  19
ENDBRANCH   1  15
TORSDOF 6
ENDMDL
MODEL 6
REMARK VINA RESULT:      -7.6      5.088      8.582
REMARK  Name = 
REMARK  6 active torsions:
REMARK  status: ('A' for Active; 'I' for Inactive)
REMARK    1  A    between atoms: C_2  and  C_5
REMARK    2  A    between atoms: N_3  and  O_4
REMARK    3  A    between atoms: C_8  and  S_9
REMARK    4  A    between atoms: S_9  and  C_10
REMARK    5  A    between atoms: C_12  and  C_13
REMARK    6  A    between atoms: N_16  and  C_17
REMARK                            x       y       z     vdW  Elec       q    Type
REMARK                         _______ _______ _______ _____ _____    ______ ____
ROOT
ATOM      1  C   UNL     1       1.656   8.535  19.789  0.00  0.00    +0.000 A 
ATOM      2  N   UNL     1       2.397   8.260  18.676  0.00  0.00    +0.000 NA
ATOM      3  C   UNL     1       2.648   6.968  18.778  0.00  0.00    +0.000 A 
ATOM      4  N   UNL     1       2.020   6.466  19.913  0.00  0.00    +0.000 N 
ATOM      5  N   UNL     1       1.362   7.472  20.538  0.00  0.00    +0.000 NA
ENDROOT
BRANCH   4   6
ATOM      6  C   UNL     1       1.821   5.117  20.311  0.00  0.00    +0.000 A 
ATOM      7  C   UNL     1       2.479   4.564  21.413  0.00  0.00    +0.000 A 
ATOM      8  C   UNL     1       2.384   3.197  21.677  0.00  0.00    +0.000 A 
ATOM      9  C   UNL     1       1.617   2.379  20.849  0.00  0.00    +0.000 A 
ATOM     10  C   UNL     1       0.905   2.933  19.788  0.00  0.00    +0.000 A 
ATOM     11  C   UNL     1       0.990   4.302  19.526  0.00  0.00    +0.000 A 
ENDBRANCH   4   6
BRANCH   3  12
ATOM     12  C   UNL     1       3.370   6.174  17.693  0.00  0.00    +0.000 C 
ATOM     13  C   UNL     1       4.825   6.475  17.431  0.00  0.00    +0.000 C 
ATOM     14  C   UNL     1       4.424   5.158  18.034  0.00  0.00    +0.000 C 
ENDBRANCH   3  12
BRANCH   1  15
ATOM     15  S   UNL     1       1.024  10.097  20.253  0.00  0.00    +0.000 S 
BRANCH  15  19
ATOM     16  C   UNL     1      -2.690  11.042  17.713  0.00  0.00    +0.000 A 
ATOM     17  C   UNL     1      -1.774  10.086  17.260  0.00  0.00    +0.000 A 
ATOM     18  C   UNL     1      -0.633   9.793  18.016  0.00  0.00    +0.000 A 
ATOM     19  C   UNL     1      -0.380  10.452  19.218  0.00  0.00    +0.000 A 
ATOM     20  C   UNL     1      -1.330  11.379  19.688  0.00  0.00    +0.000 A 
ATOM     21  C   UNL     1      -2.478  11.675  18.945  0.00  0.00    +0.000 A 
BRANCH  16  23
ATOM     22  O   UNL     1      -3.928  11.067  15.687  0.00  0.00    +0.000 OA
ATOM     23  C   UNL     1      -3.883  11.349  16.882  0.00  0.00    +0.000 C 
ATOM     24  N   UNL     1      -4.909  12.014  17.518  0.00  0.00    +0.000 N 
ATOM     25  H   UNL     1      -4.759  12.557  18.362  0.00  0.00    +0.000 HD
BRANCH  24  26
ATOM     26  O   UNL     1      -5.964  12.447  16.680  0.00  0.00    +0.000 OA
ATOM     27  H   UNL     1      -6.484  13.023  17.283  0.00  0.00    +0.000 HD
ENDBRANCH  24  26
ENDBRANCH  16  23
ENDBRANCH  15  19
ENDBRANCH   1  15
TORSDOF 6
ENDMDL
MODEL 7
REMARK VINA RESULT:      -7.5      3.921      5.635
REMARK  Name = 
REMARK  6 active torsions:
REMARK  status: ('A' for Active; 'I' for Inactive)
REMARK    1  A    between atoms: C_2  and  C_5
REMARK    2  A    between atoms: N_3  and  O_4
REMARK    3  A    between atoms: C_8  and  S_9
REMARK    4  A    between atoms: S_9  and  C_10
REMARK    5  A    between atoms: C_12  and  C_13
REMARK    6  A    between atoms: N_16  and  C_17
REMARK                            x       y       z     vdW  Elec       q    Type
REMARK                         _______ _______ _______ _____ _____    ______ ____
ROOT
ATOM      1  C   UNL     1       1.631   9.077  18.516  0.00  0.00    +0.000 A 
ATOM      2  N   UNL     1       1.538   9.069  19.877  0.00  0.00    +0.000 NA
ATOM      3  C   UNL     1       0.417   9.724  20.118  0.00  0.00    +0.000 A 
ATOM      4  N   UNL     1      -0.179  10.073  18.910  0.00  0.00    +0.000 N 
ATOM      5  N   UNL     1       0.592   9.628  17.889  0.00  0.00    +0.000 NA
ENDROOT
BRANCH   4   6
ATOM      6  C   UNL     1      -1.483  10.581  18.662  0.00  0.00    +0.000 A 
ATOM      7  C   UNL     1      -1.978  11.706  19.327  0.00  0.00    +0.000 A 
ATOM      8  C   UNL     1      -3.315  12.079  19.178  0.00  0.00    +0.000 A 
ATOM      9  C   UNL     1      -4.157  11.339  18.350  0.00  0.00    +0.000 A 
ATOM     10  C   UNL     1      -3.654  10.256  17.632  0.00  0.00    +0.000 A 
ATOM     11  C   UNL     1      -2.315   9.885  17.771  0.00  0.00    +0.000 A 
ENDBRANCH   4   6
BRANCH   3  12
ATOM     12  C   UNL     1      -0.168   9.883  21.518  0.00  0.00    +0.000 C 
ATOM     13  C   UNL     1      -0.682   8.654  22.226  0.00  0.00    +0.000 C 
ATOM     14  C   UNL     1       0.547   9.357  22.731  0.00  0.00    +0.000 C 
ENDBRANCH   3  12
BRANCH   1  15
ATOM     15  S   UNL     1       2.921   8.381  17.562  0.00  0.00    +0.000 S 
BRANCH  15  19
ATOM     16  C   UNL     1       3.651   4.027  18.843  0.00  0.00    +0.000 A 
ATOM     17  C   UNL     1       2.340   4.476  18.657  0.00  0.00    +0.000 A 
ATOM     18  C   UNL     1       2.098   5.801  18.277  0.00  0.00    +0.000 A 
ATOM     19  C   UNL     1       3.151   6.697  18.091  0.00  0.00    +0.000 A 
ATOM     20  C   UNL     1       4.468   6.223  18.236  0.00  0.00    +0.000 A 
ATOM     21  C   UNL     1       4.722   4.899  18.609  0.00  0.00    +0.000 A 
BRANCH  16  23
ATOM     22  O   UNL     1       3.965   2.308  20.452  0.00  0.00    +0.000 OA
ATOM     23  C   UNL     1       3.879   2.620  19.267  0.00  0.00    +0.000 C 
ATOM     24  N   UNL     1       4.041   1.701  18.253  0.00  0.00    +0.000 N 
ATOM     25  H   UNL     1       4.327   1.974  17.318  0.00  0.00    +0.000 HD
BRANCH  24  26
ATOM     26  O   UNL     1       4.422   0.402  18.665  0.00  0.00    +0.000 OA
ATOM     27  H   UNL     1       5.337   0.548  18.991  0.00  0.00    +0.000 HD
ENDBRANCH  24  26
ENDBRANCH  16  23
ENDBRANCH  15  19
ENDBRANCH   1  15
TORSDOF 6
ENDMDL
MODEL 8
REMARK VINA RESULT:      -7.5      5.097      8.658
REMARK  Name = 
REMARK  6 active torsions:
REMARK  status: ('A' for Active; 'I' for Inactive)
REMARK    1  A    between atoms: C_2  and  C_5
REMARK    2  A    between atoms: N_3  and  O_4
REMARK    3  A    between atoms: C_8  and  S_9
REMARK    4  A    between atoms: S_9  and  C_10
REMARK    5  A    between atoms: C_12  and  C_13
REMARK    6  A    between atoms: N_16  and  C_17
REMARK                            x       y       z     vdW  Elec       q    Type
REMARK                         _______ _______ _______ _____ _____    ______ ____
ROOT
ATOM      1  C   UNL     1       1.597   8.479  20.090  0.00  0.00    +0.000 A 
ATOM      2  N   UNL     1       2.273   8.270  18.924  0.00  0.00    +0.000 NA
ATOM      3  C   UNL     1       2.523   6.974  18.934  0.00  0.00    +0.000 A 
ATOM      4  N   UNL     1       1.954   6.407  20.071  0.00  0.00    +0.000 N 
ATOM      5  N   UNL     1       1.338   7.375  20.790  0.00  0.00    +0.000 NA
ENDROOT
BRANCH   4   6
ATOM      6  C   UNL     1       1.770   5.036  20.397  0.00  0.00    +0.000 A 
ATOM      7  C   UNL     1       2.454   4.427  21.453  0.00  0.00    +0.000 A 
ATOM      8  C   UNL     1       2.370   3.047  21.642  0.00  0.00    +0.000 A 
ATOM      9  C   UNL     1       1.588   2.272  20.787  0.00  0.00    +0.000 A 
ATOM     10  C   UNL     1       0.851   2.880  19.773  0.00  0.00    +0.000 A 
ATOM     11  C   UNL     1       0.925   4.262  19.585  0.00  0.00    +0.000 A 
ENDBRANCH   4   6
BRANCH   3  12
ATOM     12  C   UNL     1       3.180   6.245  17.766  0.00  0.00    +0.000 C 
ATOM     13  C   UNL     1       4.658   6.441  17.537  0.00  0.00    +0.000 C 
ATOM     14  C   UNL     1       4.135   5.106  17.989  0.00  0.00    +0.000 C 
ENDBRANCH   3  12
BRANCH   1  15
ATOM     15  S   UNL     1       0.999  10.013  20.682  0.00  0.00    +0.000 S 
BRANCH  15  19
ATOM     16  C   UNL     1      -2.583  11.143  18.032  0.00  0.00    +0.000 A 
ATOM     17  C   UNL     1      -2.377  11.828  19.234  0.00  0.00    +0.000 A 
ATOM     18  C   UNL     1      -1.296  11.490  20.058  0.00  0.00    +0.000 A 
ATOM     19  C   UNL     1      -0.420  10.463  19.707  0.00  0.00    +0.000 A 
ATOM     20  C   UNL     1      -0.611   9.811  18.475  0.00  0.00    +0.000 A 
ATOM     21  C   UNL     1      -1.682  10.145  17.639  0.00  0.00    +0.000 A 
BRANCH  16  23
ATOM     22  O   UNL     1      -3.838  11.141  16.016  0.00  0.00    +0.000 OA
ATOM     23  C   UNL     1      -3.750  11.507  17.185  0.00  0.00    +0.000 C 
ATOM     24  N   UNL     1      -4.693  12.322  17.772  0.00  0.00    +0.000 N 
ATOM     25  H   UNL     1      -4.477  12.910  18.571  0.00  0.00    +0.000 HD
BRANCH  24  26
ATOM     26  O   UNL     1      -5.709  12.797  16.909  0.00  0.00    +0.000 OA
ATOM     27  H   UNL     1      -6.505  12.757  17.484  0.00  0.00    +0.000 HD
ENDBRANCH  24  26
ENDBRANCH  16  23
ENDBRANCH  15  19
ENDBRANCH   1  15
TORSDOF 6
ENDMDL
MODEL 9
REMARK VINA RESULT:      -7.5      4.523      7.842
REMARK  Name = 
REMARK  6 active torsions:
REMARK  status: ('A' for Active; 'I' for Inactive)
REMARK    1  A    between atoms: C_2  and  C_5
REMARK    2  A    between atoms: N_3  and  O_4
REMARK    3  A    between atoms: C_8  and  S_9
REMARK    4  A    between atoms: S_9  and  C_10
REMARK    5  A    between atoms: C_12  and  C_13
REMARK    6  A    between atoms: N_16  and  C_17
REMARK                            x       y       z     vdW  Elec       q    Type
REMARK                         _______ _______ _______ _____ _____    ______ ____
ROOT
ATOM      1  C   UNL     1       1.941   7.236  20.484  0.00  0.00    +0.000 A 
ATOM      2  N   UNL     1       1.352   6.058  20.843  0.00  0.00    +0.000 NA
ATOM      3  C   UNL     1       1.972   5.160  20.100  0.00  0.00    +0.000 A 
ATOM      4  N   UNL     1       2.956   5.788  19.345  0.00  0.00    +0.000 N 
ATOM      5  N   UNL     1       2.949   7.115  19.620  0.00  0.00    +0.000 NA
ENDROOT
BRANCH   4   6
ATOM      6  C   UNL     1       4.008   5.216  18.580  0.00  0.00    +0.000 A 
ATOM      7  C   UNL     1       5.349   5.341  18.954  0.00  0.00    +0.000 A 
ATOM      8  C   UNL     1       6.362   4.906  18.098  0.00  0.00    +0.000 A 
ATOM      9  C   UNL     1       6.038   4.330  16.871  0.00  0.00    +0.000 A 
ATOM     10  C   UNL     1       4.703   4.141  16.520  0.00  0.00    +0.000 A 
ATOM     11  C   UNL     1       3.686   4.566  17.378  0.00  0.00    +0.000 A 
ENDBRANCH   4   6
BRANCH   3  12
ATOM     12  C   UNL     1       1.721   3.660  20.230  0.00  0.00    +0.000 C 
ATOM     13  C   UNL     1       2.713   2.831  21.006  0.00  0.00    +0.000 C 
ATOM     14  C   UNL     1       1.324   3.042  21.541  0.00  0.00    +0.000 C 
ENDBRANCH   3  12
BRANCH   1  15
ATOM     15  S   UNL     1       1.544   8.823  21.101  0.00  0.00    +0.000 S 
BRANCH  15  19
ATOM     16  C   UNL     1      -1.606  10.744  18.358  0.00  0.00    +0.000 A 
ATOM     17  C   UNL     1      -0.687   9.839  17.817  0.00  0.00    +0.000 A 
ATOM     18  C   UNL     1       0.286   9.252  18.636  0.00  0.00    +0.000 A 
ATOM     19  C   UNL     1       0.366   9.566  19.992  0.00  0.00    +0.000 A 
ATOM     20  C   UNL     1      -0.593  10.442  20.535  0.00  0.00    +0.000 A 
ATOM     21  C   UNL     1      -1.573  11.029  19.729  0.00  0.00    +0.000 A 
BRANCH  16  23
ATOM     22  O   UNL     1      -3.654  11.857  17.901  0.00  0.00    +0.000 OA
ATOM     23  C   UNL     1      -2.616  11.368  17.462  0.00  0.00    +0.000 C 
ATOM     24  N   UNL     1      -2.342  11.317  16.113  0.00  0.00    +0.000 N 
ATOM     25  H   UNL     1      -1.706  10.633  15.716  0.00  0.00    +0.000 HD
BRANCH  24  26
ATOM     26  O   UNL     1      -3.383  11.763  15.264  0.00  0.00    +0.000 OA
ATOM     27  H   UNL     1      -3.463  12.709  15.515  0.00  0.00    +0.000 HD
ENDBRANCH  24  26
ENDBRANCH  16  23
ENDBRANCH  15  19
ENDBRANCH   1  15
TORSDOF 6
ENDMDL
