MODEL 1
REMARK VINA RESULT:      -7.3      0.000      0.000
REMARK  Name = 
REMARK  6 active torsions:
REMARK  status: ('A' for Active; 'I' for Inactive)
REMARK    1  A    between atoms: C_1  and  O_2
REMARK    2  A    between atoms: O_2  and  C_3
REMARK    3  A    between atoms: C_3  and  C_5
REMARK    4  A    between atoms: C_7  and  C_8
REMARK    5  A    between atoms: N_14  and  C_15
REMARK    6  A    between atoms: C_20  and  C_21
REMARK                            x       y       z     vdW  Elec       q    Type
REMARK                         _______ _______ _______ _____ _____    ______ ____
ROOT
ATOM      1  C   UNL     1      -0.078  10.915  21.379  0.00  0.00    +0.000 A 
ATOM      2  C   UNL     1      -0.259  12.056  20.630  0.00  0.00    +0.000 A 
ATOM      3  C   UNL     1      -0.043  11.935  19.285  0.00  0.00    +0.000 A 
ATOM      4  C   UNL     1      -0.423  13.014  18.318  0.00  0.00    +0.000 C 
ATOM      5  N   UNL     1       0.462  10.818  18.742  0.00  0.00    +0.000 NA
ATOM      6  C   UNL     1       0.693   9.764  19.551  0.00  0.00    +0.000 A 
ATOM      7  N   UNL     1       1.303   8.684  19.013  0.00  0.00    +0.000 N 
ATOM      8  C   UNL     1       1.774   8.648  17.633  0.00  0.00    +0.000 C 
ATOM      9  C   UNL     1       3.253   8.206  17.596  0.00  0.00    +0.000 C 
ATOM     10  N   UNL     1       3.428   6.927  18.333  0.00  0.00    +0.000 N 
ATOM     11  C   UNL     1       2.981   7.014  19.738  0.00  0.00    +0.000 C 
ATOM     12  C   UNL     1       1.495   7.463  19.804  0.00  0.00    +0.000 C 
ATOM     13  N   UNL     1       0.380   9.764  20.850  0.00  0.00    +0.000 NA
ENDROOT
BRANCH  10  14
ATOM     14  C   UNL     1       4.027   5.839  17.730  0.00  0.00    +0.000 A 
ATOM     15  C   UNL     1       5.340   6.014  17.214  0.00  0.00    +0.000 A 
ATOM     16  C   UNL     1       6.003   5.059  16.447  0.00  0.00    +0.000 A 
ATOM     17  C   UNL     1       5.373   3.860  16.172  0.00  0.00    +0.000 A 
ATOM     18  C   UNL     1       4.113   3.621  16.711  0.00  0.00    +0.000 A 
ATOM     19  C   UNL     1       3.416   4.582  17.506  0.00  0.00    +0.000 A 
BRANCH  19  20
ATOM     20  C   UNL     1       2.036   4.150  17.925  0.00  0.00    +0.000 C 
ATOM     21  F   UNL     1       1.718   4.180  19.241  0.00  0.00    +0.000 F 
ATOM     22  F   UNL     1       1.074   4.951  17.357  0.00  0.00    +0.000 F 
ATOM     23  F   UNL     1       1.723   2.892  17.519  0.00  0.00    +0.000 F 
ENDBRANCH  19  20
ENDBRANCH  10  14
BRANCH   1  24
ATOM     24  C   UNL     1      -0.435  10.919  22.827  0.00  0.00    +0.000 C 
ATOM     25  O   UNL     1      -0.142   9.995  23.580  0.00  0.00    +0.000 OA
BRANCH  24  27
ATOM     26  C   UNL     1      -2.536  11.846  23.394  0.00  0.00    +0.000 C 
ATOM     27  O   UNL     1      -1.133  12.038  23.187  0.00  0.00    +0.000 OA
ENDBRANCH  24  27
ENDBRANCH   1  24
TORSDOF 4
ENDMDL
MODEL 2
REMARK VINA RESULT:      -7.1      1.790      2.939
REMARK  Name = 
REMARK  6 active torsions:
REMARK  status: ('A' for Active; 'I' for Inactive)
REMARK    1  A    between atoms: C_1  and  O_2
REMARK    2  A    between atoms: O_2  and  C_3
REMARK    3  A    between atoms: C_3  and  C_5
REMARK    4  A    between atoms: C_7  and  C_8
REMARK    5  A    between atoms: N_14  and  C_15
REMARK    6  A    between atoms: C_20  and  C_21
REMARK                            x       y       z     vdW  Elec       q    Type
REMARK                         _______ _______ _______ _____ _____    ______ ____
ROOT
ATOM      1  C   UNL     1      -0.786  11.307  19.520  0.00  0.00    +0.000 A 
ATOM      2  C   UNL     1      -1.262  11.199  20.807  0.00  0.00    +0.000 A 
ATOM      3  C   UNL     1      -0.564  10.370  21.641  0.00  0.00    +0.000 A 
ATOM      4  C   UNL     1      -0.815  10.333  23.118  0.00  0.00    +0.000 C 
ATOM      5  N   UNL     1       0.431   9.589  21.200  0.00  0.00    +0.000 NA
ATOM      6  C   UNL     1       0.792   9.686  19.903  0.00  0.00    +0.000 A 
ATOM      7  N   UNL     1       1.720   8.817  19.445  0.00  0.00    +0.000 N 
ATOM      8  C   UNL     1       2.283   7.753  20.269  0.00  0.00    +0.000 C 
ATOM      9  C   UNL     1       2.161   6.401  19.535  0.00  0.00    +0.000 C 
ATOM     10  N   UNL     1       2.755   6.497  18.175  0.00  0.00    +0.000 N 
ATOM     11  C   UNL     1       2.131   7.555  17.354  0.00  0.00    +0.000 C 
ATOM     12  C   UNL     1       2.235   8.927  18.075  0.00  0.00    +0.000 C 
ATOM     13  N   UNL     1       0.245  10.570  19.063  0.00  0.00    +0.000 NA
ENDROOT
BRANCH  10  14
ATOM     14  C   UNL     1       3.726   5.606  17.763  0.00  0.00    +0.000 A 
ATOM     15  C   UNL     1       5.010   6.130  17.454  0.00  0.00    +0.000 A 
ATOM     16  C   UNL     1       6.034   5.379  16.881  0.00  0.00    +0.000 A 
ATOM     17  C   UNL     1       5.816   4.044  16.602  0.00  0.00    +0.000 A 
ATOM     18  C   UNL     1       4.595   3.474  16.949  0.00  0.00    +0.000 A 
ATOM     19  C   UNL     1       3.532   4.220  17.543  0.00  0.00    +0.000 A 
BRANCH  19  20
ATOM     20  C   UNL     1       2.272   3.428  17.766  0.00  0.00    +0.000 C 
ATOM     21  F   UNL     1       2.194   2.174  17.264  0.00  0.00    +0.000 F 
ATOM     22  F   UNL     1       2.039   3.238  19.108  0.00  0.00    +0.000 F 
ATOM     23  F   UNL     1       1.158   4.056  17.308  0.00  0.00    +0.000 F 
ENDBRANCH  19  20
ENDBRANCH  10  14
BRANCH   1  24
ATOM     24  C   UNL     1      -1.396  12.298  18.588  0.00  0.00    +0.000 C 
ATOM     25  O   UNL     1      -0.807  13.315  18.232  0.00  0.00    +0.000 OA
BRANCH  24  27
ATOM     26  C   UNL     1      -2.761  11.124  17.055  0.00  0.00    +0.000 C 
ATOM     27  O   UNL     1      -2.665  11.952  18.219  0.00  0.00    +0.000 OA
ENDBRANCH  24  27
ENDBRANCH   1  24
TORSDOF 4
ENDMDL
MODEL 3
REMARK VINA RESULT:      -7.1      3.667      7.742
REMARK  Name = 
REMARK  6 active torsions:
REMARK  status: ('A' for Active; 'I' for Inactive)
REMARK    1  A    between atoms: C_1  and  O_2
REMARK    2  A    between atoms: O_2  and  C_3
REMARK    3  A    between atoms: C_3  and  C_5
REMARK    4  A    between atoms: C_7  and  C_8
REMARK    5  A    between atoms: N_14  and  C_15
REMARK    6  A    between atoms: C_20  and  C_21
REMARK                            x       y       z     vdW  Elec       q    Type
REMARK                         _______ _______ _______ _____ _____    ______ ____
ROOT
ATOM      1  C   UNL     1       3.390   4.256  19.016  0.00  0.00    +0.000 A 
ATOM      2  C   UNL     1       4.023   4.101  17.803  0.00  0.00    +0.000 A 
ATOM      3  C   UNL     1       4.276   5.249  17.105  0.00  0.00    +0.000 A 
ATOM      4  C   UNL     1       5.158   5.264  15.894  0.00  0.00    +0.000 C 
ATOM      5  N   UNL     1       3.804   6.440  17.497  0.00  0.00    +0.000 NA
ATOM      6  C   UNL     1       3.120   6.505  18.657  0.00  0.00    +0.000 A 
ATOM      7  N   UNL     1       2.556   7.689  18.986  0.00  0.00    +0.000 N 
ATOM      8  C   UNL     1       2.603   8.857  18.113  0.00  0.00    +0.000 C 
ATOM      9  C   UNL     1       1.179   9.417  17.911  0.00  0.00    +0.000 C 
ATOM     10  N   UNL     1       0.530   9.665  19.226  0.00  0.00    +0.000 N 
ATOM     11  C   UNL     1       0.462   8.451  20.065  0.00  0.00    +0.000 C 
ATOM     12  C   UNL     1       1.884   7.863  20.279  0.00  0.00    +0.000 C 
ATOM     13  N   UNL     1       2.950   5.450  19.459  0.00  0.00    +0.000 NA
ENDROOT
BRANCH  10  14
ATOM     14  C   UNL     1      -0.001  10.902  19.530  0.00  0.00    +0.000 A 
ATOM     15  C   UNL     1       0.714  11.716  20.449  0.00  0.00    +0.000 A 
ATOM     16  C   UNL     1       0.223  12.914  20.965  0.00  0.00    +0.000 A 
ATOM     17  C   UNL     1      -1.022  13.361  20.564  0.00  0.00    +0.000 A 
ATOM     18  C   UNL     1      -1.728  12.627  19.616  0.00  0.00    +0.000 A 
ATOM     19  C   UNL     1      -1.243  11.401  19.067  0.00  0.00    +0.000 A 
BRANCH  19  20
ATOM     20  C   UNL     1      -2.198  10.731  18.115  0.00  0.00    +0.000 C 
ATOM     21  F   UNL     1      -2.527   9.435  18.329  0.00  0.00    +0.000 F 
ATOM     22  F   UNL     1      -3.420  11.363  18.115  0.00  0.00    +0.000 F 
ATOM     23  F   UNL     1      -1.785  10.778  16.822  0.00  0.00    +0.000 F 
ENDBRANCH  19  20
ENDBRANCH  10  14
BRANCH   1  24
ATOM     24  C   UNL     1       3.208   3.076  19.909  0.00  0.00    +0.000 C 
ATOM     25  O   UNL     1       4.152   2.394  20.300  0.00  0.00    +0.000 OA
BRANCH  24  27
ATOM     26  C   UNL     1       1.584   2.745  21.597  0.00  0.00    +0.000 C 
ATOM     27  O   UNL     1       1.894   2.844  20.203  0.00  0.00    +0.000 OA
ENDBRANCH  24  27
ENDBRANCH   1  24
TORSDOF 4
ENDMDL
MODEL 4
REMARK VINA RESULT:      -7.0      2.116      3.065
REMARK  Name = 
REMARK  6 active torsions:
REMARK  status: ('A' for Active; 'I' for Inactive)
REMARK    1  A    between atoms: C_1  and  O_2
REMARK    2  A    between atoms: O_2  and  C_3
REMARK    3  A    between atoms: C_3  and  C_5
REMARK    4  A    between atoms: C_7  and  C_8
REMARK    5  A    between atoms: N_14  and  C_15
REMARK    6  A    between atoms: C_20  and  C_21
REMARK                            x       y       z     vdW  Elec       q    Type
REMARK                         _______ _______ _______ _____ _____    ______ ____
ROOT
ATOM      1  C   UNL     1      -0.700  11.668  19.427  0.00  0.00    +0.000 A 
ATOM      2  C   UNL     1      -1.352  11.807  20.632  0.00  0.00    +0.000 A 
ATOM      3  C   UNL     1      -0.884  11.040  21.663  0.00  0.00    +0.000 A 
ATOM      4  C   UNL     1      -1.331  11.251  23.077  0.00  0.00    +0.000 C 
ATOM      5  N   UNL     1       0.049  10.095  21.481  0.00  0.00    +0.000 NA
ATOM      6  C   UNL     1       0.587   9.958  20.252  0.00  0.00    +0.000 A 
ATOM      7  N   UNL     1       1.446   8.932  20.056  0.00  0.00    +0.000 N 
ATOM      8  C   UNL     1       1.751   7.947  21.087  0.00  0.00    +0.000 C 
ATOM      9  C   UNL     1       1.551   6.523  20.528  0.00  0.00    +0.000 C 
ATOM     10  N   UNL     1       2.326   6.348  19.271  0.00  0.00    +0.000 N 
ATOM     11  C   UNL     1       1.960   7.335  18.235  0.00  0.00    +0.000 C 
ATOM     12  C   UNL     1       2.147   8.779  18.776  0.00  0.00    +0.000 C 
ATOM     13  N   UNL     1       0.277  10.762  19.231  0.00  0.00    +0.000 NA
ENDROOT
BRANCH  10  14
ATOM     14  C   UNL     1       3.218   5.304  19.130  0.00  0.00    +0.000 A 
ATOM     15  C   UNL     1       4.599   5.591  19.301  0.00  0.00    +0.000 A 
ATOM     16  C   UNL     1       5.617   4.678  19.037  0.00  0.00    +0.000 A 
ATOM     17  C   UNL     1       5.288   3.410  18.596  0.00  0.00    +0.000 A 
ATOM     18  C   UNL     1       3.945   3.065  18.478  0.00  0.00    +0.000 A 
ATOM     19  C   UNL     1       2.884   3.981  18.749  0.00  0.00    +0.000 A 
BRANCH  19  20
ATOM     20  C   UNL     1       1.509   3.428  18.484  0.00  0.00    +0.000 C 
ATOM     21  F   UNL     1       0.598   3.442  19.486  0.00  0.00    +0.000 F 
ATOM     22  F   UNL     1       0.878   4.131  17.485  0.00  0.00    +0.000 F 
ATOM     23  F   UNL     1       1.525   2.142  18.046  0.00  0.00    +0.000 F 
ENDBRANCH  19  20
ENDBRANCH  10  14
BRANCH   1  24
ATOM     24  C   UNL     1      -1.046  12.571  18.293  0.00  0.00    +0.000 C 
ATOM     25  O   UNL     1      -0.710  13.752  18.265  0.00  0.00    +0.000 OA
BRANCH  24  27
ATOM     26  C   UNL     1      -3.079  11.489  17.753  0.00  0.00    +0.000 C 
ATOM     27  O   UNL     1      -1.786  11.940  17.333  0.00  0.00    +0.000 OA
ENDBRANCH  24  27
ENDBRANCH   1  24
TORSDOF 4
ENDMDL
MODEL 5
REMARK VINA RESULT:      -7.0      3.773      7.634
REMARK  Name = 
REMARK  6 active torsions:
REMARK  status: ('A' for Active; 'I' for Inactive)
REMARK    1  A    between atoms: C_1  and  O_2
REMARK    2  A    between atoms: O_2  and  C_3
REMARK    3  A    between atoms: C_3  and  C_5
REMARK    4  A    between atoms: C_7  and  C_8
REMARK    5  A    between atoms: N_14  and  C_15
REMARK    6  A    between atoms: C_20  and  C_21
REMARK                            x       y       z     vdW  Elec       q    Type
REMARK                         _______ _______ _______ _____ _____    ______ ____
ROOT
ATOM      1  C   UNL     1       2.794   4.016  19.695  0.00  0.00    +0.000 A 
ATOM      2  C   UNL     1       3.404   3.567  18.546  0.00  0.00    +0.000 A 
ATOM      3  C   UNL     1       3.829   4.530  17.673  0.00  0.00    +0.000 A 
ATOM      4  C   UNL     1       4.711   4.211  16.505  0.00  0.00    +0.000 C 
ATOM      5  N   UNL     1       3.537   5.827  17.845  0.00  0.00    +0.000 NA
ATOM      6  C   UNL     1       2.864   6.187  18.957  0.00  0.00    +0.000 A 
ATOM      7  N   UNL     1       2.480   7.479  19.065  0.00  0.00    +0.000 N 
ATOM      8  C   UNL     1       2.704   8.462  18.011  0.00  0.00    +0.000 C 
ATOM      9  C   UNL     1       1.381   9.180  17.674  0.00  0.00    +0.000 C 
ATOM     10  N   UNL     1       0.768   9.740  18.908  0.00  0.00    +0.000 N 
ATOM     11  C   UNL     1       0.515   8.710  19.936  0.00  0.00    +0.000 C 
ATOM     12  C   UNL     1       1.833   7.966  20.289  0.00  0.00    +0.000 C 
ATOM     13  N   UNL     1       2.534   5.319  19.918  0.00  0.00    +0.000 NA
ENDROOT
BRANCH  10  14
ATOM     14  C   UNL     1       0.425  11.075  18.984  0.00  0.00    +0.000 A 
ATOM     15  C   UNL     1       1.331  11.950  19.640  0.00  0.00    +0.000 A 
ATOM     16  C   UNL     1       1.047  13.283  19.927  0.00  0.00    +0.000 A 
ATOM     17  C   UNL     1      -0.174  13.809  19.550  0.00  0.00    +0.000 A 
ATOM     18  C   UNL     1      -1.066  13.005  18.848  0.00  0.00    +0.000 A 
ATOM     19  C   UNL     1      -0.795  11.638  18.535  0.00  0.00    +0.000 A 
BRANCH  19  20
ATOM     20  C   UNL     1      -1.925  10.929  17.838  0.00  0.00    +0.000 C 
ATOM     21  F   UNL     1      -2.963  11.663  17.371  0.00  0.00    +0.000 F 
ATOM     22  F   UNL     1      -1.479  10.275  16.714  0.00  0.00    +0.000 F 
ATOM     23  F   UNL     1      -2.498   9.960  18.598  0.00  0.00    +0.000 F 
ENDBRANCH  19  20
ENDBRANCH  10  14
BRANCH   1  24
ATOM     24  C   UNL     1       2.434   3.045  20.767  0.00  0.00    +0.000 C 
ATOM     25  O   UNL     1       3.274   2.538  21.505  0.00  0.00    +0.000 OA
BRANCH  24  27
ATOM     26  C   UNL     1       0.493   2.495  19.531  0.00  0.00    +0.000 C 
ATOM     27  O   UNL     1       1.094   2.780  20.800  0.00  0.00    +0.000 OA
ENDBRANCH  24  27
ENDBRANCH   1  24
TORSDOF 4
ENDMDL
MODEL 6
REMARK VINA RESULT:      -6.9      1.751      2.851
REMARK  Name = 
REMARK  6 active torsions:
REMARK  status: ('A' for Active; 'I' for Inactive)
REMARK    1  A    between atoms: C_1  and  O_2
REMARK    2  A    between atoms: O_2  and  C_3
REMARK    3  A    between atoms: C_3  and  C_5
REMARK    4  A    between atoms: C_7  and  C_8
REMARK    5  A    between atoms: N_14  and  C_15
REMARK    6  A    between atoms: C_20  and  C_21
REMARK                            x       y       z     vdW  Elec       q    Type
REMARK                         _______ _______ _______ _____ _____    ______ ____
ROOT
ATOM      1  C   UNL     1      -0.873  11.285  19.734  0.00  0.00    +0.000 A 
ATOM      2  C   UNL     1      -1.310  11.144  21.032  0.00  0.00    +0.000 A 
ATOM      3  C   UNL     1      -0.578  10.305  21.826  0.00  0.00    +0.000 A 
ATOM      4  C   UNL     1      -0.784  10.232  23.308  0.00  0.00    +0.000 C 
ATOM      5  N   UNL     1       0.413   9.545  21.338  0.00  0.00    +0.000 NA
ATOM      6  C   UNL     1       0.734   9.675  20.034  0.00  0.00    +0.000 A 
ATOM      7  N   UNL     1       1.657   8.827  19.529  0.00  0.00    +0.000 N 
ATOM      8  C   UNL     1       2.256   7.752  20.312  0.00  0.00    +0.000 C 
ATOM      9  C   UNL     1       2.128   6.416  19.552  0.00  0.00    +0.000 C 
ATOM     10  N   UNL     1       2.680   6.548  18.178  0.00  0.00    +0.000 N 
ATOM     11  C   UNL     1       2.020   7.617  17.400  0.00  0.00    +0.000 C 
ATOM     12  C   UNL     1       2.130   8.974  18.148  0.00  0.00    +0.000 C 
ATOM     13  N   UNL     1       0.153  10.571  19.231  0.00  0.00    +0.000 NA
ENDROOT
BRANCH  10  14
ATOM     14  C   UNL     1       3.648   5.678  17.718  0.00  0.00    +0.000 A 
ATOM     15  C   UNL     1       4.890   6.234  17.308  0.00  0.00    +0.000 A 
ATOM     16  C   UNL     1       5.895   5.502  16.681  0.00  0.00    +0.000 A 
ATOM     17  C   UNL     1       5.702   4.154  16.446  0.00  0.00    +0.000 A 
ATOM     18  C   UNL     1       4.527   3.555  16.890  0.00  0.00    +0.000 A 
ATOM     19  C   UNL     1       3.484   4.283  17.541  0.00  0.00    +0.000 A 
BRANCH  19  20
ATOM     20  C   UNL     1       2.269   3.458  17.869  0.00  0.00    +0.000 C 
ATOM     21  F   UNL     1       1.047   3.939  17.538  0.00  0.00    +0.000 F 
ATOM     22  F   UNL     1       2.307   2.243  17.226  0.00  0.00    +0.000 F 
ATOM     23  F   UNL     1       2.174   3.147  19.188  0.00  0.00    +0.000 F 
ENDBRANCH  19  20
ENDBRANCH  10  14
BRANCH   1  24
ATOM     24  C   UNL     1      -1.521  12.290  18.843  0.00  0.00    +0.000 C 
ATOM     25  O   UNL     1      -2.739  12.359  18.705  0.00  0.00    +0.000 OA
BRANCH  24  27
ATOM     26  C   UNL     1      -0.280  14.303  18.866  0.00  0.00    +0.000 C 
ATOM     27  O   UNL     1      -0.608  13.079  18.201  0.00  0.00    +0.000 OA
ENDBRANCH  24  27
ENDBRANCH   1  24
TORSDOF 4
ENDMDL
MODEL 7
REMARK VINA RESULT:      -6.9      0.777      1.085
REMARK  Name = 
REMARK  6 active torsions:
REMARK  status: ('A' for Active; 'I' for Inactive)
REMARK    1  A    between atoms: C_1  and  O_2
REMARK    2  A    between atoms: O_2  and  C_3
REMARK    3  A    between atoms: C_3  and  C_5
REMARK    4  A    between atoms: C_7  and  C_8
REMARK    5  A    between atoms: N_14  and  C_15
REMARK    6  A    between atoms: C_20  and  C_21
REMARK                            x       y       z     vdW  Elec       q    Type
REMARK                         _______ _______ _______ _____ _____    ______ ____
ROOT
ATOM      1  C   UNL     1       0.213  10.171  21.541  0.00  0.00    +0.000 A 
ATOM      2  C   UNL     1      -0.010  11.367  20.897  0.00  0.00    +0.000 A 
ATOM      3  C   UNL     1       0.221  11.379  19.549  0.00  0.00    +0.000 A 
ATOM      4  C   UNL     1      -0.197  12.525  18.681  0.00  0.00    +0.000 C 
ATOM      5  N   UNL     1       0.777  10.338  18.913  0.00  0.00    +0.000 NA
ATOM      6  C   UNL     1       1.045   9.224  19.624  0.00  0.00    +0.000 A 
ATOM      7  N   UNL     1       1.704   8.224  18.997  0.00  0.00    +0.000 N 
ATOM      8  C   UNL     1       2.186   8.334  17.625  0.00  0.00    +0.000 C 
ATOM      9  C   UNL     1       3.682   7.958  17.564  0.00  0.00    +0.000 C 
ATOM     10  N   UNL     1       3.906   6.625  18.183  0.00  0.00    +0.000 N 
ATOM     11  C   UNL     1       3.445   6.564  19.586  0.00  0.00    +0.000 C 
ATOM     12  C   UNL     1       1.941   6.944  19.675  0.00  0.00    +0.000 C 
ATOM     13  N   UNL     1       0.722   9.093  20.914  0.00  0.00    +0.000 NA
ENDROOT
BRANCH  10  14
ATOM     14  C   UNL     1       4.554   5.623  17.490  0.00  0.00    +0.000 A 
ATOM     15  C   UNL     1       5.848   5.910  16.977  0.00  0.00    +0.000 A 
ATOM     16  C   UNL     1       6.551   5.056  16.130  0.00  0.00    +0.000 A 
ATOM     17  C   UNL     1       5.983   3.849  15.767  0.00  0.00    +0.000 A 
ATOM     18  C   UNL     1       4.746   3.500  16.298  0.00  0.00    +0.000 A 
ATOM     19  C   UNL     1       4.009   4.355  17.173  0.00  0.00    +0.000 A 
BRANCH  19  20
ATOM     20  C   UNL     1       2.660   3.817  17.571  0.00  0.00    +0.000 C 
ATOM     21  F   UNL     1       2.241   2.648  17.030  0.00  0.00    +0.000 F 
ATOM     22  F   UNL     1       2.607   3.568  18.922  0.00  0.00    +0.000 F 
ATOM     23  F   UNL     1       1.647   4.691  17.340  0.00  0.00    +0.000 F 
ENDBRANCH  19  20
ENDBRANCH  10  14
BRANCH   1  24
ATOM     24  C   UNL     1      -0.154  10.028  22.979  0.00  0.00    +0.000 C 
ATOM     25  O   UNL     1       0.638   9.619  23.823  0.00  0.00    +0.000 OA
BRANCH  24  27
ATOM     26  C   UNL     1      -1.718  11.780  23.263  0.00  0.00    +0.000 C 
ATOM     27  O   UNL     1      -1.454  10.373  23.220  0.00  0.00    +0.000 OA
ENDBRANCH  24  27
ENDBRANCH   1  24
TORSDOF 4
ENDMDL
MODEL 8
REMARK VINA RESULT:      -6.9      3.716      7.933
REMARK  Name = 
REMARK  6 active torsions:
REMARK  status: ('A' for Active; 'I' for Inactive)
REMARK    1  A    between atoms: C_1  and  O_2
REMARK    2  A    between atoms: O_2  and  C_3
REMARK    3  A    between atoms: C_3  and  C_5
REMARK    4  A    between atoms: C_7  and  C_8
REMARK    5  A    between atoms: N_14  and  C_15
REMARK    6  A    between atoms: C_20  and  C_21
REMARK                            x       y       z     vdW  Elec       q    Type
REMARK                         _______ _______ _______ _____ _____    ______ ____
ROOT
ATOM      1  C   UNL     1       3.050   5.037  19.256  0.00  0.00    +0.000 A 
ATOM      2  C   UNL     1       3.731   5.030  18.059  0.00  0.00    +0.000 A 
ATOM      3  C   UNL     1       3.912   6.247  17.462  0.00  0.00    +0.000 A 
ATOM      4  C   UNL     1       4.828   6.429  16.290  0.00  0.00    +0.000 C 
ATOM      5  N   UNL     1       3.333   7.363  17.927  0.00  0.00    +0.000 NA
ATOM      6  C   UNL     1       2.609   7.280  19.062  0.00  0.00    +0.000 A 
ATOM      7  N   UNL     1       1.941   8.386  19.460  0.00  0.00    +0.000 N 
ATOM      8  C   UNL     1       1.920   9.620  18.683  0.00  0.00    +0.000 C 
ATOM      9  C   UNL     1       0.462  10.081  18.471  0.00  0.00    +0.000 C 
ATOM     10  N   UNL     1      -0.246  10.171  19.776  0.00  0.00    +0.000 N 
ATOM     11  C   UNL     1      -0.242   8.892  20.515  0.00  0.00    +0.000 C 
ATOM     12  C   UNL     1       1.216   8.402  20.736  0.00  0.00    +0.000 C 
ATOM     13  N   UNL     1       2.501   6.154  19.773  0.00  0.00    +0.000 NA
ENDROOT
BRANCH  10  14
ATOM     14  C   UNL     1      -0.886  11.334  20.154  0.00  0.00    +0.000 A 
ATOM     15  C   UNL     1      -0.436  11.975  21.340  0.00  0.00    +0.000 A 
ATOM     16  C   UNL     1      -1.083  13.061  21.924  0.00  0.00    +0.000 A 
ATOM     17  C   UNL     1      -2.221  13.570  21.327  0.00  0.00    +0.000 A 
ATOM     18  C   UNL     1      -2.659  13.013  20.129  0.00  0.00    +0.000 A 
ATOM     19  C   UNL     1      -2.009  11.904  19.507  0.00  0.00    +0.000 A 
BRANCH  19  20
ATOM     20  C   UNL     1      -2.691  11.410  18.259  0.00  0.00    +0.000 C 
ATOM     21  F   UNL     1      -2.084  11.607  17.065  0.00  0.00    +0.000 F 
ATOM     22  F   UNL     1      -2.863  10.047  18.296  0.00  0.00    +0.000 F 
ATOM     23  F   UNL     1      -3.943  11.913  18.099  0.00  0.00    +0.000 F 
ENDBRANCH  19  20
ENDBRANCH  10  14
BRANCH   1  24
ATOM     24  C   UNL     1       2.937   3.779  20.048  0.00  0.00    +0.000 C 
ATOM     25  O   UNL     1       3.766   2.877  19.971  0.00  0.00    +0.000 OA
BRANCH  24  27
ATOM     26  C   UNL     1       1.692   2.620  21.691  0.00  0.00    +0.000 C 
ATOM     27  O   UNL     1       1.811   3.752  20.822  0.00  0.00    +0.000 OA
ENDBRANCH  24  27
ENDBRANCH   1  24
TORSDOF 4
ENDMDL
MODEL 9
REMARK VINA RESULT:      -6.8      4.048      8.288
REMARK  Name = 
REMARK  6 active torsions:
REMARK  status: ('A' for Active; 'I' for Inactive)
REMARK    1  A    between atoms: C_1  and  O_2
REMARK    2  A    between atoms: O_2  and  C_3
REMARK    3  A    between atoms: C_3  and  C_5
REMARK    4  A    between atoms: C_7  and  C_8
REMARK    5  A    between atoms: N_14  and  C_15
REMARK    6  A    between atoms: C_20  and  C_21
REMARK                            x       y       z     vdW  Elec       q    Type
REMARK                         _______ _______ _______ _____ _____    ______ ____
ROOT
ATOM      1  C   UNL     1       4.454   6.620  17.503  0.00  0.00    +0.000 A 
ATOM      2  C   UNL     1       4.547   5.556  18.372  0.00  0.00    +0.000 A 
ATOM      3  C   UNL     1       3.556   5.455  19.309  0.00  0.00    +0.000 A 
ATOM      4  C   UNL     1       3.391   4.236  20.164  0.00  0.00    +0.000 C 
ATOM      5  N   UNL     1       2.633   6.412  19.476  0.00  0.00    +0.000 NA
ATOM      6  C   UNL     1       2.651   7.469  18.638  0.00  0.00    +0.000 A 
ATOM      7  N   UNL     1       1.786   8.479  18.885  0.00  0.00    +0.000 N 
ATOM      8  C   UNL     1       0.899   8.495  20.043  0.00  0.00    +0.000 C 
ATOM      9  C   UNL     1       1.054   9.829  20.803  0.00  0.00    +0.000 C 
ATOM     10  N   UNL     1       0.867  10.976  19.876  0.00  0.00    +0.000 N 
ATOM     11  C   UNL     1       1.810  10.950  18.740  0.00  0.00    +0.000 C 
ATOM     12  C   UNL     1       1.678   9.613  17.960  0.00  0.00    +0.000 C 
ATOM     13  N   UNL     1       3.505   7.569  17.616  0.00  0.00    +0.000 NA
ENDROOT
BRANCH  10  14
ATOM     14  C   UNL     1      -0.054  11.966  20.154  0.00  0.00    +0.000 A 
ATOM     15  C   UNL     1       0.283  12.915  21.156  0.00  0.00    +0.000 A 
ATOM     16  C   UNL     1      -0.606  13.869  21.648  0.00  0.00    +0.000 A 
ATOM     17  C   UNL     1      -1.889  13.922  21.137  0.00  0.00    +0.000 A 
ATOM     18  C   UNL     1      -2.241  13.054  20.108  0.00  0.00    +0.000 A 
ATOM     19  C   UNL     1      -1.346  12.073  19.583  0.00  0.00    +0.000 A 
BRANCH  19  20
ATOM     20  C   UNL     1      -1.953  11.187  18.527  0.00  0.00    +0.000 C 
ATOM     21  F   UNL     1      -1.440  11.223  17.275  0.00  0.00    +0.000 F 
ATOM     22  F   UNL     1      -1.837   9.860  18.870  0.00  0.00    +0.000 F 
ATOM     23  F   UNL     1      -3.286  11.387  18.363  0.00  0.00    +0.000 F 
ENDBRANCH  19  20
ENDBRANCH  10  14
BRANCH   1  24
ATOM     24  C   UNL     1       5.406   6.723  16.360  0.00  0.00    +0.000 C 
ATOM     25  O   UNL     1       5.032   6.917  15.207  0.00  0.00    +0.000 OA
BRANCH  24  27
ATOM     26  C   UNL     1       7.302   7.673  17.408  0.00  0.00    +0.000 C 
ATOM     27  O   UNL     1       6.705   6.551  16.748  0.00  0.00    +0.000 OA
ENDBRANCH  24  27
ENDBRANCH   1  24
TORSDOF 4
ENDMDL
