MODEL 1
REMARK VINA RESULT:      -7.9      0.000      0.000
REMARK  Name = 
REMARK  1 active torsions:
REMARK  status: ('A' for Active; 'I' for Inactive)
REMARK    1  A    between atoms: C_7  and  C_8
REMARK                            x       y       z     vdW  Elec       q    Type
REMARK                         _______ _______ _______ _____ _____    ______ ____
ROOT
ATOM      1  C   UNL     1       1.867   8.583  18.136  0.00  0.00    +0.000 C 
ATOM      2  O   UNL     1       2.581   8.945  17.206  0.00  0.00    +0.000 OA
ATOM      3  N   UNL     1       1.999   7.396  18.841  0.00  0.00    +0.000 N 
ATOM      4  C   UNL     1       3.024   6.553  18.489  0.00  0.00    +0.000 A 
ATOM      5  N   UNL     1       3.642   6.499  17.339  0.00  0.00    +0.000 NA
ATOM      6  C   UNL     1       4.946   6.121  17.579  0.00  0.00    +0.000 A 
ATOM      7  C   UNL     1       6.054   6.323  16.748  0.00  0.00    +0.000 A 
ATOM      8 CL   UNL     1       5.882   5.677  15.163  0.00  0.00    +0.000 Cl
ATOM      9  C   UNL     1       7.312   6.431  17.313  0.00  0.00    +0.000 A 
ATOM     10  C   UNL     1       7.536   5.792  18.526  0.00  0.00    +0.000 A 
ATOM     11  C   UNL     1       6.478   5.223  19.251  0.00  0.00    +0.000 A 
ATOM     12  C   UNL     1       5.181   5.584  18.849  0.00  0.00    +0.000 A 
ATOM     13  S   UNL     1       3.673   5.548  19.707  0.00  0.00    +0.000 S 
ATOM     14  H   UNL     1       1.563   7.312  19.747  0.00  0.00    +0.000 HD
ENDROOT
BRANCH   1  21
ATOM     15  N   UNL     1      -3.999  11.946  16.982  0.00  0.00    +0.000 NA
ATOM     16  C   UNL     1      -2.939  11.202  17.113  0.00  0.00    +0.000 C 
ATOM     17  N   UNL     1      -2.565  10.312  16.171  0.00  0.00    +0.000 N 
ATOM     18  N   UNL     1      -2.204  11.315  18.219  0.00  0.00    +0.000 N 
ATOM     19  C   UNL     1      -1.043  10.711  18.595  0.00  0.00    +0.000 A 
ATOM     20  N   UNL     1      -0.299   9.884  17.877  0.00  0.00    +0.000 NA
ATOM     21  C   UNL     1       0.817   9.486  18.621  0.00  0.00    +0.000 A 
ATOM     22  C   UNL     1       0.868  10.023  19.901  0.00  0.00    +0.000 A 
ATOM     23  S   UNL     1      -0.447  11.055  20.175  0.00  0.00    +0.000 S 
ATOM     24  H   UNL     1      -4.477  11.729  16.104  0.00  0.00    +0.000 HD
ATOM     25  H   UNL     1      -2.860  10.493  15.221  0.00  0.00    +0.000 HD
ATOM     26  H   UNL     1      -1.579  10.066  16.224  0.00  0.00    +0.000 HD
ATOM     27  H   UNL     1      -2.601  11.964  18.871  0.00  0.00    +0.000 HD
ENDBRANCH   1  21
TORSDOF 1
ENDMDL
MODEL 2
REMARK VINA RESULT:      -7.7      3.881      4.441
REMARK  Name = 
REMARK  1 active torsions:
REMARK  status: ('A' for Active; 'I' for Inactive)
REMARK    1  A    between atoms: C_7  and  C_8
REMARK                            x       y       z     vdW  Elec       q    Type
REMARK                         _______ _______ _______ _____ _____    ______ ____
ROOT
ATOM      1  C   UNL     1       0.483   8.752  21.222  0.00  0.00    +0.000 C 
ATOM      2  O   UNL     1      -0.049   7.837  21.842  0.00  0.00    +0.000 OA
ATOM      3  N   UNL     1       1.530   8.617  20.322  0.00  0.00    +0.000 N 
ATOM      4  C   UNL     1       2.008   7.352  20.083  0.00  0.00    +0.000 A 
ATOM      5  N   UNL     1       1.910   6.310  20.864  0.00  0.00    +0.000 NA
ATOM      6  C   UNL     1       1.833   5.190  20.064  0.00  0.00    +0.000 A 
ATOM      7  C   UNL     1       1.319   3.935  20.410  0.00  0.00    +0.000 A 
ATOM      8 CL   UNL     1       2.056   3.220  21.790  0.00  0.00    +0.000 Cl
ATOM      9  C   UNL     1       0.782   3.128  19.422  0.00  0.00    +0.000 A 
ATOM     10  C   UNL     1       1.258   3.284  18.127  0.00  0.00    +0.000 A 
ATOM     11  C   UNL     1       2.107   4.349  17.791  0.00  0.00    +0.000 A 
ATOM     12  C   UNL     1       2.205   5.389  18.731  0.00  0.00    +0.000 A 
ATOM     13  S   UNL     1       2.691   7.045  18.548  0.00  0.00    +0.000 S 
ATOM     14  H   UNL     1       1.710   9.360  19.664  0.00  0.00    +0.000 HD
ENDROOT
BRANCH   1  21
ATOM     15  N   UNL     1      -0.558  14.974  18.525  0.00  0.00    +0.000 NA
ATOM     16  C   UNL     1      -0.376  13.740  18.901  0.00  0.00    +0.000 C 
ATOM     17  N   UNL     1       0.098  12.797  18.062  0.00  0.00    +0.000 N 
ATOM     18  N   UNL     1      -0.678  13.394  20.152  0.00  0.00    +0.000 N 
ATOM     19  C   UNL     1      -0.548  12.214  20.817  0.00  0.00    +0.000 A 
ATOM     20  N   UNL     1       0.008  11.098  20.371  0.00  0.00    +0.000 NA
ATOM     21  C   UNL     1      -0.051  10.112  21.362  0.00  0.00    +0.000 A 
ATOM     22  C   UNL     1      -0.675  10.520  22.534  0.00  0.00    +0.000 A 
ATOM     23  S   UNL     1      -1.155  12.141  22.428  0.00  0.00    +0.000 S 
ATOM     24  H   UNL     1      -0.315  15.082  17.539  0.00  0.00    +0.000 HD
ATOM     25  H   UNL     1       0.671  13.110  17.289  0.00  0.00    +0.000 HD
ATOM     26  H   UNL     1       0.512  12.003  18.545  0.00  0.00    +0.000 HD
ATOM     27  H   UNL     1      -1.069  14.158  20.670  0.00  0.00    +0.000 HD
ENDBRANCH   1  21
TORSDOF 1
ENDMDL
MODEL 3
REMARK VINA RESULT:      -7.5      3.998      4.665
REMARK  Name = 
REMARK  1 active torsions:
REMARK  status: ('A' for Active; 'I' for Inactive)
REMARK    1  A    between atoms: C_7  and  C_8
REMARK                            x       y       z     vdW  Elec       q    Type
REMARK                         _______ _______ _______ _____ _____    ______ ____
ROOT
ATOM      1  C   UNL     1       1.069   8.638  20.631  0.00  0.00    +0.000 C 
ATOM      2  O   UNL     1       0.478   7.888  21.401  0.00  0.00    +0.000 OA
ATOM      3  N   UNL     1       2.038   8.255  19.716  0.00  0.00    +0.000 N 
ATOM      4  C   UNL     1       2.359   6.923  19.644  0.00  0.00    +0.000 A 
ATOM      5  N   UNL     1       2.194   6.019  20.572  0.00  0.00    +0.000 NA
ATOM      6  C   UNL     1       1.946   4.815  19.949  0.00  0.00    +0.000 A 
ATOM      7  C   UNL     1       1.318   3.690  20.498  0.00  0.00    +0.000 A 
ATOM      8 CL   UNL     1       2.054   3.094  21.934  0.00  0.00    +0.000 Cl
ATOM      9  C   UNL     1       0.637   2.821  19.664  0.00  0.00    +0.000 A 
ATOM     10  C   UNL     1       1.048   2.737  18.340  0.00  0.00    +0.000 A 
ATOM     11  C   UNL     1       1.988   3.636  17.814  0.00  0.00    +0.000 A 
ATOM     12  C   UNL     1       2.257   4.779  18.587  0.00  0.00    +0.000 A 
ATOM     13  S   UNL     1       2.911   6.324  18.142  0.00  0.00    +0.000 S 
ATOM     14  H   UNL     1       2.260   8.872  18.949  0.00  0.00    +0.000 HD
ENDROOT
BRANCH   1  21
ATOM     15  N   UNL     1       2.044  14.910  18.029  0.00  0.00    +0.000 NA
ATOM     16  C   UNL     1       1.896  13.668  18.390  0.00  0.00    +0.000 C 
ATOM     17  N   UNL     1       2.561  12.661  17.788  0.00  0.00    +0.000 N 
ATOM     18  N   UNL     1       1.053  13.379  19.380  0.00  0.00    +0.000 N 
ATOM     19  C   UNL     1       0.742  12.200  19.985  0.00  0.00    +0.000 A 
ATOM     20  N   UNL     1       1.293  11.016  19.766  0.00  0.00    +0.000 NA
ATOM     21  C   UNL     1       0.698  10.057  20.594  0.00  0.00    +0.000 A 
ATOM     22  C   UNL     1      -0.308  10.557  21.410  0.00  0.00    +0.000 A 
ATOM     23  S   UNL     1      -0.495  12.225  21.184  0.00  0.00    +0.000 S 
ATOM     24  H   UNL     1       2.694  14.975  17.243  0.00  0.00    +0.000 HD
ATOM     25  H   UNL     1       3.441  12.888  17.345  0.00  0.00    +0.000 HD
ATOM     26  H   UNL     1       2.630  11.826  18.365  0.00  0.00    +0.000 HD
ATOM     27  H   UNL     1       0.575  14.193  19.719  0.00  0.00    +0.000 HD
ENDBRANCH   1  21
TORSDOF 1
ENDMDL
MODEL 4
REMARK VINA RESULT:      -7.4      1.552      1.663
REMARK  Name = 
REMARK  1 active torsions:
REMARK  status: ('A' for Active; 'I' for Inactive)
REMARK    1  A    between atoms: C_7  and  C_8
REMARK                            x       y       z     vdW  Elec       q    Type
REMARK                         _______ _______ _______ _____ _____    ______ ____
ROOT
ATOM      1  C   UNL     1       2.055   8.196  19.042  0.00  0.00    +0.000 C 
ATOM      2  O   UNL     1       2.612   8.708  18.075  0.00  0.00    +0.000 OA
ATOM      3  N   UNL     1       2.257   6.901  19.497  0.00  0.00    +0.000 N 
ATOM      4  C   UNL     1       3.167   6.122  18.827  0.00  0.00    +0.000 A 
ATOM      5  N   UNL     1       3.573   6.265  17.593  0.00  0.00    +0.000 NA
ATOM      6  C   UNL     1       4.881   5.834  17.527  0.00  0.00    +0.000 A 
ATOM      7  C   UNL     1       5.835   6.168  16.558  0.00  0.00    +0.000 A 
ATOM      8 CL   UNL     1       5.361   5.815  14.942  0.00  0.00    +0.000 Cl
ATOM      9  C   UNL     1       7.176   6.159  16.898  0.00  0.00    +0.000 A 
ATOM     10  C   UNL     1       7.579   5.313  17.923  0.00  0.00    +0.000 A 
ATOM     11  C   UNL     1       6.641   4.636  18.716  0.00  0.00    +0.000 A 
ATOM     12  C   UNL     1       5.311   5.079  18.622  0.00  0.00    +0.000 A 
ATOM     13  S   UNL     1       3.975   4.909  19.717  0.00  0.00    +0.000 S 
ATOM     14  H   UNL     1       1.982   6.663  20.438  0.00  0.00    +0.000 HD
ENDROOT
BRANCH   1  21
ATOM     15  N   UNL     1      -2.121  13.613  19.560  0.00  0.00    +0.000 NA
ATOM     16  C   UNL     1      -1.372  12.575  19.321  0.00  0.00    +0.000 C 
ATOM     17  N   UNL     1      -0.924  12.282  18.084  0.00  0.00    +0.000 N 
ATOM     18  N   UNL     1      -1.046  11.768  20.330  0.00  0.00    +0.000 N 
ATOM     19  C   UNL     1      -0.255  10.661  20.381  0.00  0.00    +0.000 A 
ATOM     20  N   UNL     1       0.471  10.148  19.399  0.00  0.00    +0.000 NA
ATOM     21  C   UNL     1       1.147   9.011  19.856  0.00  0.00    +0.000 A 
ATOM     22  C   UNL     1       0.889   8.692  21.183  0.00  0.00    +0.000 A 
ATOM     23  S   UNL     1      -0.160   9.822  21.883  0.00  0.00    +0.000 S 
ATOM     24  H   UNL     1      -2.313  14.117  18.692  0.00  0.00    +0.000 HD
ATOM     25  H   UNL     1      -0.832  13.049  17.432  0.00  0.00    +0.000 HD
ATOM     26  H   UNL     1      -0.100  11.685  18.088  0.00  0.00    +0.000 HD
ATOM     27  H   UNL     1      -1.475  12.049  21.192  0.00  0.00    +0.000 HD
ENDBRANCH   1  21
TORSDOF 1
ENDMDL
MODEL 5
REMARK VINA RESULT:      -7.3      3.993      8.235
REMARK  Name = 
REMARK  1 active torsions:
REMARK  status: ('A' for Active; 'I' for Inactive)
REMARK    1  A    between atoms: C_7  and  C_8
REMARK                            x       y       z     vdW  Elec       q    Type
REMARK                         _______ _______ _______ _____ _____    ______ ____
ROOT
ATOM      1  C   UNL     1       1.781   7.942  20.275  0.00  0.00    +0.000 C 
ATOM      2  O   UNL     1       1.649   8.750  19.360  0.00  0.00    +0.000 OA
ATOM      3  N   UNL     1       1.518   8.189  21.614  0.00  0.00    +0.000 N 
ATOM      4  C   UNL     1       1.051   9.434  21.955  0.00  0.00    +0.000 A 
ATOM      5  N   UNL     1       1.200  10.545  21.284  0.00  0.00    +0.000 NA
ATOM      6  C   UNL     1       0.087  11.327  21.511  0.00  0.00    +0.000 A 
ATOM      7  C   UNL     1      -0.387  12.377  20.717  0.00  0.00    +0.000 A 
ATOM      8 CL   UNL     1       0.758  13.629  20.434  0.00  0.00    +0.000 Cl
ATOM      9  C   UNL     1      -1.739  12.671  20.723  0.00  0.00    +0.000 A 
ATOM     10  C   UNL     1      -2.467  12.359  21.864  0.00  0.00    +0.000 A 
ATOM     11  C   UNL     1      -1.901  11.597  22.897  0.00  0.00    +0.000 A 
ATOM     12  C   UNL     1      -0.701  10.931  22.596  0.00  0.00    +0.000 A 
ATOM     13  S   UNL     1       0.049   9.550  23.333  0.00  0.00    +0.000 S 
ATOM     14  H   UNL     1       1.384   7.409  22.239  0.00  0.00    +0.000 HD
ENDROOT
BRANCH   1  21
ATOM     15  N   UNL     1       5.468   3.626  16.423  0.00  0.00    +0.000 NA
ATOM     16  C   UNL     1       4.879   4.541  17.137  0.00  0.00    +0.000 C 
ATOM     17  N   UNL     1       5.133   5.855  16.973  0.00  0.00    +0.000 N 
ATOM     18  N   UNL     1       4.003   4.168  18.070  0.00  0.00    +0.000 N 
ATOM     19  C   UNL     1       3.220   4.895  18.914  0.00  0.00    +0.000 A 
ATOM     20  N   UNL     1       3.087   6.212  18.951  0.00  0.00    +0.000 NA
ATOM     21  C   UNL     1       2.182   6.567  19.958  0.00  0.00    +0.000 A 
ATOM     22  C   UNL     1       1.670   5.488  20.667  0.00  0.00    +0.000 A 
ATOM     23  S   UNL     1       2.275   4.027  20.064  0.00  0.00    +0.000 S 
ATOM     24  H   UNL     1       6.131   4.056  15.775  0.00  0.00    +0.000 HD
ATOM     25  H   UNL     1       5.463   6.152  16.064  0.00  0.00    +0.000 HD
ATOM     26  H   UNL     1       4.388   6.453  17.321  0.00  0.00    +0.000 HD
ATOM     27  H   UNL     1       3.931   3.171  18.142  0.00  0.00    +0.000 HD
ENDBRANCH   1  21
TORSDOF 1
ENDMDL
MODEL 6
REMARK VINA RESULT:      -7.3      3.944      4.705
REMARK  Name = 
REMARK  1 active torsions:
REMARK  status: ('A' for Active; 'I' for Inactive)
REMARK    1  A    between atoms: C_7  and  C_8
REMARK                            x       y       z     vdW  Elec       q    Type
REMARK                         _______ _______ _______ _____ _____    ______ ____
ROOT
ATOM      1  C   UNL     1       0.878   8.816  20.570  0.00  0.00    +0.000 C 
ATOM      2  O   UNL     1       0.317   8.048  21.346  0.00  0.00    +0.000 OA
ATOM      3  N   UNL     1       1.876   8.470  19.671  0.00  0.00    +0.000 N 
ATOM      4  C   UNL     1       2.266   7.155  19.624  0.00  0.00    +0.000 A 
ATOM      5  N   UNL     1       2.137   6.258  20.565  0.00  0.00    +0.000 NA
ATOM      6  C   UNL     1       1.959   5.033  19.959  0.00  0.00    +0.000 A 
ATOM      7  C   UNL     1       1.384   3.886  20.519  0.00  0.00    +0.000 A 
ATOM      8 CL   UNL     1       2.133   3.352  21.972  0.00  0.00    +0.000 Cl
ATOM      9  C   UNL     1       0.758   2.970  19.692  0.00  0.00    +0.000 A 
ATOM     10  C   UNL     1       1.189   2.887  18.374  0.00  0.00    +0.000 A 
ATOM     11  C   UNL     1       2.087   3.825  17.844  0.00  0.00    +0.000 A 
ATOM     12  C   UNL     1       2.287   4.992  18.601  0.00  0.00    +0.000 A 
ATOM     13  S   UNL     1       2.865   6.563  18.139  0.00  0.00    +0.000 S 
ATOM     14  H   UNL     1       2.074   9.085  18.897  0.00  0.00    +0.000 HD
ENDROOT
BRANCH   1  21
ATOM     15  N   UNL     1      -3.145  13.829  22.968  0.00  0.00    +0.000 NA
ATOM     16  C   UNL     1      -2.378  12.826  22.650  0.00  0.00    +0.000 C 
ATOM     17  N   UNL     1      -2.364  11.679  23.360  0.00  0.00    +0.000 N 
ATOM     18  N   UNL     1      -1.570  12.939  21.596  0.00  0.00    +0.000 N 
ATOM     19  C   UNL     1      -0.713  12.053  21.018  0.00  0.00    +0.000 A 
ATOM     20  N   UNL     1      -0.531  10.783  21.344  0.00  0.00    +0.000 NA
ATOM     21  C   UNL     1       0.434  10.214  20.506  0.00  0.00    +0.000 A 
ATOM     22  C   UNL     1       0.967  11.094  19.573  0.00  0.00    +0.000 A 
ATOM     23  S   UNL     1       0.246  12.620  19.703  0.00  0.00    +0.000 S 
ATOM     24  H   UNL     1      -3.681  13.611  23.810  0.00  0.00    +0.000 HD
ATOM     25  H   UNL     1      -3.201  11.445  23.877  0.00  0.00    +0.000 HD
ATOM     26  H   UNL     1      -2.009  10.886  22.831  0.00  0.00    +0.000 HD
ATOM     27  H   UNL     1      -1.623  13.847  21.176  0.00  0.00    +0.000 HD
ENDBRANCH   1  21
TORSDOF 1
ENDMDL
MODEL 7
REMARK VINA RESULT:      -7.3      7.266      8.990
REMARK  Name = 
REMARK  1 active torsions:
REMARK  status: ('A' for Active; 'I' for Inactive)
REMARK    1  A    between atoms: C_7  and  C_8
REMARK                            x       y       z     vdW  Elec       q    Type
REMARK                         _______ _______ _______ _____ _____    ______ ____
ROOT
ATOM      1  C   UNL     1       8.338   8.661  17.976  0.00  0.00    +0.000 C 
ATOM      2  O   UNL     1       8.209   9.430  17.028  0.00  0.00    +0.000 OA
ATOM      3  N   UNL     1       8.894   8.982  19.205  0.00  0.00    +0.000 N 
ATOM      4  C   UNL     1       9.324  10.271  19.396  0.00  0.00    +0.000 A 
ATOM      5  N   UNL     1       9.664  11.135  18.477  0.00  0.00    +0.000 NA
ATOM      6  C   UNL     1       9.340  12.392  18.939  0.00  0.00    +0.000 A 
ATOM      7  C   UNL     1       9.135  13.549  18.177  0.00  0.00    +0.000 A 
ATOM      8 CL   UNL     1      10.459  13.976  17.164  0.00  0.00    +0.000 Cl
ATOM      9  C   UNL     1       8.291  14.534  18.657  0.00  0.00    +0.000 A 
ATOM     10  C   UNL     1       8.139  14.645  20.033  0.00  0.00    +0.000 A 
ATOM     11  C   UNL     1       8.664  13.675  20.900  0.00  0.00    +0.000 A 
ATOM     12  C   UNL     1       9.075  12.468  20.310  0.00  0.00    +0.000 A 
ATOM     13  S   UNL     1       9.292  10.886  20.989  0.00  0.00    +0.000 S 
ATOM     14  H   UNL     1       8.706   8.388  19.999  0.00  0.00    +0.000 HD
ENDROOT
BRANCH   1  21
ATOM     15  N   UNL     1       6.335   3.431  14.014  0.00  0.00    +0.000 NA
ATOM     16  C   UNL     1       6.814   4.454  14.662  0.00  0.00    +0.000 C 
ATOM     17  N   UNL     1       7.418   5.483  14.033  0.00  0.00    +0.000 N 
ATOM     18  N   UNL     1       6.715   4.482  15.990  0.00  0.00    +0.000 N 
ATOM     19  C   UNL     1       7.078   5.426  16.902  0.00  0.00    +0.000 A 
ATOM     20  N   UNL     1       7.570   6.630  16.658  0.00  0.00    +0.000 NA
ATOM     21  C   UNL     1       7.807   7.298  17.865  0.00  0.00    +0.000 A 
ATOM     22  C   UNL     1       7.496   6.554  18.995  0.00  0.00    +0.000 A 
ATOM     23  S   UNL     1       6.870   5.040  18.569  0.00  0.00    +0.000 S 
ATOM     24  H   UNL     1       6.510   3.533  13.013  0.00  0.00    +0.000 HD
ATOM     25  H   UNL     1       7.157   5.655  13.071  0.00  0.00    +0.000 HD
ATOM     26  H   UNL     1       7.426   6.339  14.584  0.00  0.00    +0.000 HD
ATOM     27  H   UNL     1       6.299   3.646  16.355  0.00  0.00    +0.000 HD
ENDBRANCH   1  21
TORSDOF 1
ENDMDL
MODEL 8
REMARK VINA RESULT:      -7.2      2.054      2.775
REMARK  Name = 
REMARK  1 active torsions:
REMARK  status: ('A' for Active; 'I' for Inactive)
REMARK    1  A    between atoms: C_7  and  C_8
REMARK                            x       y       z     vdW  Elec       q    Type
REMARK                         _______ _______ _______ _____ _____    ______ ____
ROOT
ATOM      1  C   UNL     1       2.020   8.402  18.190  0.00  0.00    +0.000 C 
ATOM      2  O   UNL     1       2.721   8.761  17.249  0.00  0.00    +0.000 OA
ATOM      3  N   UNL     1       2.152   7.208  18.885  0.00  0.00    +0.000 N 
ATOM      4  C   UNL     1       3.160   6.356  18.508  0.00  0.00    +0.000 A 
ATOM      5  N   UNL     1       3.756   6.302  17.347  0.00  0.00    +0.000 NA
ATOM      6  C   UNL     1       5.059   5.907  17.559  0.00  0.00    +0.000 A 
ATOM      7  C   UNL     1       6.154   6.102  16.709  0.00  0.00    +0.000 A 
ATOM      8 CL   UNL     1       5.944   5.468  15.123  0.00  0.00    +0.000 Cl
ATOM      9  C   UNL     1       7.423   6.191  17.251  0.00  0.00    +0.000 A 
ATOM     10  C   UNL     1       7.662   5.542  18.455  0.00  0.00    +0.000 A 
ATOM     11  C   UNL     1       6.612   4.980  19.196  0.00  0.00    +0.000 A 
ATOM     12  C   UNL     1       5.312   5.359  18.821  0.00  0.00    +0.000 A 
ATOM     13  S   UNL     1       3.820   5.336  19.707  0.00  0.00    +0.000 S 
ATOM     14  H   UNL     1       1.732   7.124  19.798  0.00  0.00    +0.000 HD
ENDROOT
BRANCH   1  21
ATOM     15  N   UNL     1      -1.409  11.008  23.529  0.00  0.00    +0.000 NA
ATOM     16  C   UNL     1      -0.642  10.504  22.605  0.00  0.00    +0.000 C 
ATOM     17  N   UNL     1       0.415   9.721  22.899  0.00  0.00    +0.000 N 
ATOM     18  N   UNL     1      -0.903  10.778  21.328  0.00  0.00    +0.000 N 
ATOM     19  C   UNL     1      -0.311  10.359  20.176  0.00  0.00    +0.000 A 
ATOM     20  N   UNL     1       0.667   9.474  20.053  0.00  0.00    +0.000 NA
ATOM     21  C   UNL     1       0.991   9.314  18.701  0.00  0.00    +0.000 A 
ATOM     22  C   UNL     1       0.246  10.109  17.840  0.00  0.00    +0.000 A 
ATOM     23  S   UNL     1      -0.888  11.029  18.697  0.00  0.00    +0.000 S 
ATOM     24  H   UNL     1      -1.071  10.740  24.455  0.00  0.00    +0.000 HD
ATOM     25  H   UNL     1       0.385   9.211  23.772  0.00  0.00    +0.000 HD
ATOM     26  H   UNL     1       0.703   9.129  22.123  0.00  0.00    +0.000 HD
ATOM     27  H   UNL     1      -1.676  11.409  21.228  0.00  0.00    +0.000 HD
ENDBRANCH   1  21
TORSDOF 1
ENDMDL
MODEL 9
REMARK VINA RESULT:      -7.1      2.997      3.614
REMARK  Name = 
REMARK  1 active torsions:
REMARK  status: ('A' for Active; 'I' for Inactive)
REMARK    1  A    between atoms: C_7  and  C_8
REMARK                            x       y       z     vdW  Elec       q    Type
REMARK                         _______ _______ _______ _____ _____    ______ ____
ROOT
ATOM      1  C   UNL     1       1.636   7.395  20.650  0.00  0.00    +0.000 C 
ATOM      2  O   UNL     1       1.303   6.406  21.297  0.00  0.00    +0.000 OA
ATOM      3  N   UNL     1       2.598   7.420  19.651  0.00  0.00    +0.000 N 
ATOM      4  C   UNL     1       3.225   6.240  19.337  0.00  0.00    +0.000 A 
ATOM      5  N   UNL     1       3.354   5.186  20.099  0.00  0.00    +0.000 NA
ATOM      6  C   UNL     1       3.358   4.075  19.284  0.00  0.00    +0.000 A 
ATOM      7  C   UNL     1       3.064   2.755  19.647  0.00  0.00    +0.000 A 
ATOM      8 CL   UNL     1       4.028   2.140  20.933  0.00  0.00    +0.000 Cl
ATOM      9  C   UNL     1       2.553   1.890  18.697  0.00  0.00    +0.000 A 
ATOM     10  C   UNL     1       2.873   2.126  17.366  0.00  0.00    +0.000 A 
ATOM     11  C   UNL     1       3.525   3.304  16.975  0.00  0.00    +0.000 A 
ATOM     12  C   UNL     1       3.566   4.338  17.926  0.00  0.00    +0.000 A 
ATOM     13  S   UNL     1       3.791   6.049  17.738  0.00  0.00    +0.000 S 
ATOM     14  H   UNL     1       2.605   8.187  18.997  0.00  0.00    +0.000 HD
ENDROOT
BRANCH   1  21
ATOM     15  N   UNL     1      -1.709  12.801  18.074  0.00  0.00    +0.000 NA
ATOM     16  C   UNL     1      -1.133  11.696  18.453  0.00  0.00    +0.000 C 
ATOM     17  N   UNL     1      -0.854  10.699  17.589  0.00  0.00    +0.000 N 
ATOM     18  N   UNL     1      -0.817  11.541  19.738  0.00  0.00    +0.000 N 
ATOM     19  C   UNL     1      -0.179  10.533  20.394  0.00  0.00    +0.000 A 
ATOM     20  N   UNL     1       0.370   9.451  19.863  0.00  0.00    +0.000 NA
ATOM     21  C   UNL     1       0.931   8.662  20.874  0.00  0.00    +0.000 A 
ATOM     22  C   UNL     1       0.769   9.177  22.153  0.00  0.00    +0.000 A 
ATOM     23  S   UNL     1      -0.045  10.661  22.107  0.00  0.00    +0.000 S 
ATOM     24  H   UNL     1      -1.919  12.765  17.075  0.00  0.00    +0.000 HD
ATOM     25  H   UNL     1      -0.727  10.950  16.618  0.00  0.00    +0.000 HD
ATOM     26  H   UNL     1      -0.121  10.076  17.921  0.00  0.00    +0.000 HD
ATOM     27  H   UNL     1      -1.115  12.318  20.297  0.00  0.00    +0.000 HD
ENDBRANCH   1  21
TORSDOF 1
ENDMDL
