MODEL 1
REMARK VINA RESULT:      -7.7      0.000      0.000
REMARK  Name = 
REMARK  6 active torsions:
REMARK  status: ('A' for Active; 'I' for Inactive)
REMARK    1  A    between atoms: C_1  and  C_2
REMARK    2  A    between atoms: C_2  and  O_3
REMARK    3  A    between atoms: O_3  and  C_4
REMARK    4  A    between atoms: C_9  and  N_10
REMARK    5  A    between atoms: C_11  and  C_13
REMARK    6  A    between atoms: N_15  and  C_16
REMARK                            x       y       z     vdW  Elec       q    Type
REMARK                         _______ _______ _______ _____ _____    ______ ____
ROOT
ATOM      1  C   UNL     1       1.598   8.522  19.629  0.00  0.00    +0.000 A 
ATOM      2  N   UNL     1       1.797   9.350  18.579  0.00  0.00    +0.000 NA
ATOM      3  N   UNL     1       1.203  10.500  18.980  0.00  0.00    +0.000 N 
ATOM      4  C   UNL     1       1.767  11.776  18.593  0.00  0.00    +0.000 C 
ATOM      5  C   UNL     1       0.364  10.314  20.049  0.00  0.00    +0.000 A 
ATOM      6  C   UNL     1       0.935   9.235  20.687  0.00  0.00    +0.000 A 
ATOM      7  C   UNL     1       0.843   8.931  22.133  0.00  0.00    +0.000 C 
ATOM      8  S   UNL     1      -0.312   9.997  23.100  0.00  0.00    +0.000 S 
ATOM      9  C   UNL     1      -1.023  11.145  21.914  0.00  0.00    +0.000 A 
ATOM     10  C   UNL     1      -2.034  11.998  22.389  0.00  0.00    +0.000 A 
ATOM     11  C   UNL     1      -2.736  12.835  21.518  0.00  0.00    +0.000 A 
ATOM     12  C   UNL     1      -2.445  12.823  20.159  0.00  0.00    +0.000 A 
ATOM     13  C   UNL     1      -1.416  12.011  19.680  0.00  0.00    +0.000 A 
ATOM     14  C   UNL     1      -0.672  11.199  20.555  0.00  0.00    +0.000 A 
ENDROOT
BRANCH   1  16
ATOM     15  N   UNL     1       2.592   6.655  18.439  0.00  0.00    +0.000 N 
ATOM     16  C   UNL     1       2.014   7.100  19.627  0.00  0.00    +0.000 C 
ATOM     17  O   UNL     1       1.826   6.407  20.623  0.00  0.00    +0.000 OA
ATOM     18  H   UNL     1       2.863   7.375  17.775  0.00  0.00    +0.000 HD
BRANCH  15  24
ATOM     19  C   UNL     1       4.294   4.903  18.154  0.00  0.00    +0.000 A 
ATOM     20  C   UNL     1       4.603   3.542  17.962  0.00  0.00    +0.000 A 
ATOM     21  C   UNL     1       3.617   2.618  17.629  0.00  0.00    +0.000 A 
ATOM     22  C   UNL     1       2.303   3.038  17.497  0.00  0.00    +0.000 A 
ATOM     23  C   UNL     1       1.969   4.370  17.761  0.00  0.00    +0.000 A 
ATOM     24  C   UNL     1       2.943   5.312  18.129  0.00  0.00    +0.000 A 
BRANCH  19  25
ATOM     25  O   UNL     1       5.259   5.862  18.380  0.00  0.00    +0.000 OA
BRANCH  25  27
ATOM     26  C   UNL     1       7.652   6.093  18.687  0.00  0.00    +0.000 C 
ATOM     27  C   UNL     1       6.379   5.418  19.162  0.00  0.00    +0.000 C 
ENDBRANCH  25  27
ENDBRANCH  19  25
ENDBRANCH  15  24
ENDBRANCH   1  16
TORSDOF 4
ENDMDL
MODEL 2
REMARK VINA RESULT:      -7.5      2.072      3.347
REMARK  Name = 
REMARK  6 active torsions:
REMARK  status: ('A' for Active; 'I' for Inactive)
REMARK    1  A    between atoms: C_1  and  C_2
REMARK    2  A    between atoms: C_2  and  O_3
REMARK    3  A    between atoms: O_3  and  C_4
REMARK    4  A    between atoms: C_9  and  N_10
REMARK    5  A    between atoms: C_11  and  C_13
REMARK    6  A    between atoms: N_15  and  C_16
REMARK                            x       y       z     vdW  Elec       q    Type
REMARK                         _______ _______ _______ _____ _____    ______ ____
ROOT
ATOM      1  C   UNL     1       1.111   9.130  19.582  0.00  0.00    +0.000 A 
ATOM      2  N   UNL     1       1.338   8.891  20.893  0.00  0.00    +0.000 NA
ATOM      3  N   UNL     1       0.441   9.696  21.511  0.00  0.00    +0.000 N 
ATOM      4  C   UNL     1      -0.187   9.265  22.743  0.00  0.00    +0.000 C 
ATOM      5  C   UNL     1      -0.070  10.655  20.674  0.00  0.00    +0.000 A 
ATOM      6  C   UNL     1       0.008  10.042  19.443  0.00  0.00    +0.000 A 
ATOM      7  C   UNL     1      -0.867  10.312  18.280  0.00  0.00    +0.000 C 
ATOM      8  S   UNL     1      -2.020  11.741  18.464  0.00  0.00    +0.000 S 
ATOM      9  C   UNL     1      -1.701  12.416  20.099  0.00  0.00    +0.000 A 
ATOM     10  C   UNL     1      -2.381  13.599  20.437  0.00  0.00    +0.000 A 
ATOM     11  C   UNL     1      -2.104  14.269  21.631  0.00  0.00    +0.000 A 
ATOM     12  C   UNL     1      -1.138  13.774  22.498  0.00  0.00    +0.000 A 
ATOM     13  C   UNL     1      -0.485  12.579  22.194  0.00  0.00    +0.000 A 
ATOM     14  C   UNL     1      -0.788  11.871  21.017  0.00  0.00    +0.000 A 
ENDROOT
BRANCH   1  16
ATOM     15  N   UNL     1       2.440   7.262  18.787  0.00  0.00    +0.000 N 
ATOM     16  C   UNL     1       1.917   8.521  18.499  0.00  0.00    +0.000 C 
ATOM     17  O   UNL     1       2.090   9.134  17.449  0.00  0.00    +0.000 OA
ATOM     18  H   UNL     1       2.059   6.794  19.605  0.00  0.00    +0.000 HD
BRANCH  15  24
ATOM     19  C   UNL     1       3.295   5.121  17.929  0.00  0.00    +0.000 A 
ATOM     20  C   UNL     1       4.133   4.429  17.034  0.00  0.00    +0.000 A 
ATOM     21  C   UNL     1       5.102   5.097  16.289  0.00  0.00    +0.000 A 
ATOM     22  C   UNL     1       5.237   6.470  16.420  0.00  0.00    +0.000 A 
ATOM     23  C   UNL     1       4.361   7.180  17.247  0.00  0.00    +0.000 A 
ATOM     24  C   UNL     1       3.357   6.530  17.982  0.00  0.00    +0.000 A 
BRANCH  19  25
ATOM     25  O   UNL     1       2.398   4.479  18.758  0.00  0.00    +0.000 OA
BRANCH  25  27
ATOM     26  C   UNL     1       0.927   2.565  18.968  0.00  0.00    +0.000 C 
ATOM     27  C   UNL     1       1.402   3.698  18.079  0.00  0.00    +0.000 C 
ENDBRANCH  25  27
ENDBRANCH  19  25
ENDBRANCH  15  24
ENDBRANCH   1  16
TORSDOF 4
ENDMDL
MODEL 3
REMARK VINA RESULT:      -7.5      1.549      2.198
REMARK  Name = 
REMARK  6 active torsions:
REMARK  status: ('A' for Active; 'I' for Inactive)
REMARK    1  A    between atoms: C_1  and  C_2
REMARK    2  A    between atoms: C_2  and  O_3
REMARK    3  A    between atoms: O_3  and  C_4
REMARK    4  A    between atoms: C_9  and  N_10
REMARK    5  A    between atoms: C_11  and  C_13
REMARK    6  A    between atoms: N_15  and  C_16
REMARK                            x       y       z     vdW  Elec       q    Type
REMARK                         _______ _______ _______ _____ _____    ______ ____
ROOT
ATOM      1  C   UNL     1       1.926   9.023  18.537  0.00  0.00    +0.000 A 
ATOM      2  N   UNL     1       1.964  10.143  17.780  0.00  0.00    +0.000 NA
ATOM      3  N   UNL     1       1.398  11.075  18.584  0.00  0.00    +0.000 N 
ATOM      4  C   UNL     1       1.873  12.442  18.548  0.00  0.00    +0.000 C 
ATOM      5  C   UNL     1       0.711  10.519  19.632  0.00  0.00    +0.000 A 
ATOM      6  C   UNL     1       1.389   9.337  19.833  0.00  0.00    +0.000 A 
ATOM      7  C   UNL     1       1.494   8.602  21.114  0.00  0.00    +0.000 C 
ATOM      8  S   UNL     1       0.449   9.245  22.492  0.00  0.00    +0.000 S 
ATOM      9  C   UNL     1      -0.441  10.651  21.811  0.00  0.00    +0.000 A 
ATOM     10  C   UNL     1      -1.403  11.251  22.642  0.00  0.00    +0.000 A 
ATOM     11  C   UNL     1      -2.235  12.265  22.161  0.00  0.00    +0.000 A 
ATOM     12  C   UNL     1      -2.125  12.686  20.842  0.00  0.00    +0.000 A 
ATOM     13  C   UNL     1      -1.146  12.127  20.018  0.00  0.00    +0.000 A 
ATOM     14  C   UNL     1      -0.272  11.138  20.505  0.00  0.00    +0.000 A 
ENDROOT
BRANCH   1  16
ATOM     15  N   UNL     1       3.754   7.558  17.908  0.00  0.00    +0.000 N 
ATOM     16  C   UNL     1       2.375   7.700  18.046  0.00  0.00    +0.000 C 
ATOM     17  O   UNL     1       1.546   6.834  17.781  0.00  0.00    +0.000 OA
ATOM     18  H   UNL     1       4.326   8.276  18.345  0.00  0.00    +0.000 HD
BRANCH  15  24
ATOM     19  C   UNL     1       4.630   5.265  18.068  0.00  0.00    +0.000 A 
ATOM     20  C   UNL     1       5.192   4.141  17.431  0.00  0.00    +0.000 A 
ATOM     21  C   UNL     1       5.661   4.213  16.122  0.00  0.00    +0.000 A 
ATOM     22  C   UNL     1       5.563   5.408  15.426  0.00  0.00    +0.000 A 
ATOM     23  C   UNL     1       4.938   6.509  16.018  0.00  0.00    +0.000 A 
ATOM     24  C   UNL     1       4.429   6.449  17.325  0.00  0.00    +0.000 A 
BRANCH  19  25
ATOM     25  O   UNL     1       4.252   5.257  19.395  0.00  0.00    +0.000 OA
BRANCH  25  27
ATOM     26  C   UNL     1       2.216   4.928  20.666  0.00  0.00    +0.000 C 
ATOM     27  C   UNL     1       3.230   4.305  19.726  0.00  0.00    +0.000 C 
ENDBRANCH  25  27
ENDBRANCH  19  25
ENDBRANCH  15  24
ENDBRANCH   1  16
TORSDOF 4
ENDMDL
MODEL 4
REMARK VINA RESULT:      -7.3      1.677      2.652
REMARK  Name = 
REMARK  6 active torsions:
REMARK  status: ('A' for Active; 'I' for Inactive)
REMARK    1  A    between atoms: C_1  and  C_2
REMARK    2  A    between atoms: C_2  and  O_3
REMARK    3  A    between atoms: O_3  and  C_4
REMARK    4  A    between atoms: C_9  and  N_10
REMARK    5  A    between atoms: C_11  and  C_13
REMARK    6  A    between atoms: N_15  and  C_16
REMARK                            x       y       z     vdW  Elec       q    Type
REMARK                         _______ _______ _______ _____ _____    ______ ____
ROOT
ATOM      1  C   UNL     1       1.423   9.998  19.098  0.00  0.00    +0.000 A 
ATOM      2  N   UNL     1       1.689  11.249  18.659  0.00  0.00    +0.000 NA
ATOM      3  N   UNL     1       1.169  12.032  19.635  0.00  0.00    +0.000 N 
ATOM      4  C   UNL     1       1.822  13.276  19.986  0.00  0.00    +0.000 C 
ATOM      5  C   UNL     1       0.307  11.349  20.455  0.00  0.00    +0.000 A 
ATOM      6  C   UNL     1       0.797  10.064  20.391  0.00  0.00    +0.000 A 
ATOM      7  C   UNL     1       0.668   9.031  21.443  0.00  0.00    +0.000 C 
ATOM      8  S   UNL     1      -0.424   9.471  22.864  0.00  0.00    +0.000 S 
ATOM      9  C   UNL     1      -1.042  11.121  22.509  0.00  0.00    +0.000 A 
ATOM     10  C   UNL     1      -1.999  11.641  23.397  0.00  0.00    +0.000 A 
ATOM     11  C   UNL     1      -2.633  12.858  23.137  0.00  0.00    +0.000 A 
ATOM     12  C   UNL     1      -2.329  13.567  21.982  0.00  0.00    +0.000 A 
ATOM     13  C   UNL     1      -1.351  13.082  21.112  0.00  0.00    +0.000 A 
ATOM     14  C   UNL     1      -0.673  11.881  21.387  0.00  0.00    +0.000 A 
ENDROOT
BRANCH   1  16
ATOM     15  N   UNL     1       2.524   7.839  18.979  0.00  0.00    +0.000 N 
ATOM     16  C   UNL     1       1.743   8.782  18.315  0.00  0.00    +0.000 C 
ATOM     17  O   UNL     1       1.334   8.674  17.162  0.00  0.00    +0.000 OA
ATOM     18  H   UNL     1       2.623   7.965  19.983  0.00  0.00    +0.000 HD
BRANCH  15  24
ATOM     19  C   UNL     1       2.662   5.386  18.844  0.00  0.00    +0.000 A 
ATOM     20  C   UNL     1       3.143   4.241  18.181  0.00  0.00    +0.000 A 
ATOM     21  C   UNL     1       4.113   4.335  17.188  0.00  0.00    +0.000 A 
ATOM     22  C   UNL     1       4.609   5.580  16.834  0.00  0.00    +0.000 A 
ATOM     23  C   UNL     1       4.086   6.733  17.428  0.00  0.00    +0.000 A 
ATOM     24  C   UNL     1       3.084   6.662  18.409  0.00  0.00    +0.000 A 
BRANCH  19  25
ATOM     25  O   UNL     1       1.780   5.320  19.903  0.00  0.00    +0.000 OA
BRANCH  25  27
ATOM     26  C   UNL     1       1.531   3.344  21.283  0.00  0.00    +0.000 C 
ATOM     27  C   UNL     1       1.083   4.071  20.029  0.00  0.00    +0.000 C 
ENDBRANCH  25  27
ENDBRANCH  19  25
ENDBRANCH  15  24
ENDBRANCH   1  16
TORSDOF 4
ENDMDL
MODEL 5
REMARK VINA RESULT:      -7.3      1.397      1.514
REMARK  Name = 
REMARK  6 active torsions:
REMARK  status: ('A' for Active; 'I' for Inactive)
REMARK    1  A    between atoms: C_1  and  C_2
REMARK    2  A    between atoms: C_2  and  O_3
REMARK    3  A    between atoms: O_3  and  C_4
REMARK    4  A    between atoms: C_9  and  N_10
REMARK    5  A    between atoms: C_11  and  C_13
REMARK    6  A    between atoms: N_15  and  C_16
REMARK                            x       y       z     vdW  Elec       q    Type
REMARK                         _______ _______ _______ _____ _____    ______ ____
ROOT
ATOM      1  C   UNL     1       1.677   8.735  19.156  0.00  0.00    +0.000 A 
ATOM      2  N   UNL     1       1.799   9.760  18.283  0.00  0.00    +0.000 NA
ATOM      3  N   UNL     1       1.260  10.804  18.959  0.00  0.00    +0.000 N 
ATOM      4  C   UNL     1       1.811  12.132  18.792  0.00  0.00    +0.000 C 
ATOM      5  C   UNL     1       0.512  10.403  20.036  0.00  0.00    +0.000 A 
ATOM      6  C   UNL     1       1.118   9.217  20.389  0.00  0.00    +0.000 A 
ATOM      7  C   UNL     1       1.143   8.624  21.746  0.00  0.00    +0.000 C 
ATOM      8  S   UNL     1       0.092   9.469  23.006  0.00  0.00    +0.000 S 
ATOM      9  C   UNL     1      -0.697  10.834  22.144  0.00  0.00    +0.000 A 
ATOM     10  C   UNL     1      -1.651  11.571  22.868  0.00  0.00    +0.000 A 
ATOM     11  C   UNL     1      -2.410  12.567  22.249  0.00  0.00    +0.000 A 
ATOM     12  C   UNL     1      -2.236  12.833  20.897  0.00  0.00    +0.000 A 
ATOM     13  C   UNL     1      -1.264  12.137  20.175  0.00  0.00    +0.000 A 
ATOM     14  C   UNL     1      -0.462  11.164  20.799  0.00  0.00    +0.000 A 
ENDROOT
BRANCH   1  16
ATOM     15  N   UNL     1       2.638   6.628  19.878  0.00  0.00    +0.000 N 
ATOM     16  C   UNL     1       2.067   7.344  18.828  0.00  0.00    +0.000 C 
ATOM     17  O   UNL     1       1.890   6.912  17.693  0.00  0.00    +0.000 OA
ATOM     18  H   UNL     1       2.544   7.036  20.804  0.00  0.00    +0.000 HD
BRANCH  15  24
ATOM     19  C   UNL     1       4.459   5.153  19.131  0.00  0.00    +0.000 A 
ATOM     20  C   UNL     1       5.076   3.887  19.162  0.00  0.00    +0.000 A 
ATOM     21  C   UNL     1       4.436   2.786  19.725  0.00  0.00    +0.000 A 
ATOM     22  C   UNL     1       3.174   2.939  20.278  0.00  0.00    +0.000 A 
ATOM     23  C   UNL     1       2.583   4.205  20.323  0.00  0.00    +0.000 A 
ATOM     24  C   UNL     1       3.224   5.334  19.790  0.00  0.00    +0.000 A 
BRANCH  19  25
ATOM     25  O   UNL     1       5.019   6.238  18.489  0.00  0.00    +0.000 OA
BRANCH  25  27
ATOM     26  C   UNL     1       5.107   6.350  16.070  0.00  0.00    +0.000 C 
ATOM     27  C   UNL     1       5.815   5.915  17.339  0.00  0.00    +0.000 C 
ENDBRANCH  25  27
ENDBRANCH  19  25
ENDBRANCH  15  24
ENDBRANCH   1  16
TORSDOF 4
ENDMDL
MODEL 6
REMARK VINA RESULT:      -7.2      1.573      2.609
REMARK  Name = 
REMARK  6 active torsions:
REMARK  status: ('A' for Active; 'I' for Inactive)
REMARK    1  A    between atoms: C_1  and  C_2
REMARK    2  A    between atoms: C_2  and  O_3
REMARK    3  A    between atoms: O_3  and  C_4
REMARK    4  A    between atoms: C_9  and  N_10
REMARK    5  A    between atoms: C_11  and  C_13
REMARK    6  A    between atoms: N_15  and  C_16
REMARK                            x       y       z     vdW  Elec       q    Type
REMARK                         _______ _______ _______ _____ _____    ______ ____
ROOT
ATOM      1  C   UNL     1       1.614   9.068  19.142  0.00  0.00    +0.000 A 
ATOM      2  N   UNL     1       1.640  10.150  18.333  0.00  0.00    +0.000 NA
ATOM      3  N   UNL     1       1.052  11.110  19.086  0.00  0.00    +0.000 N 
ATOM      4  C   UNL     1       1.505  12.482  18.990  0.00  0.00    +0.000 C 
ATOM      5  C   UNL     1       0.364  10.593  20.154  0.00  0.00    +0.000 A 
ATOM      6  C   UNL     1       1.060   9.433  20.417  0.00  0.00    +0.000 A 
ATOM      7  C   UNL     1       1.165   8.762  21.732  0.00  0.00    +0.000 C 
ATOM      8  S   UNL     1       0.097   9.452  23.069  0.00  0.00    +0.000 S 
ATOM      9  C   UNL     1      -0.810  10.809  22.315  0.00  0.00    +0.000 A 
ATOM     10  C   UNL     1      -1.789  11.431  23.108  0.00  0.00    +0.000 A 
ATOM     11  C   UNL     1      -2.633  12.407  22.572  0.00  0.00    +0.000 A 
ATOM     12  C   UNL     1      -2.517  12.767  21.235  0.00  0.00    +0.000 A 
ATOM     13  C   UNL     1      -1.522  12.186  20.447  0.00  0.00    +0.000 A 
ATOM     14  C   UNL     1      -0.637  11.236  20.988  0.00  0.00    +0.000 A 
ENDROOT
BRANCH   1  16
ATOM     15  N   UNL     1       2.798   7.020  19.685  0.00  0.00    +0.000 N 
ATOM     16  C   UNL     1       2.089   7.731  18.718  0.00  0.00    +0.000 C 
ATOM     17  O   UNL     1       1.858   7.334  17.579  0.00  0.00    +0.000 OA
ATOM     18  H   UNL     1       2.744   7.380  20.635  0.00  0.00    +0.000 HD
BRANCH  15  24
ATOM     19  C   UNL     1       2.815   4.561  19.719  0.00  0.00    +0.000 A 
ATOM     20  C   UNL     1       3.471   3.355  19.402  0.00  0.00    +0.000 A 
ATOM     21  C   UNL     1       4.798   3.344  18.982  0.00  0.00    +0.000 A 
ATOM     22  C   UNL     1       5.486   4.541  18.860  0.00  0.00    +0.000 A 
ATOM     23  C   UNL     1       4.825   5.751  19.096  0.00  0.00    +0.000 A 
ATOM     24  C   UNL     1       3.478   5.786  19.489  0.00  0.00    +0.000 A 
BRANCH  19  25
ATOM     25  O   UNL     1       1.537   4.600  20.236  0.00  0.00    +0.000 OA
BRANCH  25  27
ATOM     26  C   UNL     1       1.313   2.699  21.722  0.00  0.00    +0.000 C 
ATOM     27  C   UNL     1       0.911   3.318  20.397  0.00  0.00    +0.000 C 
ENDBRANCH  25  27
ENDBRANCH  19  25
ENDBRANCH  15  24
ENDBRANCH   1  16
TORSDOF 4
ENDMDL
MODEL 7
REMARK VINA RESULT:      -7.2      1.161      1.306
REMARK  Name = 
REMARK  6 active torsions:
REMARK  status: ('A' for Active; 'I' for Inactive)
REMARK    1  A    between atoms: C_1  and  C_2
REMARK    2  A    between atoms: C_2  and  O_3
REMARK    3  A    between atoms: O_3  and  C_4
REMARK    4  A    between atoms: C_9  and  N_10
REMARK    5  A    between atoms: C_11  and  C_13
REMARK    6  A    between atoms: N_15  and  C_16
REMARK                            x       y       z     vdW  Elec       q    Type
REMARK                         _______ _______ _______ _____ _____    ______ ____
ROOT
ATOM      1  C   UNL     1       2.119   8.714  18.450  0.00  0.00    +0.000 A 
ATOM      2  N   UNL     1       2.182   9.806  17.654  0.00  0.00    +0.000 NA
ATOM      3  N   UNL     1       1.619  10.774  18.417  0.00  0.00    +0.000 N 
ATOM      4  C   UNL     1       2.113  12.132  18.340  0.00  0.00    +0.000 C 
ATOM      5  C   UNL     1       0.912  10.264  19.476  0.00  0.00    +0.000 A 
ATOM      6  C   UNL     1       1.571   9.080  19.727  0.00  0.00    +0.000 A 
ATOM      7  C   UNL     1       1.650   8.390  21.034  0.00  0.00    +0.000 C 
ATOM      8  S   UNL     1       0.597   9.095  22.375  0.00  0.00    +0.000 S 
ATOM      9  C   UNL     1      -0.265  10.488  21.634  0.00  0.00    +0.000 A 
ATOM     10  C   UNL     1      -1.229  11.129  22.431  0.00  0.00    +0.000 A 
ATOM     11  C   UNL     1      -2.041  12.137  21.904  0.00  0.00    +0.000 A 
ATOM     12  C   UNL     1      -1.909  12.509  20.572  0.00  0.00    +0.000 A 
ATOM     13  C   UNL     1      -0.927  11.909  19.781  0.00  0.00    +0.000 A 
ATOM     14  C   UNL     1      -0.074  10.926  20.313  0.00  0.00    +0.000 A 
ENDROOT
BRANCH   1  16
ATOM     15  N   UNL     1       2.091   6.312  18.790  0.00  0.00    +0.000 N 
ATOM     16  C   UNL     1       2.556   7.369  18.010  0.00  0.00    +0.000 C 
ATOM     17  O   UNL     1       3.287   7.255  17.030  0.00  0.00    +0.000 OA
ATOM     18  H   UNL     1       1.343   6.532  19.444  0.00  0.00    +0.000 HD
BRANCH  15  24
ATOM     19  C   UNL     1       3.742   4.520  19.126  0.00  0.00    +0.000 A 
ATOM     20  C   UNL     1       4.051   3.146  19.106  0.00  0.00    +0.000 A 
ATOM     21  C   UNL     1       3.182   2.219  18.537  0.00  0.00    +0.000 A 
ATOM     22  C   UNL     1       1.984   2.652  17.991  0.00  0.00    +0.000 A 
ATOM     23  C   UNL     1       1.629   4.001  18.072  0.00  0.00    +0.000 A 
ATOM     24  C   UNL     1       2.476   4.948  18.670  0.00  0.00    +0.000 A 
BRANCH  19  25
ATOM     25  O   UNL     1       4.624   5.476  19.586  0.00  0.00    +0.000 OA
BRANCH  25  27
ATOM     26  C   UNL     1       6.372   6.012  17.997  0.00  0.00    +0.000 C 
ATOM     27  C   UNL     1       6.000   5.240  19.248  0.00  0.00    +0.000 C 
ENDBRANCH  25  27
ENDBRANCH  19  25
ENDBRANCH  15  24
ENDBRANCH   1  16
TORSDOF 4
ENDMDL
MODEL 8
REMARK VINA RESULT:      -7.0      2.857      8.414
REMARK  Name = 
REMARK  6 active torsions:
REMARK  status: ('A' for Active; 'I' for Inactive)
REMARK    1  A    between atoms: C_1  and  C_2
REMARK    2  A    between atoms: C_2  and  O_3
REMARK    3  A    between atoms: O_3  and  C_4
REMARK    4  A    between atoms: C_9  and  N_10
REMARK    5  A    between atoms: C_11  and  C_13
REMARK    6  A    between atoms: N_15  and  C_16
REMARK                            x       y       z     vdW  Elec       q    Type
REMARK                         _______ _______ _______ _____ _____    ______ ____
ROOT
ATOM      1  C   UNL     1       2.571   5.116  19.029  0.00  0.00    +0.000 A 
ATOM      2  N   UNL     1       1.953   4.135  18.334  0.00  0.00    +0.000 NA
ATOM      3  N   UNL     1       2.939   3.657  17.537  0.00  0.00    +0.000 N 
ATOM      4  C   UNL     1       2.990   2.245  17.219  0.00  0.00    +0.000 C 
ATOM      5  C   UNL     1       4.011   4.509  17.457  0.00  0.00    +0.000 A 
ATOM      6  C   UNL     1       3.963   5.156  18.673  0.00  0.00    +0.000 A 
ATOM      7  C   UNL     1       5.116   5.743  19.391  0.00  0.00    +0.000 C 
ATOM      8  S   UNL     1       6.708   5.774  18.457  0.00  0.00    +0.000 S 
ATOM      9  C   UNL     1       6.344   5.042  16.855  0.00  0.00    +0.000 A 
ATOM     10  C   UNL     1       7.380   5.057  15.905  0.00  0.00    +0.000 A 
ATOM     11  C   UNL     1       7.158   4.630  14.594  0.00  0.00    +0.000 A 
ATOM     12  C   UNL     1       5.896   4.193  14.210  0.00  0.00    +0.000 A 
ATOM     13  C   UNL     1       4.869   4.135  15.154  0.00  0.00    +0.000 A 
ATOM     14  C   UNL     1       5.094   4.519  16.488  0.00  0.00    +0.000 A 
ENDROOT
BRANCH   1  16
ATOM     15  N   UNL     1       1.833   7.343  19.649  0.00  0.00    +0.000 N 
ATOM     16  C   UNL     1       1.864   5.992  19.991  0.00  0.00    +0.000 C 
ATOM     17  O   UNL     1       1.370   5.510  21.007  0.00  0.00    +0.000 OA
ATOM     18  H   UNL     1       2.104   7.571  18.696  0.00  0.00    +0.000 HD
BRANCH  15  24
ATOM     19  C   UNL     1       0.636   9.478  19.887  0.00  0.00    +0.000 A 
ATOM     20  C   UNL     1       0.062  10.452  20.728  0.00  0.00    +0.000 A 
ATOM     21  C   UNL     1       0.283  10.440  22.102  0.00  0.00    +0.000 A 
ATOM     22  C   UNL     1       1.072   9.446  22.658  0.00  0.00    +0.000 A 
ATOM     23  C   UNL     1       1.585   8.429  21.847  0.00  0.00    +0.000 A 
ATOM     24  C   UNL     1       1.347   8.404  20.464  0.00  0.00    +0.000 A 
BRANCH  19  25
ATOM     25  O   UNL     1       0.523   9.520  18.513  0.00  0.00    +0.000 OA
BRANCH  25  27
ATOM     26  C   UNL     1      -1.594   9.922  17.405  0.00  0.00    +0.000 C 
ATOM     27  C   UNL     1      -0.351  10.543  18.010  0.00  0.00    +0.000 C 
ENDBRANCH  25  27
ENDBRANCH  19  25
ENDBRANCH  15  24
ENDBRANCH   1  16
TORSDOF 4
ENDMDL
MODEL 9
REMARK VINA RESULT:      -6.9      2.171      3.343
REMARK  Name = 
REMARK  6 active torsions:
REMARK  status: ('A' for Active; 'I' for Inactive)
REMARK    1  A    between atoms: C_1  and  C_2
REMARK    2  A    between atoms: C_2  and  O_3
REMARK    3  A    between atoms: O_3  and  C_4
REMARK    4  A    between atoms: C_9  and  N_10
REMARK    5  A    between atoms: C_11  and  C_13
REMARK    6  A    between atoms: N_15  and  C_16
REMARK                            x       y       z     vdW  Elec       q    Type
REMARK                         _______ _______ _______ _____ _____    ______ ____
ROOT
ATOM      1  C   UNL     1       1.213   8.831  20.238  0.00  0.00    +0.000 A 
ATOM      2  N   UNL     1       1.273   8.799  21.588  0.00  0.00    +0.000 NA
ATOM      3  N   UNL     1       0.469   9.827  21.955  0.00  0.00    +0.000 N 
ATOM      4  C   UNL     1      -0.334   9.722  23.155  0.00  0.00    +0.000 C 
ATOM      5  C   UNL     1       0.208  10.686  20.918  0.00  0.00    +0.000 A 
ATOM      6  C   UNL     1       0.297   9.858  19.821  0.00  0.00    +0.000 A 
ATOM      7  C   UNL     1      -0.408  10.043  18.532  0.00  0.00    +0.000 C 
ATOM      8  S   UNL     1      -1.317  11.638  18.342  0.00  0.00    +0.000 S 
ATOM      9  C   UNL     1      -1.043  12.539  19.873  0.00  0.00    +0.000 A 
ATOM     10  C   UNL     1      -1.543  13.851  19.931  0.00  0.00    +0.000 A 
ATOM     11  C   UNL     1      -1.272  14.675  21.026  0.00  0.00    +0.000 A 
ATOM     12  C   UNL     1      -0.488  14.205  22.072  0.00  0.00    +0.000 A 
ATOM     13  C   UNL     1      -0.019  12.890  22.046  0.00  0.00    +0.000 A 
ATOM     14  C   UNL     1      -0.325  12.037  20.970  0.00  0.00    +0.000 A 
ENDROOT
BRANCH   1  16
ATOM     15  N   UNL     1       2.324   6.695  19.942  0.00  0.00    +0.000 N 
ATOM     16  C   UNL     1       2.003   7.925  19.373  0.00  0.00    +0.000 C 
ATOM     17  O   UNL     1       2.336   8.291  18.249  0.00  0.00    +0.000 OA
ATOM     18  H   UNL     1       1.823   6.449  20.792  0.00  0.00    +0.000 HD
BRANCH  15  24
ATOM     19  C   UNL     1       2.661   4.500  18.882  0.00  0.00    +0.000 A 
ATOM     20  C   UNL     1       3.519   3.597  18.226  0.00  0.00    +0.000 A 
ATOM     21  C   UNL     1       4.892   3.819  18.167  0.00  0.00    +0.000 A 
ATOM     22  C   UNL     1       5.425   4.956  18.754  0.00  0.00    +0.000 A 
ATOM     23  C   UNL     1       4.577   5.900  19.342  0.00  0.00    +0.000 A 
ATOM     24  C   UNL     1       3.187   5.711  19.383  0.00  0.00    +0.000 A 
BRANCH  19  25
ATOM     25  O   UNL     1       1.312   4.259  19.049  0.00  0.00    +0.000 OA
BRANCH  25  27
ATOM     26  C   UNL     1       1.426   2.719  20.916  0.00  0.00    +0.000 C 
ATOM     27  C   UNL     1       0.901   4.049  20.409  0.00  0.00    +0.000 C 
ENDBRANCH  25  27
ENDBRANCH  19  25
ENDBRANCH  15  24
ENDBRANCH   1  16
TORSDOF 4
ENDMDL
