MODEL 1
REMARK VINA RESULT:      -6.8      0.000      0.000
REMARK  Name = 
REMARK  4 active torsions:
REMARK  status: ('A' for Active; 'I' for Inactive)
REMARK    1  A    between atoms: C_1  and  N_2
REMARK    2  A    between atoms: N_2  and  C_3
REMARK    3  A    between atoms: N_2  and  C_4
REMARK    4  A    between atoms: N_9  and  C_10
REMARK                            x       y       z     vdW  Elec       q    Type
REMARK                         _______ _______ _______ _____ _____    ______ ____
ROOT
ATOM      1  C   UNL     1       2.927   4.257  19.121  0.00  0.00    +0.000 C 
ATOM      2  C   UNL     1       2.914   5.593  19.036  0.00  0.00    +0.000 C 
ATOM      3 CL   UNL     1       2.161   6.734  20.048  0.00  0.00    +0.000 Cl
ATOM      4  C   UNL     1       3.750   6.044  17.915  0.00  0.00    +0.000 C 
ATOM      5  O   UNL     1       3.867   7.216  17.586  0.00  0.00    +0.000 OA
ATOM      6  N   UNL     1       4.290   4.931  17.344  0.00  0.00    +0.000 N 
ATOM      7  C   UNL     1       3.771   3.816  17.943  0.00  0.00    +0.000 C 
ATOM      8  O   UNL     1       3.960   2.647  17.639  0.00  0.00    +0.000 OA
ENDROOT
BRANCH   6   9
ATOM      9  C   UNL     1       5.259   4.939  16.307  0.00  0.00    +0.000 A 
ATOM     10  C   UNL     1       5.000   4.315  15.079  0.00  0.00    +0.000 A 
ATOM     11  C   UNL     1       5.921   4.391  14.034  0.00  0.00    +0.000 A 
ATOM     12  C   UNL     1       7.100   5.071  14.259  0.00  0.00    +0.000 A 
ATOM     13 CL   UNL     1       8.279   5.219  13.026  0.00  0.00    +0.000 Cl
ATOM     14  N   UNL     1       7.413   5.672  15.423  0.00  0.00    +0.000 NA
ATOM     15  C   UNL     1       6.485   5.601  16.413  0.00  0.00    +0.000 A 
ENDBRANCH   6   9
BRANCH   1  17
ATOM     16  C   UNL     1       3.171   2.661  21.042  0.00  0.00    +0.000 C 
ATOM     17  N   UNL     1       2.361   3.362  20.039  0.00  0.00    +0.000 N 
ATOM     18  C   UNL     1       0.924   3.091  20.097  0.00  0.00    +0.000 C 
ENDBRANCH   1  17
TORSDOF 2
ENDMDL
MODEL 2
REMARK VINA RESULT:      -6.7      2.913      6.051
REMARK  Name = 
REMARK  4 active torsions:
REMARK  status: ('A' for Active; 'I' for Inactive)
REMARK    1  A    between atoms: C_1  and  N_2
REMARK    2  A    between atoms: N_2  and  C_3
REMARK    3  A    between atoms: N_2  and  C_4
REMARK    4  A    between atoms: N_9  and  C_10
REMARK                            x       y       z     vdW  Elec       q    Type
REMARK                         _______ _______ _______ _____ _____    ______ ____
ROOT
ATOM      1  C   UNL     1       4.848   4.783  17.197  0.00  0.00    +0.000 C 
ATOM      2  C   UNL     1       3.803   4.039  17.580  0.00  0.00    +0.000 C 
ATOM      3 CL   UNL     1       3.630   2.348  17.603  0.00  0.00    +0.000 Cl
ATOM      4  C   UNL     1       2.727   4.895  18.100  0.00  0.00    +0.000 C 
ATOM      5  O   UNL     1       1.642   4.469  18.466  0.00  0.00    +0.000 OA
ATOM      6  N   UNL     1       3.174   6.181  18.041  0.00  0.00    +0.000 N 
ATOM      7  C   UNL     1       4.395   6.210  17.422  0.00  0.00    +0.000 C 
ATOM      8  O   UNL     1       5.056   7.192  17.121  0.00  0.00    +0.000 OA
ENDROOT
BRANCH   6   9
ATOM      9  C   UNL     1       2.485   7.305  18.566  0.00  0.00    +0.000 A 
ATOM     10  C   UNL     1       2.065   8.345  17.725  0.00  0.00    +0.000 A 
ATOM     11  C   UNL     1       1.320   9.411  18.229  0.00  0.00    +0.000 A 
ATOM     12  C   UNL     1       1.036   9.420  19.579  0.00  0.00    +0.000 A 
ATOM     13 CL   UNL     1       0.118  10.686  20.276  0.00  0.00    +0.000 Cl
ATOM     14  N   UNL     1       1.429   8.460  20.439  0.00  0.00    +0.000 NA
ATOM     15  C   UNL     1       2.133   7.423  19.912  0.00  0.00    +0.000 A 
ENDBRANCH   6   9
BRANCH   1  17
ATOM     16  C   UNL     1       6.330   3.976  15.340  0.00  0.00    +0.000 C 
ATOM     17  N   UNL     1       6.120   4.449  16.712  0.00  0.00    +0.000 N 
ATOM     18  C   UNL     1       7.335   4.588  17.516  0.00  0.00    +0.000 C 
ENDBRANCH   1  17
TORSDOF 2
ENDMDL
MODEL 3
REMARK VINA RESULT:      -6.4      2.880      6.064
REMARK  Name = 
REMARK  4 active torsions:
REMARK  status: ('A' for Active; 'I' for Inactive)
REMARK    1  A    between atoms: C_1  and  N_2
REMARK    2  A    between atoms: N_2  and  C_3
REMARK    3  A    between atoms: N_2  and  C_4
REMARK    4  A    between atoms: N_9  and  C_10
REMARK                            x       y       z     vdW  Elec       q    Type
REMARK                         _______ _______ _______ _____ _____    ______ ____
ROOT
ATOM      1  C   UNL     1       4.831   4.741  17.227  0.00  0.00    +0.000 C 
ATOM      2  C   UNL     1       3.797   3.975  17.595  0.00  0.00    +0.000 C 
ATOM      3 CL   UNL     1       3.656   2.280  17.604  0.00  0.00    +0.000 Cl
ATOM      4  C   UNL     1       2.701   4.806  18.112  0.00  0.00    +0.000 C 
ATOM      5  O   UNL     1       1.620   4.357  18.466  0.00  0.00    +0.000 OA
ATOM      6  N   UNL     1       3.124   6.101  18.067  0.00  0.00    +0.000 N 
ATOM      7  C   UNL     1       4.349   6.157  17.459  0.00  0.00    +0.000 C 
ATOM      8  O   UNL     1       4.994   7.154  17.171  0.00  0.00    +0.000 OA
ENDROOT
BRANCH   6   9
ATOM      9  C   UNL     1       2.408   7.207  18.594  0.00  0.00    +0.000 A 
ATOM     10  C   UNL     1       2.104   7.279  19.960  0.00  0.00    +0.000 A 
ATOM     11  C   UNL     1       1.469   8.403  20.489  0.00  0.00    +0.000 A 
ATOM     12  C   UNL     1       1.129   9.421  19.623  0.00  0.00    +0.000 A 
ATOM     13 CL   UNL     1       0.357  10.839  20.194  0.00  0.00    +0.000 Cl
ATOM     14  N   UNL     1       1.377   9.400  18.300  0.00  0.00    +0.000 NA
ATOM     15  C   UNL     1       2.018   8.302  17.819  0.00  0.00    +0.000 A 
ENDBRANCH   6   9
BRANCH   1  17
ATOM     16  C   UNL     1       6.346   3.998  15.370  0.00  0.00    +0.000 C 
ATOM     17  N   UNL     1       6.114   4.435  16.750  0.00  0.00    +0.000 N 
ATOM     18  C   UNL     1       7.316   4.570  17.573  0.00  0.00    +0.000 C 
ENDBRANCH   1  17
TORSDOF 2
ENDMDL
MODEL 4
REMARK VINA RESULT:      -6.2      3.129      5.528
REMARK  Name = 
REMARK  4 active torsions:
REMARK  status: ('A' for Active; 'I' for Inactive)
REMARK    1  A    between atoms: C_1  and  N_2
REMARK    2  A    between atoms: N_2  and  C_3
REMARK    3  A    between atoms: N_2  and  C_4
REMARK    4  A    between atoms: N_9  and  C_10
REMARK                            x       y       z     vdW  Elec       q    Type
REMARK                         _______ _______ _______ _____ _____    ______ ____
ROOT
ATOM      1  C   UNL     1       3.824   4.152  18.612  0.00  0.00    +0.000 C 
ATOM      2  C   UNL     1       4.654   4.895  17.870  0.00  0.00    +0.000 C 
ATOM      3 CL   UNL     1       5.963   4.410  16.898  0.00  0.00    +0.000 Cl
ATOM      4  C   UNL     1       4.256   6.308  17.914  0.00  0.00    +0.000 C 
ATOM      5  O   UNL     1       4.880   7.204  17.364  0.00  0.00    +0.000 OA
ATOM      6  N   UNL     1       3.138   6.386  18.689  0.00  0.00    +0.000 N 
ATOM      7  C   UNL     1       2.871   5.156  19.225  0.00  0.00    +0.000 C 
ATOM      8  O   UNL     1       1.999   4.865  20.031  0.00  0.00    +0.000 OA
ENDROOT
BRANCH   6   9
ATOM      9  C   UNL     1       2.364   7.560  18.882  0.00  0.00    +0.000 A 
ATOM     10  C   UNL     1       2.000   8.366  17.794  0.00  0.00    +0.000 A 
ATOM     11  C   UNL     1       1.175   9.476  17.976  0.00  0.00    +0.000 A 
ATOM     12  C   UNL     1       0.756   9.767  19.258  0.00  0.00    +0.000 A 
ATOM     13 CL   UNL     1      -0.267  11.106  19.565  0.00  0.00    +0.000 Cl
ATOM     14  N   UNL     1       1.089   9.042  20.343  0.00  0.00    +0.000 NA
ATOM     15  C   UNL     1       1.875   7.954  20.129  0.00  0.00    +0.000 A 
ENDBRANCH   6   9
BRANCH   1  17
ATOM     16  C   UNL     1       4.407   2.118  19.961  0.00  0.00    +0.000 C 
ATOM     17  N   UNL     1       3.733   2.771  18.834  0.00  0.00    +0.000 N 
ATOM     18  C   UNL     1       2.926   1.886  17.993  0.00  0.00    +0.000 C 
ENDBRANCH   1  17
TORSDOF 2
ENDMDL
MODEL 5
REMARK VINA RESULT:      -5.9      3.069      5.570
REMARK  Name = 
REMARK  4 active torsions:
REMARK  status: ('A' for Active; 'I' for Inactive)
REMARK    1  A    between atoms: C_1  and  N_2
REMARK    2  A    between atoms: N_2  and  C_3
REMARK    3  A    between atoms: N_2  and  C_4
REMARK    4  A    between atoms: N_9  and  C_10
REMARK                            x       y       z     vdW  Elec       q    Type
REMARK                         _______ _______ _______ _____ _____    ______ ____
ROOT
ATOM      1  C   UNL     1       3.933   4.104  18.751  0.00  0.00    +0.000 C 
ATOM      2  C   UNL     1       4.723   4.843  17.963  0.00  0.00    +0.000 C 
ATOM      3 CL   UNL     1       6.039   4.365  16.997  0.00  0.00    +0.000 Cl
ATOM      4  C   UNL     1       4.269   6.240  17.947  0.00  0.00    +0.000 C 
ATOM      5  O   UNL     1       4.850   7.133  17.347  0.00  0.00    +0.000 OA
ATOM      6  N   UNL     1       3.158   6.310  18.733  0.00  0.00    +0.000 N 
ATOM      7  C   UNL     1       2.947   5.097  19.330  0.00  0.00    +0.000 C 
ATOM      8  O   UNL     1       2.098   4.811  20.161  0.00  0.00    +0.000 OA
ENDROOT
BRANCH   6   9
ATOM      9  C   UNL     1       2.341   7.460  18.882  0.00  0.00    +0.000 A 
ATOM     10  C   UNL     1       1.895   7.864  20.149  0.00  0.00    +0.000 A 
ATOM     11  C   UNL     1       1.157   9.037  20.302  0.00  0.00    +0.000 A 
ATOM     12  C   UNL     1       0.858   9.766  19.170  0.00  0.00    +0.000 A 
ATOM     13 CL   UNL     1      -0.035  11.224  19.273  0.00  0.00    +0.000 Cl
ATOM     14  N   UNL     1       1.240   9.418  17.926  0.00  0.00    +0.000 NA
ATOM     15  C   UNL     1       1.979   8.283  17.813  0.00  0.00    +0.000 A 
ENDBRANCH   6   9
BRANCH   1  17
ATOM     16  C   UNL     1       3.276   1.762  18.133  0.00  0.00    +0.000 C 
ATOM     17  N   UNL     1       3.899   2.732  19.039  0.00  0.00    +0.000 N 
ATOM     18  C   UNL     1       4.518   2.160  20.236  0.00  0.00    +0.000 C 
ENDBRANCH   1  17
TORSDOF 2
ENDMDL
MODEL 6
REMARK VINA RESULT:      -5.9      3.001      6.012
REMARK  Name = 
REMARK  4 active torsions:
REMARK  status: ('A' for Active; 'I' for Inactive)
REMARK    1  A    between atoms: C_1  and  N_2
REMARK    2  A    between atoms: N_2  and  C_3
REMARK    3  A    between atoms: N_2  and  C_4
REMARK    4  A    between atoms: N_9  and  C_10
REMARK                            x       y       z     vdW  Elec       q    Type
REMARK                         _______ _______ _______ _____ _____    ______ ____
ROOT
ATOM      1  C   UNL     1       4.942   4.869  17.897  0.00  0.00    +0.000 C 
ATOM      2  C   UNL     1       4.227   4.233  18.832  0.00  0.00    +0.000 C 
ATOM      3 CL   UNL     1       4.490   2.712  19.546  0.00  0.00    +0.000 Cl
ATOM      4  C   UNL     1       3.115   5.077  19.291  0.00  0.00    +0.000 C 
ATOM      5  O   UNL     1       2.279   4.712  20.105  0.00  0.00    +0.000 OA
ATOM      6  N   UNL     1       3.203   6.258  18.616  0.00  0.00    +0.000 N 
ATOM      7  C   UNL     1       4.209   6.178  17.692  0.00  0.00    +0.000 C 
ATOM      8  O   UNL     1       4.521   7.012  16.854  0.00  0.00    +0.000 OA
ENDROOT
BRANCH   6   9
ATOM      9  C   UNL     1       2.390   7.395  18.860  0.00  0.00    +0.000 A 
ATOM     10  C   UNL     1       1.944   7.693  20.155  0.00  0.00    +0.000 A 
ATOM     11  C   UNL     1       1.209   8.852  20.405  0.00  0.00    +0.000 A 
ATOM     12  C   UNL     1       0.915   9.674  19.337  0.00  0.00    +0.000 A 
ATOM     13 CL   UNL     1       0.027  11.121  19.560  0.00  0.00    +0.000 Cl
ATOM     14  N   UNL     1       1.298   9.430  18.069  0.00  0.00    +0.000 NA
ATOM     15  C   UNL     1       2.033   8.305  17.862  0.00  0.00    +0.000 A 
ENDBRANCH   6   9
BRANCH   1  17
ATOM     16  C   UNL     1       7.444   4.700  17.810  0.00  0.00    +0.000 C 
ATOM     17  N   UNL     1       6.117   4.531  17.210  0.00  0.00    +0.000 N 
ATOM     18  C   UNL     1       6.108   3.947  15.868  0.00  0.00    +0.000 C 
ENDBRANCH   1  17
TORSDOF 2
ENDMDL
MODEL 7
REMARK VINA RESULT:      -5.8      0.922      1.208
REMARK  Name = 
REMARK  4 active torsions:
REMARK  status: ('A' for Active; 'I' for Inactive)
REMARK    1  A    between atoms: C_1  and  N_2
REMARK    2  A    between atoms: N_2  and  C_3
REMARK    3  A    between atoms: N_2  and  C_4
REMARK    4  A    between atoms: N_9  and  C_10
REMARK                            x       y       z     vdW  Elec       q    Type
REMARK                         _______ _______ _______ _____ _____    ______ ____
ROOT
ATOM      1  C   UNL     1       2.344   4.411  19.480  0.00  0.00    +0.000 C 
ATOM      2  C   UNL     1       2.430   5.745  19.439  0.00  0.00    +0.000 C 
ATOM      3 CL   UNL     1       1.764   6.904  20.491  0.00  0.00    +0.000 Cl
ATOM      4  C   UNL     1       3.299   6.170  18.333  0.00  0.00    +0.000 C 
ATOM      5  O   UNL     1       3.503   7.341  18.044  0.00  0.00    +0.000 OA
ATOM      6  N   UNL     1       3.755   5.040  17.724  0.00  0.00    +0.000 N 
ATOM      7  C   UNL     1       3.153   3.947  18.286  0.00  0.00    +0.000 C 
ATOM      8  O   UNL     1       3.255   2.779  17.943  0.00  0.00    +0.000 OA
ENDROOT
BRANCH   6   9
ATOM      9  C   UNL     1       4.722   5.010  16.686  0.00  0.00    +0.000 A 
ATOM     10  C   UNL     1       5.289   3.798  16.268  0.00  0.00    +0.000 A 
ATOM     11  C   UNL     1       6.182   3.762  15.197  0.00  0.00    +0.000 A 
ATOM     12  C   UNL     1       6.506   4.955  14.585  0.00  0.00    +0.000 A 
ATOM     13 CL   UNL     1       7.585   4.997  13.256  0.00  0.00    +0.000 Cl
ATOM     14  N   UNL     1       6.010   6.151  14.954  0.00  0.00    +0.000 NA
ATOM     15  C   UNL     1       5.125   6.150  15.986  0.00  0.00    +0.000 A 
ENDBRANCH   6   9
BRANCH   1  17
ATOM     16  C   UNL     1       0.561   2.714  19.968  0.00  0.00    +0.000 C 
ATOM     17  N   UNL     1       1.712   3.529  20.368  0.00  0.00    +0.000 N 
ATOM     18  C   UNL     1       2.177   3.321  21.740  0.00  0.00    +0.000 C 
ENDBRANCH   1  17
TORSDOF 2
ENDMDL
MODEL 8
REMARK VINA RESULT:      -5.8      3.973      5.393
REMARK  Name = 
REMARK  4 active torsions:
REMARK  status: ('A' for Active; 'I' for Inactive)
REMARK    1  A    between atoms: C_1  and  N_2
REMARK    2  A    between atoms: N_2  and  C_3
REMARK    3  A    between atoms: N_2  and  C_4
REMARK    4  A    between atoms: N_9  and  C_10
REMARK                            x       y       z     vdW  Elec       q    Type
REMARK                         _______ _______ _______ _____ _____    ______ ____
ROOT
ATOM      1  C   UNL     1       0.848   9.649  19.327  0.00  0.00    +0.000 C 
ATOM      2  C   UNL     1       0.858   8.872  20.416  0.00  0.00    +0.000 C 
ATOM      3 CL   UNL     1      -0.004   9.040  21.872  0.00  0.00    +0.000 Cl
ATOM      4  C   UNL     1       1.714   7.697  20.200  0.00  0.00    +0.000 C 
ATOM      5  O   UNL     1       1.937   6.856  21.059  0.00  0.00    +0.000 OA
ATOM      6  N   UNL     1       2.198   7.782  18.929  0.00  0.00    +0.000 N 
ATOM      7  C   UNL     1       1.807   8.969  18.373  0.00  0.00    +0.000 C 
ATOM      8  O   UNL     1       2.122   9.422  17.282  0.00  0.00    +0.000 OA
ENDROOT
BRANCH   6   9
ATOM      9  C   UNL     1       2.966   6.777  18.285  0.00  0.00    +0.000 A 
ATOM     10  C   UNL     1       2.461   5.479  18.127  0.00  0.00    +0.000 A 
ATOM     11  C   UNL     1       3.184   4.515  17.425  0.00  0.00    +0.000 A 
ATOM     12  C   UNL     1       4.417   4.872  16.920  0.00  0.00    +0.000 A 
ATOM     13 CL   UNL     1       5.364   3.750  16.038  0.00  0.00    +0.000 Cl
ATOM     14  N   UNL     1       4.963   6.095  17.058  0.00  0.00    +0.000 NA
ATOM     15  C   UNL     1       4.223   7.020  17.726  0.00  0.00    +0.000 A 
ENDBRANCH   6   9
BRANCH   1  17
ATOM     16  C   UNL     1      -1.207  10.787  18.443  0.00  0.00    +0.000 C 
ATOM     17  N   UNL     1       0.147  10.820  19.005  0.00  0.00    +0.000 N 
ATOM     18  C   UNL     1       0.690  12.158  19.246  0.00  0.00    +0.000 C 
ENDBRANCH   1  17
TORSDOF 2
ENDMDL
MODEL 9
REMARK VINA RESULT:      -5.8      1.720      2.532
REMARK  Name = 
REMARK  4 active torsions:
REMARK  status: ('A' for Active; 'I' for Inactive)
REMARK    1  A    between atoms: C_1  and  N_2
REMARK    2  A    between atoms: N_2  and  C_3
REMARK    3  A    between atoms: N_2  and  C_4
REMARK    4  A    between atoms: N_9  and  C_10
REMARK                            x       y       z     vdW  Elec       q    Type
REMARK                         _______ _______ _______ _____ _____    ______ ____
ROOT
ATOM      1  C   UNL     1       3.110   4.144  19.478  0.00  0.00    +0.000 C 
ATOM      2  C   UNL     1       2.937   2.935  18.930  0.00  0.00    +0.000 C 
ATOM      3 CL   UNL     1       1.838   1.707  19.348  0.00  0.00    +0.000 Cl
ATOM      4  C   UNL     1       3.822   2.766  17.770  0.00  0.00    +0.000 C 
ATOM      5  O   UNL     1       3.899   1.732  17.123  0.00  0.00    +0.000 OA
ATOM      6  N   UNL     1       4.517   3.929  17.622  0.00  0.00    +0.000 N 
ATOM      7  C   UNL     1       4.222   4.769  18.662  0.00  0.00    +0.000 C 
ATOM      8  O   UNL     1       4.717   5.860  18.904  0.00  0.00    +0.000 OA
ENDROOT
BRANCH   6   9
ATOM      9  C   UNL     1       5.388   4.223  16.541  0.00  0.00    +0.000 A 
ATOM     10  C   UNL     1       4.896   4.331  15.233  0.00  0.00    +0.000 A 
ATOM     11  C   UNL     1       5.740   4.695  14.184  0.00  0.00    +0.000 A 
ATOM     12  C   UNL     1       7.071   4.917  14.471  0.00  0.00    +0.000 A 
ATOM     13 CL   UNL     1       8.171   5.378  13.242  0.00  0.00    +0.000 Cl
ATOM     14  N   UNL     1       7.604   4.809  15.703  0.00  0.00    +0.000 NA
ATOM     15  C   UNL     1       6.752   4.475  16.708  0.00  0.00    +0.000 A 
ENDBRANCH   6   9
BRANCH   1  17
ATOM     16  C   UNL     1       1.890   6.143  20.380  0.00  0.00    +0.000 C 
ATOM     17  N   UNL     1       2.470   4.805  20.536  0.00  0.00    +0.000 N 
ATOM     18  C   UNL     1       2.292   4.199  21.856  0.00  0.00    +0.000 C 
ENDBRANCH   1  17
TORSDOF 2
ENDMDL
