MODEL 1
REMARK VINA RESULT:      -7.9      0.000      0.000
REMARK  Name = 
REMARK  1 active torsions:
REMARK  status: ('A' for Active; 'I' for Inactive)
REMARK    1  A    between atoms: C_7  and  C_8
REMARK                            x       y       z     vdW  Elec       q    Type
REMARK                         _______ _______ _______ _____ _____    ______ ____
ROOT
ATOM      1  O   UNL     1       7.762   5.199  14.437  0.00  0.00    +0.000 OA
ATOM      2  C   UNL     1       7.032   5.128  15.410  0.00  0.00    +0.000 C 
ATOM      3  N   UNL     1       7.396   4.748  16.672  0.00  0.00    +0.000 N 
ATOM      4  C   UNL     1       6.323   4.717  17.518  0.00  0.00    +0.000 C 
ATOM      5  O   UNL     1       6.320   4.318  18.666  0.00  0.00    +0.000 OA
ATOM      6  C   UNL     1       5.175   5.212  16.683  0.00  0.00    +0.000 C 
ATOM      7  C   UNL     1       3.908   5.441  17.049  0.00  0.00    +0.000 C 
ATOM      8  N   UNL     1       5.678   5.411  15.427  0.00  0.00    +0.000 N 
ATOM      9  H   UNL     1       8.321   4.445  16.926  0.00  0.00    +0.000 HD
ATOM     10  H   UNL     1       5.174   5.734  14.616  0.00  0.00    +0.000 HD
ENDROOT
BRANCH   7  11
ATOM     11  C   UNL     1       3.419   5.319  18.378  0.00  0.00    +0.000 A 
ATOM     12  C   UNL     1       3.488   6.308  19.332  0.00  0.00    +0.000 A 
ATOM     13  N   UNL     1       2.814   5.857  20.437  0.00  0.00    +0.000 N 
ATOM     14  C   UNL     1       2.348   4.577  20.229  0.00  0.00    +0.000 A 
ATOM     15  C   UNL     1       1.597   3.741  21.063  0.00  0.00    +0.000 A 
ATOM     16  C   UNL     1       1.251   2.477  20.575  0.00  0.00    +0.000 A 
ATOM     17  C   UNL     1       1.647   2.065  19.305  0.00  0.00    +0.000 A 
ATOM     18  C   UNL     1       2.391   2.915  18.479  0.00  0.00    +0.000 A 
ATOM     19  C   UNL     1       2.741   4.200  18.943  0.00  0.00    +0.000 A 
ATOM     20  H   UNL     1       2.653   6.392  21.279  0.00  0.00    +0.000 HD
ENDBRANCH   7  11
TORSDOF 1
ENDMDL
MODEL 2
REMARK VINA RESULT:      -7.9      1.972      2.443
REMARK  Name = 
REMARK  1 active torsions:
REMARK  status: ('A' for Active; 'I' for Inactive)
REMARK    1  A    between atoms: C_7  and  C_8
REMARK                            x       y       z     vdW  Elec       q    Type
REMARK                         _______ _______ _______ _____ _____    ______ ____
ROOT
ATOM      1  O   UNL     1       8.010   8.199  17.283  0.00  0.00    +0.000 OA
ATOM      2  C   UNL     1       7.264   7.264  17.519  0.00  0.00    +0.000 C 
ATOM      3  N   UNL     1       7.435   6.314  18.486  0.00  0.00    +0.000 N 
ATOM      4  C   UNL     1       6.447   5.370  18.446  0.00  0.00    +0.000 C 
ATOM      5  O   UNL     1       6.392   4.353  19.108  0.00  0.00    +0.000 OA
ATOM      6  C   UNL     1       5.518   5.849  17.364  0.00  0.00    +0.000 C 
ATOM      7  C   UNL     1       4.352   5.325  16.967  0.00  0.00    +0.000 C 
ATOM      8  N   UNL     1       6.093   6.975  16.842  0.00  0.00    +0.000 N 
ATOM      9  H   UNL     1       8.233   6.265  19.096  0.00  0.00    +0.000 HD
ATOM     10  H   UNL     1       5.736   7.545  16.092  0.00  0.00    +0.000 HD
ENDROOT
BRANCH   7  11
ATOM     11  C   UNL     1       3.720   4.209  17.579  0.00  0.00    +0.000 A 
ATOM     12  C   UNL     1       3.909   2.899  17.205  0.00  0.00    +0.000 A 
ATOM     13  N   UNL     1       3.223   2.117  18.097  0.00  0.00    +0.000 N 
ATOM     14  C   UNL     1       2.561   2.900  19.017  0.00  0.00    +0.000 A 
ATOM     15  C   UNL     1       1.767   2.536  20.111  0.00  0.00    +0.000 A 
ATOM     16  C   UNL     1       1.224   3.563  20.889  0.00  0.00    +0.000 A 
ATOM     17  C   UNL     1       1.461   4.900  20.581  0.00  0.00    +0.000 A 
ATOM     18  C   UNL     1       2.264   5.248  19.489  0.00  0.00    +0.000 A 
ATOM     19  C   UNL     1       2.835   4.231  18.696  0.00  0.00    +0.000 A 
ATOM     20  H   UNL     1       3.223   1.106  18.105  0.00  0.00    +0.000 HD
ENDBRANCH   7  11
TORSDOF 1
ENDMDL
MODEL 3
REMARK VINA RESULT:      -7.8      1.377      2.170
REMARK  Name = 
REMARK  1 active torsions:
REMARK  status: ('A' for Active; 'I' for Inactive)
REMARK    1  A    between atoms: C_7  and  C_8
REMARK                            x       y       z     vdW  Elec       q    Type
REMARK                         _______ _______ _______ _____ _____    ______ ____
ROOT
ATOM      1  O   UNL     1       7.888   5.451  14.442  0.00  0.00    +0.000 OA
ATOM      2  C   UNL     1       7.156   5.065  15.337  0.00  0.00    +0.000 C 
ATOM      3  N   UNL     1       7.421   5.110  16.677  0.00  0.00    +0.000 N 
ATOM      4  C   UNL     1       6.416   4.541  17.408  0.00  0.00    +0.000 C 
ATOM      5  O   UNL     1       6.420   4.341  18.607  0.00  0.00    +0.000 OA
ATOM      6  C   UNL     1       5.376   4.170  16.388  0.00  0.00    +0.000 C 
ATOM      7  C   UNL     1       4.161   3.644  16.581  0.00  0.00    +0.000 C 
ATOM      8  N   UNL     1       5.908   4.494  15.170  0.00  0.00    +0.000 N 
ATOM      9  H   UNL     1       8.285   5.441  17.072  0.00  0.00    +0.000 HD
ATOM     10  H   UNL     1       5.477   4.369  14.268  0.00  0.00    +0.000 HD
ENDROOT
BRANCH   7  11
ATOM     11  C   UNL     1       3.583   3.398  17.856  0.00  0.00    +0.000 A 
ATOM     12  C   UNL     1       3.572   2.177  18.489  0.00  0.00    +0.000 A 
ATOM     13  N   UNL     1       3.032   2.368  19.735  0.00  0.00    +0.000 N 
ATOM     14  C   UNL     1       2.656   3.682  19.901  0.00  0.00    +0.000 A 
ATOM     15  C   UNL     1       2.089   4.328  21.007  0.00  0.00    +0.000 A 
ATOM     16  C   UNL     1       1.819   5.695  20.892  0.00  0.00    +0.000 A 
ATOM     17  C   UNL     1       2.099   6.386  19.716  0.00  0.00    +0.000 A 
ATOM     18  C   UNL     1       2.672   5.729  18.622  0.00  0.00    +0.000 A 
ATOM     19  C   UNL     1       2.966   4.353  18.716  0.00  0.00    +0.000 A 
ATOM     20  H   UNL     1       2.945   1.656  20.447  0.00  0.00    +0.000 HD
ENDBRANCH   7  11
TORSDOF 1
ENDMDL
MODEL 4
REMARK VINA RESULT:      -7.5      2.501      3.524
REMARK  Name = 
REMARK  1 active torsions:
REMARK  status: ('A' for Active; 'I' for Inactive)
REMARK    1  A    between atoms: C_7  and  C_8
REMARK                            x       y       z     vdW  Elec       q    Type
REMARK                         _______ _______ _______ _____ _____    ______ ____
ROOT
ATOM      1  O   UNL     1       8.858   9.425  18.465  0.00  0.00    +0.000 OA
ATOM      2  C   UNL     1       8.246   8.394  18.244  0.00  0.00    +0.000 C 
ATOM      3  N   UNL     1       8.374   7.214  18.920  0.00  0.00    +0.000 N 
ATOM      4  C   UNL     1       7.586   6.236  18.381  0.00  0.00    +0.000 C 
ATOM      5  O   UNL     1       7.570   5.064  18.701  0.00  0.00    +0.000 OA
ATOM      6  C   UNL     1       6.828   6.930  17.284  0.00  0.00    +0.000 C 
ATOM      7  C   UNL     1       5.869   6.442  16.488  0.00  0.00    +0.000 C 
ATOM      8  N   UNL     1       7.300   8.213  17.251  0.00  0.00    +0.000 N 
ATOM      9  H   UNL     1       9.031   7.058  19.667  0.00  0.00    +0.000 HD
ATOM     10  H   UNL     1       7.011   8.949  16.626  0.00  0.00    +0.000 HD
ENDROOT
BRANCH   7  11
ATOM     11  C   UNL     1       5.322   5.135  16.594  0.00  0.00    +0.000 A 
ATOM     12  C   UNL     1       5.924   3.993  16.118  0.00  0.00    +0.000 A 
ATOM     13  N   UNL     1       5.150   2.931  16.509  0.00  0.00    +0.000 N 
ATOM     14  C   UNL     1       4.038   3.370  17.192  0.00  0.00    +0.000 A 
ATOM     15  C   UNL     1       2.998   2.646  17.788  0.00  0.00    +0.000 A 
ATOM     16  C   UNL     1       1.990   3.370  18.434  0.00  0.00    +0.000 A 
ATOM     17  C   UNL     1       2.019   4.762  18.476  0.00  0.00    +0.000 A 
ATOM     18  C   UNL     1       3.070   5.471  17.883  0.00  0.00    +0.000 A 
ATOM     19  C   UNL     1       4.105   4.764  17.236  0.00  0.00    +0.000 A 
ATOM     20  H   UNL     1       5.373   1.958  16.348  0.00  0.00    +0.000 HD
ENDBRANCH   7  11
TORSDOF 1
ENDMDL
MODEL 5
REMARK VINA RESULT:      -7.5      2.648      5.662
REMARK  Name = 
REMARK  1 active torsions:
REMARK  status: ('A' for Active; 'I' for Inactive)
REMARK    1  A    between atoms: C_7  and  C_8
REMARK                            x       y       z     vdW  Elec       q    Type
REMARK                         _______ _______ _______ _____ _____    ______ ____
ROOT
ATOM      1  O   UNL     1       0.373   2.156  19.057  0.00  0.00    +0.000 OA
ATOM      2  C   UNL     1       1.262   2.862  18.613  0.00  0.00    +0.000 C 
ATOM      3  N   UNL     1       1.365   4.218  18.750  0.00  0.00    +0.000 N 
ATOM      4  C   UNL     1       2.450   4.711  18.081  0.00  0.00    +0.000 C 
ATOM      5  O   UNL     1       2.736   5.883  17.933  0.00  0.00    +0.000 OA
ATOM      6  C   UNL     1       3.134   3.491  17.530  0.00  0.00    +0.000 C 
ATOM      7  C   UNL     1       4.286   3.408  16.853  0.00  0.00    +0.000 C 
ATOM      8  N   UNL     1       2.345   2.428  17.872  0.00  0.00    +0.000 N 
ATOM      9  H   UNL     1       0.680   4.794  19.211  0.00  0.00    +0.000 HD
ATOM     10  H   UNL     1       2.507   1.458  17.652  0.00  0.00    +0.000 HD
ENDROOT
BRANCH   7  11
ATOM     11  C   UNL     1       5.143   4.509  16.585  0.00  0.00    +0.000 A 
ATOM     12  C   UNL     1       5.157   5.224  15.409  0.00  0.00    +0.000 A 
ATOM     13  N   UNL     1       6.030   6.268  15.576  0.00  0.00    +0.000 N 
ATOM     14  C   UNL     1       6.611   6.216  16.824  0.00  0.00    +0.000 A 
ATOM     15  C   UNL     1       7.533   7.078  17.429  0.00  0.00    +0.000 A 
ATOM     16  C   UNL     1       7.946   6.778  18.731  0.00  0.00    +0.000 A 
ATOM     17  C   UNL     1       7.459   5.656  19.398  0.00  0.00    +0.000 A 
ATOM     18  C   UNL     1       6.532   4.808  18.783  0.00  0.00    +0.000 A 
ATOM     19  C   UNL     1       6.090   5.095  17.475  0.00  0.00    +0.000 A 
ATOM     20  H   UNL     1       6.206   6.994  14.896  0.00  0.00    +0.000 HD
ENDBRANCH   7  11
TORSDOF 1
ENDMDL
MODEL 6
REMARK VINA RESULT:      -7.4      2.538      5.969
REMARK  Name = 
REMARK  1 active torsions:
REMARK  status: ('A' for Active; 'I' for Inactive)
REMARK    1  A    between atoms: C_7  and  C_8
REMARK                            x       y       z     vdW  Elec       q    Type
REMARK                         _______ _______ _______ _____ _____    ______ ____
ROOT
ATOM      1  O   UNL     1       1.519   2.530  22.316  0.00  0.00    +0.000 OA
ATOM      2  C   UNL     1       2.111   3.157  21.453  0.00  0.00    +0.000 C 
ATOM      3  N   UNL     1       2.084   4.511  21.273  0.00  0.00    +0.000 N 
ATOM      4  C   UNL     1       2.808   4.888  20.177  0.00  0.00    +0.000 C 
ATOM      5  O   UNL     1       2.880   6.007  19.708  0.00  0.00    +0.000 OA
ATOM      6  C   UNL     1       3.412   3.608  19.670  0.00  0.00    +0.000 C 
ATOM      7  C   UNL     1       4.266   3.426  18.657  0.00  0.00    +0.000 C 
ATOM      8  N   UNL     1       2.924   2.615  20.475  0.00  0.00    +0.000 N 
ATOM      9  H   UNL     1       1.530   5.145  21.825  0.00  0.00    +0.000 HD
ATOM     10  H   UNL     1       3.121   1.629  20.408  0.00  0.00    +0.000 HD
ENDROOT
BRANCH   7  11
ATOM     11  C   UNL     1       4.839   4.475  17.887  0.00  0.00    +0.000 A 
ATOM     12  C   UNL     1       4.316   4.958  16.710  0.00  0.00    +0.000 A 
ATOM     13  N   UNL     1       5.080   6.032  16.335  0.00  0.00    +0.000 N 
ATOM     14  C   UNL     1       6.112   6.225  17.227  0.00  0.00    +0.000 A 
ATOM     15  C   UNL     1       7.113   7.204  17.254  0.00  0.00    +0.000 A 
ATOM     16  C   UNL     1       8.036   7.160  18.304  0.00  0.00    +0.000 A 
ATOM     17  C   UNL     1       7.963   6.172  19.283  0.00  0.00    +0.000 A 
ATOM     18  C   UNL     1       6.952   5.205  19.247  0.00  0.00    +0.000 A 
ATOM     19  C   UNL     1       6.001   5.235  18.205  0.00  0.00    +0.000 A 
ATOM     20  H   UNL     1       4.901   6.622  15.534  0.00  0.00    +0.000 HD
ENDBRANCH   7  11
TORSDOF 1
ENDMDL
MODEL 7
REMARK VINA RESULT:      -7.3      1.753      2.085
REMARK  Name = 
REMARK  1 active torsions:
REMARK  status: ('A' for Active; 'I' for Inactive)
REMARK    1  A    between atoms: C_7  and  C_8
REMARK                            x       y       z     vdW  Elec       q    Type
REMARK                         _______ _______ _______ _____ _____    ______ ____
ROOT
ATOM      1  O   UNL     1       7.791   5.218  14.747  0.00  0.00    +0.000 OA
ATOM      2  C   UNL     1       6.784   5.088  15.422  0.00  0.00    +0.000 C 
ATOM      3  N   UNL     1       5.987   6.094  15.892  0.00  0.00    +0.000 N 
ATOM      4  C   UNL     1       4.971   5.610  16.668  0.00  0.00    +0.000 C 
ATOM      5  O   UNL     1       4.172   6.269  17.304  0.00  0.00    +0.000 OA
ATOM      6  C   UNL     1       5.127   4.117  16.600  0.00  0.00    +0.000 C 
ATOM      7  C   UNL     1       4.348   3.166  17.128  0.00  0.00    +0.000 C 
ATOM      8  N   UNL     1       6.252   3.887  15.855  0.00  0.00    +0.000 N 
ATOM      9  H   UNL     1       6.173   7.073  15.756  0.00  0.00    +0.000 HD
ATOM     10  H   UNL     1       6.650   2.992  15.620  0.00  0.00    +0.000 HD
ENDROOT
BRANCH   7  11
ATOM     11  C   UNL     1       3.131   3.415  17.820  0.00  0.00    +0.000 A 
ATOM     12  C   UNL     1       1.991   3.922  17.243  0.00  0.00    +0.000 A 
ATOM     13  N   UNL     1       1.008   3.909  18.199  0.00  0.00    +0.000 N 
ATOM     14  C   UNL     1       1.506   3.441  19.396  0.00  0.00    +0.000 A 
ATOM     15  C   UNL     1       0.866   3.237  20.624  0.00  0.00    +0.000 A 
ATOM     16  C   UNL     1       1.632   2.732  21.679  0.00  0.00    +0.000 A 
ATOM     17  C   UNL     1       2.986   2.450  21.513  0.00  0.00    +0.000 A 
ATOM     18  C   UNL     1       3.610   2.651  20.277  0.00  0.00    +0.000 A 
ATOM     19  C   UNL     1       2.856   3.147  19.193  0.00  0.00    +0.000 A 
ATOM     20  H   UNL     1       0.045   4.175  18.048  0.00  0.00    +0.000 HD
ENDBRANCH   7  11
TORSDOF 1
ENDMDL
MODEL 8
REMARK VINA RESULT:      -7.3      1.552      1.605
REMARK  Name = 
REMARK  1 active torsions:
REMARK  status: ('A' for Active; 'I' for Inactive)
REMARK    1  A    between atoms: C_7  and  C_8
REMARK                            x       y       z     vdW  Elec       q    Type
REMARK                         _______ _______ _______ _____ _____    ______ ____
ROOT
ATOM      1  O   UNL     1       8.202   7.334  16.611  0.00  0.00    +0.000 OA
ATOM      2  C   UNL     1       7.247   6.878  17.215  0.00  0.00    +0.000 C 
ATOM      3  N   UNL     1       7.294   6.059  18.309  0.00  0.00    +0.000 N 
ATOM      4  C   UNL     1       6.044   5.679  18.708  0.00  0.00    +0.000 C 
ATOM      5  O   UNL     1       5.777   4.874  19.579  0.00  0.00    +0.000 OA
ATOM      6  C   UNL     1       5.116   6.419  17.785  0.00  0.00    +0.000 C 
ATOM      7  C   UNL     1       3.778   6.456  17.792  0.00  0.00    +0.000 C 
ATOM      8  N   UNL     1       5.916   7.094  16.905  0.00  0.00    +0.000 N 
ATOM      9  H   UNL     1       8.145   5.709  18.716  0.00  0.00    +0.000 HD
ATOM     10  H   UNL     1       5.618   7.686  16.146  0.00  0.00    +0.000 HD
ENDROOT
BRANCH   7  11
ATOM     11  C   UNL     1       2.960   5.825  18.768  0.00  0.00    +0.000 A 
ATOM     12  C   UNL     1       2.471   6.441  19.897  0.00  0.00    +0.000 A 
ATOM     13  N   UNL     1       1.639   5.548  20.521  0.00  0.00    +0.000 N 
ATOM     14  C   UNL     1       1.615   4.352  19.838  0.00  0.00    +0.000 A 
ATOM     15  C   UNL     1       0.897   3.178  20.094  0.00  0.00    +0.000 A 
ATOM     16  C   UNL     1       1.064   2.108  19.209  0.00  0.00    +0.000 A 
ATOM     17  C   UNL     1       1.921   2.208  18.116  0.00  0.00    +0.000 A 
ATOM     18  C   UNL     1       2.626   3.391  17.868  0.00  0.00    +0.000 A 
ATOM     19  C   UNL     1       2.465   4.489  18.739  0.00  0.00    +0.000 A 
ATOM     20  H   UNL     1       1.094   5.742  21.350  0.00  0.00    +0.000 HD
ENDBRANCH   7  11
TORSDOF 1
ENDMDL
MODEL 9
REMARK VINA RESULT:      -7.3      1.268      1.576
REMARK  Name = 
REMARK  1 active torsions:
REMARK  status: ('A' for Active; 'I' for Inactive)
REMARK    1  A    between atoms: C_7  and  C_8
REMARK                            x       y       z     vdW  Elec       q    Type
REMARK                         _______ _______ _______ _____ _____    ______ ____
ROOT
ATOM      1  O   UNL     1       7.680   5.261  14.050  0.00  0.00    +0.000 OA
ATOM      2  C   UNL     1       6.888   5.289  14.976  0.00  0.00    +0.000 C 
ATOM      3  N   UNL     1       5.853   6.169  15.132  0.00  0.00    +0.000 N 
ATOM      4  C   UNL     1       5.193   5.965  16.312  0.00  0.00    +0.000 C 
ATOM      5  O   UNL     1       4.305   6.656  16.770  0.00  0.00    +0.000 OA
ATOM      6  C   UNL     1       5.865   4.763  16.913  0.00  0.00    +0.000 C 
ATOM      7  C   UNL     1       5.557   4.103  18.036  0.00  0.00    +0.000 C 
ATOM      8  N   UNL     1       6.886   4.435  16.064  0.00  0.00    +0.000 N 
ATOM      9  H   UNL     1       5.655   6.927  14.501  0.00  0.00    +0.000 HD
ATOM     10  H   UNL     1       7.544   3.679  16.171  0.00  0.00    +0.000 HD
ENDROOT
BRANCH   7  11
ATOM     11  C   UNL     1       4.438   4.396  18.862  0.00  0.00    +0.000 A 
ATOM     12  C   UNL     1       4.342   5.489  19.692  0.00  0.00    +0.000 A 
ATOM     13  N   UNL     1       3.080   5.484  20.228  0.00  0.00    +0.000 N 
ATOM     14  C   UNL     1       2.374   4.385  19.791  0.00  0.00    +0.000 A 
ATOM     15  C   UNL     1       1.058   3.990  20.059  0.00  0.00    +0.000 A 
ATOM     16  C   UNL     1       0.598   2.814  19.457  0.00  0.00    +0.000 A 
ATOM     17  C   UNL     1       1.424   2.061  18.627  0.00  0.00    +0.000 A 
ATOM     18  C   UNL     1       2.735   2.473  18.363  0.00  0.00    +0.000 A 
ATOM     19  C   UNL     1       3.220   3.662  18.947  0.00  0.00    +0.000 A 
ATOM     20  H   UNL     1       2.704   6.198  20.836  0.00  0.00    +0.000 HD
ENDBRANCH   7  11
TORSDOF 1
ENDMDL
