MODEL 1
REMARK VINA RESULT:      -7.3      0.000      0.000
REMARK  Name = 
REMARK  7 active torsions:
REMARK  status: ('A' for Active; 'I' for Inactive)
REMARK    1  A    between atoms: C_1  and  O_2
REMARK    2  A    between atoms: O_2  and  C_3
REMARK    3  A    between atoms: C_3  and  C_4
REMARK    4  A    between atoms: C_4  and  C_5
REMARK    5  A    between atoms: C_8  and  C_9
REMARK    6  A    between atoms: C_14  and  C_15
REMARK    7  A    between atoms: C_18  and  C_19
REMARK                            x       y       z     vdW  Elec       q    Type
REMARK                         _______ _______ _______ _____ _____    ______ ____
ROOT
ATOM      1  C   UNL     1       5.116   4.306  16.449  0.00  0.00    +0.000 A 
ATOM      2  N   UNL     1       4.839   3.009  16.801  0.00  0.00    +0.000 N 
ATOM      3  C   UNL     1       3.940   2.972  17.842  0.00  0.00    +0.000 A 
ATOM      4  C   UNL     1       3.393   1.885  18.535  0.00  0.00    +0.000 A 
ATOM      5  C   UNL     1       2.499   2.158  19.576  0.00  0.00    +0.000 A 
ATOM      6  C   UNL     1       2.154   3.470  19.917  0.00  0.00    +0.000 A 
ATOM      7  C   UNL     1       1.202   3.759  21.040  0.00  0.00    +0.000 C 
ATOM      8  C   UNL     1       2.710   4.540  19.198  0.00  0.00    +0.000 A 
ATOM      9  C   UNL     1       3.618   4.294  18.146  0.00  0.00    +0.000 A 
ATOM     10  C   UNL     1       4.352   5.137  17.253  0.00  0.00    +0.000 A 
ATOM     11  C   UNL     1       4.319   6.625  17.208  0.00  0.00    +0.000 C 
ATOM     12  H   UNL     1       5.257   2.197  16.364  0.00  0.00    +0.000 HD
ENDROOT
BRANCH   1  16
ATOM     13  C   UNL     1       7.114   4.729  13.618  0.00  0.00    +0.000 A 
ATOM     14  N   UNL     1       7.841   5.506  14.428  0.00  0.00    +0.000 NA
ATOM     15  O   UNL     1       7.145   5.443  15.631  0.00  0.00    +0.000 OA
ATOM     16  C   UNL     1       6.056   4.633  15.427  0.00  0.00    +0.000 A 
ATOM     17  N   UNL     1       5.993   4.179  14.193  0.00  0.00    +0.000 NA
BRANCH  13  18
ATOM     18  C   UNL     1       7.489   4.487  12.208  0.00  0.00    +0.000 C 
BRANCH  18  19
ATOM     19  C   UNL     1       6.620   3.411  11.573  0.00  0.00    +0.000 C 
BRANCH  19  21
ATOM     20  C   UNL     1       6.615   1.123  11.019  0.00  0.00    +0.000 C 
ATOM     21  O   UNL     1       7.422   2.257  11.313  0.00  0.00    +0.000 OA
ENDBRANCH  19  21
ENDBRANCH  18  19
ENDBRANCH  13  18
ENDBRANCH   1  16
TORSDOF 4
ENDMDL
MODEL 2
REMARK VINA RESULT:      -7.3      1.067      1.168
REMARK  Name = 
REMARK  7 active torsions:
REMARK  status: ('A' for Active; 'I' for Inactive)
REMARK    1  A    between atoms: C_1  and  O_2
REMARK    2  A    between atoms: O_2  and  C_3
REMARK    3  A    between atoms: C_3  and  C_4
REMARK    4  A    between atoms: C_4  and  C_5
REMARK    5  A    between atoms: C_8  and  C_9
REMARK    6  A    between atoms: C_14  and  C_15
REMARK    7  A    between atoms: C_18  and  C_19
REMARK                            x       y       z     vdW  Elec       q    Type
REMARK                         _______ _______ _______ _____ _____    ______ ____
ROOT
ATOM      1  C   UNL     1       4.837   4.145  17.007  0.00  0.00    +0.000 A 
ATOM      2  N   UNL     1       3.674   3.471  16.734  0.00  0.00    +0.000 N 
ATOM      3  C   UNL     1       2.985   3.205  17.895  0.00  0.00    +0.000 A 
ATOM      4  C   UNL     1       1.776   2.529  18.101  0.00  0.00    +0.000 A 
ATOM      5  C   UNL     1       1.319   2.398  19.417  0.00  0.00    +0.000 A 
ATOM      6  C   UNL     1       2.036   2.926  20.495  0.00  0.00    +0.000 A 
ATOM      7  C   UNL     1       1.547   2.776  21.906  0.00  0.00    +0.000 C 
ATOM      8  C   UNL     1       3.240   3.608  20.257  0.00  0.00    +0.000 A 
ATOM      9  C   UNL     1       3.727   3.751  18.941  0.00  0.00    +0.000 A 
ATOM     10  C   UNL     1       4.893   4.359  18.376  0.00  0.00    +0.000 A 
ATOM     11  C   UNL     1       5.971   5.070  19.117  0.00  0.00    +0.000 C 
ATOM     12  H   UNL     1       3.381   3.193  15.805  0.00  0.00    +0.000 HD
ENDROOT
BRANCH   1  16
ATOM     13  C   UNL     1       6.817   4.643  14.175  0.00  0.00    +0.000 A 
ATOM     14  N   UNL     1       7.533   5.423  14.994  0.00  0.00    +0.000 NA
ATOM     15  O   UNL     1       6.842   5.331  16.199  0.00  0.00    +0.000 OA
ATOM     16  C   UNL     1       5.768   4.503  15.987  0.00  0.00    +0.000 A 
ATOM     17  N   UNL     1       5.709   4.065  14.747  0.00  0.00    +0.000 NA
BRANCH  13  18
ATOM     18  C   UNL     1       7.192   4.428  12.762  0.00  0.00    +0.000 C 
BRANCH  18  19
ATOM     19  C   UNL     1       6.336   3.349  12.113  0.00  0.00    +0.000 C 
BRANCH  19  21
ATOM     20  C   UNL     1       6.470   1.246  11.064  0.00  0.00    +0.000 C 
ATOM     21  O   UNL     1       7.190   2.407  11.459  0.00  0.00    +0.000 OA
ENDBRANCH  19  21
ENDBRANCH  18  19
ENDBRANCH  13  18
ENDBRANCH   1  16
TORSDOF 4
ENDMDL
MODEL 3
REMARK VINA RESULT:      -7.0      3.663      5.459
REMARK  Name = 
REMARK  7 active torsions:
REMARK  status: ('A' for Active; 'I' for Inactive)
REMARK    1  A    between atoms: C_1  and  O_2
REMARK    2  A    between atoms: O_2  and  C_3
REMARK    3  A    between atoms: C_3  and  C_4
REMARK    4  A    between atoms: C_4  and  C_5
REMARK    5  A    between atoms: C_8  and  C_9
REMARK    6  A    between atoms: C_14  and  C_15
REMARK    7  A    between atoms: C_18  and  C_19
REMARK                            x       y       z     vdW  Elec       q    Type
REMARK                         _______ _______ _______ _____ _____    ______ ____
ROOT
ATOM      1  C   UNL     1       2.684   6.446  18.653  0.00  0.00    +0.000 A 
ATOM      2  N   UNL     1       2.410   7.711  18.200  0.00  0.00    +0.000 N 
ATOM      3  C   UNL     1       1.743   8.435  19.160  0.00  0.00    +0.000 A 
ATOM      4  C   UNL     1       1.249   9.746  19.132  0.00  0.00    +0.000 A 
ATOM      5  C   UNL     1       0.589  10.217  20.273  0.00  0.00    +0.000 A 
ATOM      6  C   UNL     1       0.428   9.416  21.408  0.00  0.00    +0.000 A 
ATOM      7  C   UNL     1      -0.288   9.923  22.625  0.00  0.00    +0.000 C 
ATOM      8  C   UNL     1       0.943   8.110  21.410  0.00  0.00    +0.000 A 
ATOM      9  C   UNL     1       1.609   7.606  20.273  0.00  0.00    +0.000 A 
ATOM     10  C   UNL     1       2.218   6.351  19.956  0.00  0.00    +0.000 A 
ATOM     11  C   UNL     1       2.318   5.162  20.847  0.00  0.00    +0.000 C 
ATOM     12  H   UNL     1       2.652   8.050  17.276  0.00  0.00    +0.000 HD
ENDROOT
BRANCH   1  16
ATOM     13  C   UNL     1       4.603   4.494  16.487  0.00  0.00    +0.000 A 
ATOM     14  N   UNL     1       3.742   3.529  16.829  0.00  0.00    +0.000 NA
ATOM     15  O   UNL     1       2.891   4.171  17.724  0.00  0.00    +0.000 OA
ATOM     16  C   UNL     1       3.328   5.467  17.839  0.00  0.00    +0.000 A 
ATOM     17  N   UNL     1       4.391   5.706  17.099  0.00  0.00    +0.000 NA
BRANCH  13  18
ATOM     18  C   UNL     1       5.702   4.266  15.525  0.00  0.00    +0.000 C 
BRANCH  18  19
ATOM     19  C   UNL     1       6.893   5.171  15.810  0.00  0.00    +0.000 C 
BRANCH  19  21
ATOM     20  C   UNL     1       7.733   4.679  17.952  0.00  0.00    +0.000 C 
ATOM     21  O   UNL     1       7.867   4.439  16.557  0.00  0.00    +0.000 OA
ENDBRANCH  19  21
ENDBRANCH  18  19
ENDBRANCH  13  18
ENDBRANCH   1  16
TORSDOF 4
ENDMDL
MODEL 4
REMARK VINA RESULT:      -6.9      3.599      5.312
REMARK  Name = 
REMARK  7 active torsions:
REMARK  status: ('A' for Active; 'I' for Inactive)
REMARK    1  A    between atoms: C_1  and  O_2
REMARK    2  A    between atoms: O_2  and  C_3
REMARK    3  A    between atoms: C_3  and  C_4
REMARK    4  A    between atoms: C_4  and  C_5
REMARK    5  A    between atoms: C_8  and  C_9
REMARK    6  A    between atoms: C_14  and  C_15
REMARK    7  A    between atoms: C_18  and  C_19
REMARK                            x       y       z     vdW  Elec       q    Type
REMARK                         _______ _______ _______ _____ _____    ______ ____
ROOT
ATOM      1  C   UNL     1       2.653   6.377  18.685  0.00  0.00    +0.000 A 
ATOM      2  N   UNL     1       2.426   7.636  18.188  0.00  0.00    +0.000 N 
ATOM      3  C   UNL     1       1.784   8.416  19.122  0.00  0.00    +0.000 A 
ATOM      4  C   UNL     1       1.338   9.741  19.048  0.00  0.00    +0.000 A 
ATOM      5  C   UNL     1       0.694  10.275  20.171  0.00  0.00    +0.000 A 
ATOM      6  C   UNL     1       0.502   9.519  21.331  0.00  0.00    +0.000 A 
ATOM      7  C   UNL     1      -0.197  10.092  22.529  0.00  0.00    +0.000 C 
ATOM      8  C   UNL     1       0.969   8.196  21.379  0.00  0.00    +0.000 A 
ATOM      9  C   UNL     1       1.618   7.630  20.262  0.00  0.00    +0.000 A 
ATOM     10  C   UNL     1       2.183   6.344  19.988  0.00  0.00    +0.000 A 
ATOM     11  C   UNL     1       2.238   5.183  20.920  0.00  0.00    +0.000 C 
ATOM     12  H   UNL     1       2.681   7.935  17.254  0.00  0.00    +0.000 HD
ENDROOT
BRANCH   1  16
ATOM     13  C   UNL     1       4.577   4.249  16.696  0.00  0.00    +0.000 A 
ATOM     14  N   UNL     1       3.530   3.426  16.822  0.00  0.00    +0.000 NA
ATOM     15  O   UNL     1       2.653   4.153  17.622  0.00  0.00    +0.000 OA
ATOM     16  C   UNL     1       3.263   5.349  17.906  0.00  0.00    +0.000 A 
ATOM     17  N   UNL     1       4.458   5.445  17.362  0.00  0.00    +0.000 NA
BRANCH  13  18
ATOM     18  C   UNL     1       5.772   3.892  15.902  0.00  0.00    +0.000 C 
BRANCH  18  19
ATOM     19  C   UNL     1       6.992   4.692  16.335  0.00  0.00    +0.000 C 
BRANCH  19  21
ATOM     20  C   UNL     1       7.022   4.830  13.985  0.00  0.00    +0.000 C 
ATOM     21  O   UNL     1       7.533   5.369  15.198  0.00  0.00    +0.000 OA
ENDBRANCH  19  21
ENDBRANCH  18  19
ENDBRANCH  13  18
ENDBRANCH   1  16
TORSDOF 4
ENDMDL
MODEL 5
REMARK VINA RESULT:      -6.7      2.081      3.066
REMARK  Name = 
REMARK  7 active torsions:
REMARK  status: ('A' for Active; 'I' for Inactive)
REMARK    1  A    between atoms: C_1  and  O_2
REMARK    2  A    between atoms: O_2  and  C_3
REMARK    3  A    between atoms: C_3  and  C_4
REMARK    4  A    between atoms: C_4  and  C_5
REMARK    5  A    between atoms: C_8  and  C_9
REMARK    6  A    between atoms: C_14  and  C_15
REMARK    7  A    between atoms: C_18  and  C_19
REMARK                            x       y       z     vdW  Elec       q    Type
REMARK                         _______ _______ _______ _____ _____    ______ ____
ROOT
ATOM      1  C   UNL     1       5.015   5.935  16.489  0.00  0.00    +0.000 A 
ATOM      2  N   UNL     1       4.395   7.158  16.438  0.00  0.00    +0.000 N 
ATOM      3  C   UNL     1       3.572   7.328  17.527  0.00  0.00    +0.000 A 
ATOM      4  C   UNL     1       2.736   8.395  17.878  0.00  0.00    +0.000 A 
ATOM      5  C   UNL     1       1.991   8.280  19.058  0.00  0.00    +0.000 A 
ATOM      6  C   UNL     1       2.077   7.143  19.867  0.00  0.00    +0.000 A 
ATOM      7  C   UNL     1       1.272   7.019  21.127  0.00  0.00    +0.000 C 
ATOM      8  C   UNL     1       2.932   6.092  19.495  0.00  0.00    +0.000 A 
ATOM      9  C   UNL     1       3.691   6.180  18.309  0.00  0.00    +0.000 A 
ATOM     10  C   UNL     1       4.617   5.305  17.657  0.00  0.00    +0.000 A 
ATOM     11  C   UNL     1       5.055   3.963  18.133  0.00  0.00    +0.000 C 
ATOM     12  H   UNL     1       4.517   7.829  15.689  0.00  0.00    +0.000 HD
ENDROOT
BRANCH   1  16
ATOM     13  C   UNL     1       6.691   4.517  13.774  0.00  0.00    +0.000 A 
ATOM     14  N   UNL     1       7.752   5.149  14.287  0.00  0.00    +0.000 NA
ATOM     15  O   UNL     1       7.226   5.788  15.406  0.00  0.00    +0.000 OA
ATOM     16  C   UNL     1       5.889   5.481  15.457  0.00  0.00    +0.000 A 
ATOM     17  N   UNL     1       5.514   4.706  14.459  0.00  0.00    +0.000 NA
BRANCH  13  18
ATOM     18  C   UNL     1       6.781   3.683  12.557  0.00  0.00    +0.000 C 
BRANCH  18  19
ATOM     19  C   UNL     1       5.461   2.987  12.255  0.00  0.00    +0.000 C 
BRANCH  19  21
ATOM     20  C   UNL     1       3.544   3.115  10.895  0.00  0.00    +0.000 C 
ATOM     21  O   UNL     1       4.698   3.802  11.362  0.00  0.00    +0.000 OA
ENDBRANCH  19  21
ENDBRANCH  18  19
ENDBRANCH  13  18
ENDBRANCH   1  16
TORSDOF 4
ENDMDL
MODEL 6
REMARK VINA RESULT:      -6.6      3.440      7.076
REMARK  Name = 
REMARK  7 active torsions:
REMARK  status: ('A' for Active; 'I' for Inactive)
REMARK    1  A    between atoms: C_1  and  O_2
REMARK    2  A    between atoms: O_2  and  C_3
REMARK    3  A    between atoms: C_3  and  C_4
REMARK    4  A    between atoms: C_4  and  C_5
REMARK    5  A    between atoms: C_8  and  C_9
REMARK    6  A    between atoms: C_14  and  C_15
REMARK    7  A    between atoms: C_18  and  C_19
REMARK                            x       y       z     vdW  Elec       q    Type
REMARK                         _______ _______ _______ _____ _____    ______ ____
ROOT
ATOM      1  C   UNL     1       6.963   5.570  15.781  0.00  0.00    +0.000 A 
ATOM      2  N   UNL     1       7.741   5.486  14.653  0.00  0.00    +0.000 N 
ATOM      3  C   UNL     1       7.089   4.780  13.669  0.00  0.00    +0.000 A 
ATOM      4  C   UNL     1       7.500   4.429  12.377  0.00  0.00    +0.000 A 
ATOM      5  C   UNL     1       6.614   3.681  11.592  0.00  0.00    +0.000 A 
ATOM      6  C   UNL     1       5.357   3.299  12.072  0.00  0.00    +0.000 A 
ATOM      7  C   UNL     1       4.414   2.491  11.230  0.00  0.00    +0.000 C 
ATOM      8  C   UNL     1       4.968   3.674  13.368  0.00  0.00    +0.000 A 
ATOM      9  C   UNL     1       5.843   4.423  14.183  0.00  0.00    +0.000 A 
ATOM     10  C   UNL     1       5.759   4.938  15.515  0.00  0.00    +0.000 A 
ATOM     11  C   UNL     1       4.606   4.803  16.448  0.00  0.00    +0.000 C 
ATOM     12  H   UNL     1       8.672   5.874  14.573  0.00  0.00    +0.000 HD
ENDROOT
BRANCH   1  16
ATOM     13  C   UNL     1       8.146   7.606  18.358  0.00  0.00    +0.000 A 
ATOM     14  N   UNL     1       8.068   6.484  19.082  0.00  0.00    +0.000 NA
ATOM     15  O   UNL     1       7.588   5.553  18.166  0.00  0.00    +0.000 OA
ATOM     16  C   UNL     1       7.418   6.209  16.973  0.00  0.00    +0.000 A 
ATOM     17  N   UNL     1       7.741   7.484  17.051  0.00  0.00    +0.000 NA
BRANCH  13  18
ATOM     18  C   UNL     1       8.629   8.882  18.929  0.00  0.00    +0.000 C 
BRANCH  18  19
ATOM     19  C   UNL     1       8.524  10.021  17.924  0.00  0.00    +0.000 C 
BRANCH  19  21
ATOM     20  C   UNL     1       9.244  12.223  18.338  0.00  0.00    +0.000 C 
ATOM     21  O   UNL     1       9.651  10.885  18.079  0.00  0.00    +0.000 OA
ENDBRANCH  19  21
ENDBRANCH  18  19
ENDBRANCH  13  18
ENDBRANCH   1  16
TORSDOF 4
ENDMDL
MODEL 7
REMARK VINA RESULT:      -6.6      3.484      4.691
REMARK  Name = 
REMARK  7 active torsions:
REMARK  status: ('A' for Active; 'I' for Inactive)
REMARK    1  A    between atoms: C_1  and  O_2
REMARK    2  A    between atoms: O_2  and  C_3
REMARK    3  A    between atoms: C_3  and  C_4
REMARK    4  A    between atoms: C_4  and  C_5
REMARK    5  A    between atoms: C_8  and  C_9
REMARK    6  A    between atoms: C_14  and  C_15
REMARK    7  A    between atoms: C_18  and  C_19
REMARK                            x       y       z     vdW  Elec       q    Type
REMARK                         _______ _______ _______ _____ _____    ______ ____
ROOT
ATOM      1  C   UNL     1       3.059   6.626  18.364  0.00  0.00    +0.000 A 
ATOM      2  N   UNL     1       2.656   7.890  18.015  0.00  0.00    +0.000 N 
ATOM      3  C   UNL     1       1.889   8.445  19.013  0.00  0.00    +0.000 A 
ATOM      4  C   UNL     1       1.251   9.691  19.084  0.00  0.00    +0.000 A 
ATOM      5  C   UNL     1       0.515   9.980  20.239  0.00  0.00    +0.000 A 
ATOM      6  C   UNL     1       0.418   9.065  21.292  0.00  0.00    +0.000 A 
ATOM      7  C   UNL     1      -0.379   9.376  22.525  0.00  0.00    +0.000 C 
ATOM      8  C   UNL     1       1.077   7.829  21.197  0.00  0.00    +0.000 A 
ATOM      9  C   UNL     1       1.822   7.508  20.043  0.00  0.00    +0.000 A 
ATOM     10  C   UNL     1       2.576   6.362  19.636  0.00  0.00    +0.000 A 
ATOM     11  C   UNL     1       2.788   5.115  20.422  0.00  0.00    +0.000 C 
ATOM     12  H   UNL     1       2.880   8.337  17.134  0.00  0.00    +0.000 HD
ENDROOT
BRANCH   1  16
ATOM     13  C   UNL     1       5.174   5.116  16.033  0.00  0.00    +0.000 A 
ATOM     14  N   UNL     1       4.554   3.995  16.416  0.00  0.00    +0.000 NA
ATOM     15  O   UNL     1       3.658   4.446  17.381  0.00  0.00    +0.000 OA
ATOM     16  C   UNL     1       3.829   5.803  17.489  0.00  0.00    +0.000 A 
ATOM     17  N   UNL     1       4.764   6.257  16.680  0.00  0.00    +0.000 NA
BRANCH  13  18
ATOM     18  C   UNL     1       6.224   5.122  14.992  0.00  0.00    +0.000 C 
BRANCH  18  19
ATOM     19  C   UNL     1       6.257   3.810  14.222  0.00  0.00    +0.000 C 
BRANCH  19  21
ATOM     20  C   UNL     1       5.839   2.983  12.059  0.00  0.00    +0.000 C 
ATOM     21  O   UNL     1       5.466   3.942  13.039  0.00  0.00    +0.000 OA
ENDBRANCH  19  21
ENDBRANCH  18  19
ENDBRANCH  13  18
ENDBRANCH   1  16
TORSDOF 4
ENDMDL
MODEL 8
REMARK VINA RESULT:      -6.6      4.916      6.927
REMARK  Name = 
REMARK  7 active torsions:
REMARK  status: ('A' for Active; 'I' for Inactive)
REMARK    1  A    between atoms: C_1  and  O_2
REMARK    2  A    between atoms: O_2  and  C_3
REMARK    3  A    between atoms: C_3  and  C_4
REMARK    4  A    between atoms: C_4  and  C_5
REMARK    5  A    between atoms: C_8  and  C_9
REMARK    6  A    between atoms: C_14  and  C_15
REMARK    7  A    between atoms: C_18  and  C_19
REMARK                            x       y       z     vdW  Elec       q    Type
REMARK                         _______ _______ _______ _____ _____    ______ ____
ROOT
ATOM      1  C   UNL     1       2.127   7.406  19.719  0.00  0.00    +0.000 A 
ATOM      2  N   UNL     1       1.718   7.436  21.028  0.00  0.00    +0.000 N 
ATOM      3  C   UNL     1       1.027   8.595  21.292  0.00  0.00    +0.000 A 
ATOM      4  C   UNL     1       0.451   9.060  22.481  0.00  0.00    +0.000 A 
ATOM      5  C   UNL     1      -0.188  10.305  22.452  0.00  0.00    +0.000 A 
ATOM      6  C   UNL     1      -0.257  11.064  21.279  0.00  0.00    +0.000 A 
ATOM      7  C   UNL     1      -0.935  12.402  21.254  0.00  0.00    +0.000 C 
ATOM      8  C   UNL     1       0.321  10.567  20.100  0.00  0.00    +0.000 A 
ATOM      9  C   UNL     1       0.975   9.317  20.101  0.00  0.00    +0.000 A 
ATOM     10  C   UNL     1       1.660   8.556  19.102  0.00  0.00    +0.000 A 
ATOM     11  C   UNL     1       1.851   8.934  17.674  0.00  0.00    +0.000 C 
ATOM     12  H   UNL     1       1.920   6.710  21.705  0.00  0.00    +0.000 HD
ENDROOT
BRANCH   1  16
ATOM     13  C   UNL     1       3.559   4.659  18.108  0.00  0.00    +0.000 A 
ATOM     14  N   UNL     1       4.598   4.918  18.909  0.00  0.00    +0.000 NA
ATOM     15  O   UNL     1       4.170   6.028  19.631  0.00  0.00    +0.000 OA
ATOM     16  C   UNL     1       2.908   6.336  19.189  0.00  0.00    +0.000 A 
ATOM     17  N   UNL     1       2.496   5.521  18.240  0.00  0.00    +0.000 NA
BRANCH  13  18
ATOM     18  C   UNL     1       3.560   3.532  17.151  0.00  0.00    +0.000 C 
BRANCH  18  19
ATOM     19  C   UNL     1       2.831   2.320  17.712  0.00  0.00    +0.000 C 
BRANCH  19  21
ATOM     20  C   UNL     1       0.882   2.367  19.031  0.00  0.00    +0.000 C 
ATOM     21  O   UNL     1       1.427   2.589  17.737  0.00  0.00    +0.000 OA
ENDBRANCH  19  21
ENDBRANCH  18  19
ENDBRANCH  13  18
ENDBRANCH   1  16
TORSDOF 4
ENDMDL
MODEL 9
REMARK VINA RESULT:      -6.5      2.834      3.911
REMARK  Name = 
REMARK  7 active torsions:
REMARK  status: ('A' for Active; 'I' for Inactive)
REMARK    1  A    between atoms: C_1  and  O_2
REMARK    2  A    between atoms: O_2  and  C_3
REMARK    3  A    between atoms: C_3  and  C_4
REMARK    4  A    between atoms: C_4  and  C_5
REMARK    5  A    between atoms: C_8  and  C_9
REMARK    6  A    between atoms: C_14  and  C_15
REMARK    7  A    between atoms: C_18  and  C_19
REMARK                            x       y       z     vdW  Elec       q    Type
REMARK                         _______ _______ _______ _____ _____    ______ ____
ROOT
ATOM      1  C   UNL     1       4.158   6.821  17.482  0.00  0.00    +0.000 A 
ATOM      2  N   UNL     1       3.515   7.984  17.142  0.00  0.00    +0.000 N 
ATOM      3  C   UNL     1       2.608   8.337  18.114  0.00  0.00    +0.000 A 
ATOM      4  C   UNL     1       1.723   9.420  18.183  0.00  0.00    +0.000 A 
ATOM      5  C   UNL     1       0.895   9.515  19.308  0.00  0.00    +0.000 A 
ATOM      6  C   UNL     1       0.947   8.568  20.335  0.00  0.00    +0.000 A 
ATOM      7  C   UNL     1       0.052   8.669  21.535  0.00  0.00    +0.000 C 
ATOM      8  C   UNL     1       1.852   7.498  20.243  0.00  0.00    +0.000 A 
ATOM      9  C   UNL     1       2.695   7.375  19.119  0.00  0.00    +0.000 A 
ATOM     10  C   UNL     1       3.688   6.423  18.724  0.00  0.00    +0.000 A 
ATOM     11  C   UNL     1       4.122   5.223  19.491  0.00  0.00    +0.000 C 
ATOM     12  H   UNL     1       3.676   8.495  16.282  0.00  0.00    +0.000 HD
ENDROOT
BRANCH   1  16
ATOM     13  C   UNL     1       6.082   4.917  15.277  0.00  0.00    +0.000 A 
ATOM     14  N   UNL     1       7.055   5.767  15.624  0.00  0.00    +0.000 NA
ATOM     15  O   UNL     1       6.420   6.621  16.522  0.00  0.00    +0.000 OA
ATOM     16  C   UNL     1       5.117   6.203  16.626  0.00  0.00    +0.000 A 
ATOM     17  N   UNL     1       4.863   5.158  15.864  0.00  0.00    +0.000 NA
BRANCH  13  18
ATOM     18  C   UNL     1       6.307   3.805  14.329  0.00  0.00    +0.000 C 
BRANCH  18  19
ATOM     19  C   UNL     1       6.981   4.285  13.052  0.00  0.00    +0.000 C 
BRANCH  19  21
ATOM     20  C   UNL     1       5.223   3.161  11.963  0.00  0.00    +0.000 C 
ATOM     21  O   UNL     1       6.622   3.412  11.979  0.00  0.00    +0.000 OA
ENDBRANCH  19  21
ENDBRANCH  18  19
ENDBRANCH  13  18
ENDBRANCH   1  16
TORSDOF 4
ENDMDL
