MODEL 1
REMARK VINA RESULT:      -8.5      0.000      0.000
REMARK  Name = 
REMARK  7 active torsions:
REMARK  status: ('A' for Active; 'I' for Inactive)
REMARK    1  A    between atoms: C_1  and  C_2
REMARK    2  A    between atoms: C_2  and  O_3
REMARK    3  A    between atoms: O_3  and  C_4
REMARK    4  A    between atoms: N_6  and  C_7
REMARK    5  A    between atoms: C_13  and  C_14
REMARK    6  A    between atoms: C_18  and  C_19
REMARK    7  A    between atoms: C_19  and  C_20
REMARK                            x       y       z     vdW  Elec       q    Type
REMARK                         _______ _______ _______ _____ _____    ______ ____
ROOT
ATOM      1  C   UNL     1       5.817   6.174  17.286  0.00  0.00    +0.000 C 
ATOM      2  C   UNL     1       5.596   5.502  15.931  0.00  0.00    +0.000 C 
ATOM      3  C   UNL     1       5.275   4.027  16.149  0.00  0.00    +0.000 C 
ATOM      4  C   UNL     1       4.311   3.764  17.285  0.00  0.00    +0.000 A 
ATOM      5  C   UNL     1       3.803   2.464  17.432  0.00  0.00    +0.000 A 
ATOM      6  C   UNL     1       2.951   2.146  18.489  0.00  0.00    +0.000 A 
ATOM      7  C   UNL     1       2.602   3.123  19.421  0.00  0.00    +0.000 A 
ATOM      8  C   UNL     1       3.110   4.421  19.294  0.00  0.00    +0.000 A 
ATOM      9  C   UNL     1       3.971   4.755  18.232  0.00  0.00    +0.000 A 
ATOM     10  C   UNL     1       4.487   6.191  18.100  0.00  0.00    +0.000 C 
ENDROOT
BRANCH   1  13
ATOM     11  C   UNL     1       7.617   7.813  17.777  0.00  0.00    +0.000 C 
ATOM     12  O   UNL     1       8.212   7.125  18.591  0.00  0.00    +0.000 OA
ATOM     13  N   UNL     1       6.469   7.462  17.130  0.00  0.00    +0.000 N 
ATOM     14  H   UNL     1       6.151   8.130  16.441  0.00  0.00    +0.000 HD
BRANCH  11  15
ATOM     15  O   UNL     1       7.997   9.045  17.359  0.00  0.00    +0.000 OA
BRANCH  15  17
ATOM     16  C   UNL     1       8.837  11.274  17.850  0.00  0.00    +0.000 C 
ATOM     17  C   UNL     1       8.735   9.831  18.310  0.00  0.00    +0.000 C 
ENDBRANCH  15  17
ENDBRANCH  11  15
ENDBRANCH   1  13
BRANCH   7  18
ATOM     18  C   UNL     1       1.718   2.798  20.506  0.00  0.00    +0.000 C 
ATOM     19  N   UNL     1       1.011   2.544  21.387  0.00  0.00    +0.000 NA
ENDBRANCH   7  18
BRANCH  10  20
ATOM     20  C   UNL     1       3.323   7.056  17.530  0.00  0.00    +0.000 C 
BRANCH  20  21
ATOM     21  C   UNL     1       2.542   7.852  18.545  0.00  0.00    +0.000 A 
ATOM     22  C   UNL     1       2.327   7.333  19.830  0.00  0.00    +0.000 A 
ATOM     23  C   UNL     1       1.475   7.988  20.720  0.00  0.00    +0.000 A 
ATOM     24  C   UNL     1       0.850   9.182  20.349  0.00  0.00    +0.000 A 
ATOM     25 CL   UNL     1      -0.260   9.887  21.468  0.00  0.00    +0.000 Cl
ATOM     26  C   UNL     1       1.118   9.746  19.098  0.00  0.00    +0.000 A 
ATOM     27 CL   UNL     1       0.408  11.234  18.582  0.00  0.00    +0.000 Cl
ATOM     28  C   UNL     1       1.970   9.086  18.206  0.00  0.00    +0.000 A 
ENDBRANCH  20  21
ENDBRANCH  10  20
TORSDOF 6
ENDMDL
MODEL 2
REMARK VINA RESULT:      -8.0      0.745      1.415
REMARK  Name = 
REMARK  7 active torsions:
REMARK  status: ('A' for Active; 'I' for Inactive)
REMARK    1  A    between atoms: C_1  and  C_2
REMARK    2  A    between atoms: C_2  and  O_3
REMARK    3  A    between atoms: O_3  and  C_4
REMARK    4  A    between atoms: N_6  and  C_7
REMARK    5  A    between atoms: C_13  and  C_14
REMARK    6  A    between atoms: C_18  and  C_19
REMARK    7  A    between atoms: C_19  and  C_20
REMARK                            x       y       z     vdW  Elec       q    Type
REMARK                         _______ _______ _______ _____ _____    ______ ____
ROOT
ATOM      1  C   UNL     1       6.021   6.292  17.259  0.00  0.00    +0.000 C 
ATOM      2  C   UNL     1       5.992   5.574  15.910  0.00  0.00    +0.000 C 
ATOM      3  C   UNL     1       5.633   4.108  16.131  0.00  0.00    +0.000 C 
ATOM      4  C   UNL     1       4.515   3.887  17.125  0.00  0.00    +0.000 A 
ATOM      5  C   UNL     1       3.983   2.594  17.242  0.00  0.00    +0.000 A 
ATOM      6  C   UNL     1       2.985   2.314  18.176  0.00  0.00    +0.000 A 
ATOM      7  C   UNL     1       2.512   3.324  19.014  0.00  0.00    +0.000 A 
ATOM      8  C   UNL     1       3.043   4.615  18.916  0.00  0.00    +0.000 A 
ATOM      9  C   UNL     1       4.049   4.911  17.978  0.00  0.00    +0.000 A 
ATOM     10  C   UNL     1       4.588   6.341  17.872  0.00  0.00    +0.000 C 
ENDROOT
BRANCH   1  13
ATOM     11  C   UNL     1       7.802   7.908  17.879  0.00  0.00    +0.000 C 
ATOM     12  O   UNL     1       8.332   7.211  18.729  0.00  0.00    +0.000 OA
ATOM     13  N   UNL     1       6.697   7.574  17.154  0.00  0.00    +0.000 N 
ATOM     14  H   UNL     1       6.435   8.247  16.447  0.00  0.00    +0.000 HD
BRANCH  11  15
ATOM     15  O   UNL     1       8.224   9.137  17.494  0.00  0.00    +0.000 OA
BRANCH  15  17
ATOM     16  C   UNL     1       9.743  10.944  18.080  0.00  0.00    +0.000 C 
ATOM     17  C   UNL     1       8.633  10.021  18.551  0.00  0.00    +0.000 C 
ENDBRANCH  15  17
ENDBRANCH  11  15
ENDBRANCH   1  13
BRANCH   7  18
ATOM     18  C   UNL     1       1.480   3.039  19.971  0.00  0.00    +0.000 C 
ATOM     19  N   UNL     1       0.648   2.820  20.746  0.00  0.00    +0.000 NA
ENDBRANCH   7  18
BRANCH  10  20
ATOM     20  C   UNL     1       3.524   7.186  17.110  0.00  0.00    +0.000 C 
BRANCH  20  21
ATOM     21  C   UNL     1       2.618   8.028  17.974  0.00  0.00    +0.000 A 
ATOM     22  C   UNL     1       2.182   9.281  17.523  0.00  0.00    +0.000 A 
ATOM     23  C   UNL     1       1.477  10.131  18.377  0.00  0.00    +0.000 A 
ATOM     24  C   UNL     1       1.175   9.729  19.681  0.00  0.00    +0.000 A 
ATOM     25 CL   UNL     1       0.380  10.867  20.708  0.00  0.00    +0.000 Cl
ATOM     26  C   UNL     1       1.540   8.450  20.115  0.00  0.00    +0.000 A 
ATOM     27 CL   UNL     1       1.175   7.871  21.701  0.00  0.00    +0.000 Cl
ATOM     28  C   UNL     1       2.249   7.601  19.259  0.00  0.00    +0.000 A 
ENDBRANCH  20  21
ENDBRANCH  10  20
TORSDOF 6
ENDMDL
MODEL 3
REMARK VINA RESULT:      -7.2      3.200      5.665
REMARK  Name = 
REMARK  7 active torsions:
REMARK  status: ('A' for Active; 'I' for Inactive)
REMARK    1  A    between atoms: C_1  and  C_2
REMARK    2  A    between atoms: C_2  and  O_3
REMARK    3  A    between atoms: O_3  and  C_4
REMARK    4  A    between atoms: N_6  and  C_7
REMARK    5  A    between atoms: C_13  and  C_14
REMARK    6  A    between atoms: C_18  and  C_19
REMARK    7  A    between atoms: C_19  and  C_20
REMARK                            x       y       z     vdW  Elec       q    Type
REMARK                         _______ _______ _______ _____ _____    ______ ____
ROOT
ATOM      1  C   UNL     1       4.899   3.912  19.127  0.00  0.00    +0.000 C 
ATOM      2  C   UNL     1       5.290   5.376  19.328  0.00  0.00    +0.000 C 
ATOM      3  C   UNL     1       6.425   5.726  18.372  0.00  0.00    +0.000 C 
ATOM      4  C   UNL     1       6.249   5.180  16.973  0.00  0.00    +0.000 A 
ATOM      5  C   UNL     1       7.136   5.617  15.977  0.00  0.00    +0.000 A 
ATOM      6  C   UNL     1       7.057   5.112  14.679  0.00  0.00    +0.000 A 
ATOM      7  C   UNL     1       6.094   4.154  14.361  0.00  0.00    +0.000 A 
ATOM      8  C   UNL     1       5.211   3.701  15.347  0.00  0.00    +0.000 A 
ATOM      9  C   UNL     1       5.279   4.202  16.660  0.00  0.00    +0.000 A 
ATOM     10  C   UNL     1       4.279   3.711  17.711  0.00  0.00    +0.000 C 
ENDROOT
BRANCH   1  13
ATOM     11  C   UNL     1       4.265   2.212  20.824  0.00  0.00    +0.000 C 
ATOM     12  O   UNL     1       5.070   1.363  20.477  0.00  0.00    +0.000 OA
ATOM     13  N   UNL     1       4.092   3.430  20.235  0.00  0.00    +0.000 N 
ATOM     14  H   UNL     1       3.423   4.031  20.695  0.00  0.00    +0.000 HD
BRANCH  11  15
ATOM     15  O   UNL     1       3.404   2.103  21.865  0.00  0.00    +0.000 OA
BRANCH  15  17
ATOM     16  C   UNL     1       1.129   2.535  21.123  0.00  0.00    +0.000 C 
ATOM     17  C   UNL     1       2.328   3.056  21.894  0.00  0.00    +0.000 C 
ENDBRANCH  15  17
ENDBRANCH  11  15
ENDBRANCH   1  13
BRANCH   7  18
ATOM     18  C   UNL     1       6.007   3.639  13.023  0.00  0.00    +0.000 C 
ATOM     19  N   UNL     1       5.929   3.233  11.942  0.00  0.00    +0.000 NA
ENDBRANCH   7  18
BRANCH  10  20
ATOM     20  C   UNL     1       2.920   4.419  17.430  0.00  0.00    +0.000 C 
BRANCH  20  21
ATOM     21  C   UNL     1       2.625   5.629  18.282  0.00  0.00    +0.000 A 
ATOM     22  C   UNL     1       2.161   5.467  19.594  0.00  0.00    +0.000 A 
ATOM     23  C   UNL     1       1.736   6.573  20.332  0.00  0.00    +0.000 A 
ATOM     24  C   UNL     1       1.795   7.855  19.779  0.00  0.00    +0.000 A 
ATOM     25 CL   UNL     1       1.169   9.163  20.716  0.00  0.00    +0.000 Cl
ATOM     26  C   UNL     1       2.328   8.034  18.498  0.00  0.00    +0.000 A 
ATOM     27 CL   UNL     1       2.461   9.590  17.760  0.00  0.00    +0.000 Cl
ATOM     28  C   UNL     1       2.750   6.924  17.759  0.00  0.00    +0.000 A 
ENDBRANCH  20  21
ENDBRANCH  10  20
TORSDOF 6
ENDMDL
MODEL 4
REMARK VINA RESULT:      -7.0      5.606     10.129
REMARK  Name = 
REMARK  7 active torsions:
REMARK  status: ('A' for Active; 'I' for Inactive)
REMARK    1  A    between atoms: C_1  and  C_2
REMARK    2  A    between atoms: C_2  and  O_3
REMARK    3  A    between atoms: O_3  and  C_4
REMARK    4  A    between atoms: N_6  and  C_7
REMARK    5  A    between atoms: C_13  and  C_14
REMARK    6  A    between atoms: C_18  and  C_19
REMARK    7  A    between atoms: C_19  and  C_20
REMARK                            x       y       z     vdW  Elec       q    Type
REMARK                         _______ _______ _______ _____ _____    ______ ____
ROOT
ATOM      1  C   UNL     1       9.758  11.536  18.332  0.00  0.00    +0.000 C 
ATOM      2  C   UNL     1      11.212  11.717  17.897  0.00  0.00    +0.000 C 
ATOM      3  C   UNL     1      11.336  13.002  17.084  0.00  0.00    +0.000 C 
ATOM      4  C   UNL     1      10.571  14.173  17.658  0.00  0.00    +0.000 A 
ATOM      5  C   UNL     1      10.786  15.441  17.095  0.00  0.00    +0.000 A 
ATOM      6  C   UNL     1      10.074  16.553  17.546  0.00  0.00    +0.000 A 
ATOM      7  C   UNL     1       9.129  16.409  18.562  0.00  0.00    +0.000 A 
ATOM      8  C   UNL     1       8.896  15.149  19.125  0.00  0.00    +0.000 A 
ATOM      9  C   UNL     1       9.607  14.020  18.679  0.00  0.00    +0.000 A 
ATOM     10  C   UNL     1       9.355  12.659  19.335  0.00  0.00    +0.000 C 
ENDROOT
BRANCH   1  13
ATOM     11  C   UNL     1       8.526   9.379  18.290  0.00  0.00    +0.000 C 
ATOM     12  O   UNL     1       7.703   9.707  17.451  0.00  0.00    +0.000 OA
ATOM     13  N   UNL     1       9.514  10.178  18.787  0.00  0.00    +0.000 N 
ATOM     14  H   UNL     1      10.146   9.719  19.428  0.00  0.00    +0.000 HD
BRANCH  11  15
ATOM     15  O   UNL     1       8.615   8.159  18.872  0.00  0.00    +0.000 OA
BRANCH  15  17
ATOM     16  C   UNL     1       7.837   5.867  19.115  0.00  0.00    +0.000 C 
ATOM     17  C   UNL     1       7.875   7.104  18.236  0.00  0.00    +0.000 C 
ENDBRANCH  15  17
ENDBRANCH  11  15
ENDBRANCH   1  13
BRANCH   7  18
ATOM     18  C   UNL     1       8.401  17.555  19.032  0.00  0.00    +0.000 C 
ATOM     19  N   UNL     1       7.804  18.473  19.407  0.00  0.00    +0.000 NA
ENDBRANCH   7  18
BRANCH  10  20
ATOM     20  C   UNL     1      10.077  12.664  20.716  0.00  0.00    +0.000 C 
BRANCH  20  21
ATOM     21  C   UNL     1       9.178  12.758  21.923  0.00  0.00    +0.000 A 
ATOM     22  C   UNL     1       8.395  11.659  22.303  0.00  0.00    +0.000 A 
ATOM     23  C   UNL     1       7.446  11.787  23.317  0.00  0.00    +0.000 A 
ATOM     24  C   UNL     1       7.286  13.005  23.984  0.00  0.00    +0.000 A 
ATOM     25 CL   UNL     1       6.032  13.114  25.166  0.00  0.00    +0.000 Cl
ATOM     26  C   UNL     1       8.115  14.085  23.664  0.00  0.00    +0.000 A 
ATOM     27 CL   UNL     1       7.998  15.611  24.465  0.00  0.00    +0.000 Cl
ATOM     28  C   UNL     1       9.064  13.956  22.644  0.00  0.00    +0.000 A 
ENDBRANCH  20  21
ENDBRANCH  10  20
TORSDOF 6
ENDMDL
MODEL 5
REMARK VINA RESULT:      -6.9      5.497     10.114
REMARK  Name = 
REMARK  7 active torsions:
REMARK  status: ('A' for Active; 'I' for Inactive)
REMARK    1  A    between atoms: C_1  and  C_2
REMARK    2  A    between atoms: C_2  and  O_3
REMARK    3  A    between atoms: O_3  and  C_4
REMARK    4  A    between atoms: N_6  and  C_7
REMARK    5  A    between atoms: C_13  and  C_14
REMARK    6  A    between atoms: C_18  and  C_19
REMARK    7  A    between atoms: C_19  and  C_20
REMARK                            x       y       z     vdW  Elec       q    Type
REMARK                         _______ _______ _______ _____ _____    ______ ____
ROOT
ATOM      1  C   UNL     1       9.651  11.431  18.404  0.00  0.00    +0.000 C 
ATOM      2  C   UNL     1      11.100  11.641  17.968  0.00  0.00    +0.000 C 
ATOM      3  C   UNL     1      11.201  12.935  17.167  0.00  0.00    +0.000 C 
ATOM      4  C   UNL     1      10.417  14.088  17.753  0.00  0.00    +0.000 A 
ATOM      5  C   UNL     1      10.610  15.364  17.201  0.00  0.00    +0.000 A 
ATOM      6  C   UNL     1       9.880  16.460  17.663  0.00  0.00    +0.000 A 
ATOM      7  C   UNL     1       8.938  16.291  18.679  0.00  0.00    +0.000 A 
ATOM      8  C   UNL     1       8.728  15.022  19.230  0.00  0.00    +0.000 A 
ATOM      9  C   UNL     1       9.458  13.909  18.773  0.00  0.00    +0.000 A 
ATOM     10  C   UNL     1       9.229  12.538  19.417  0.00  0.00    +0.000 C 
ENDROOT
BRANCH   1  13
ATOM     11  C   UNL     1       8.483   9.241  18.315  0.00  0.00    +0.000 C 
ATOM     12  O   UNL     1       7.679   9.548  17.449  0.00  0.00    +0.000 OA
ATOM     13  N   UNL     1       9.430  10.065  18.846  0.00  0.00    +0.000 N 
ATOM     14  H   UNL     1      10.053   9.623  19.508  0.00  0.00    +0.000 HD
BRANCH  11  15
ATOM     15  O   UNL     1       8.587   8.021  18.896  0.00  0.00    +0.000 OA
BRANCH  15  17
ATOM     16  C   UNL     1       7.792   5.739  19.171  0.00  0.00    +0.000 C 
ATOM     17  C   UNL     1       7.841   6.962  18.273  0.00  0.00    +0.000 C 
ENDBRANCH  15  17
ENDBRANCH  11  15
ENDBRANCH   1  13
BRANCH   7  18
ATOM     18  C   UNL     1       8.192  17.419  19.160  0.00  0.00    +0.000 C 
ATOM     19  N   UNL     1       7.589  18.333  19.537  0.00  0.00    +0.000 NA
ENDBRANCH   7  18
BRANCH  10  20
ATOM     20  C   UNL     1       9.954  12.543  20.797  0.00  0.00    +0.000 C 
BRANCH  20  21
ATOM     21  C   UNL     1       9.118  12.985  21.972  0.00  0.00    +0.000 A 
ATOM     22  C   UNL     1       9.343  14.235  22.564  0.00  0.00    +0.000 A 
ATOM     23  C   UNL     1       8.686  14.584  23.745  0.00  0.00    +0.000 A 
ATOM     24  C   UNL     1       7.776  13.702  24.333  0.00  0.00    +0.000 A 
ATOM     25 CL   UNL     1       7.069  14.163  25.840  0.00  0.00    +0.000 Cl
ATOM     26  C   UNL     1       7.488  12.484  23.709  0.00  0.00    +0.000 A 
ATOM     27 CL   UNL     1       6.354  11.355  24.359  0.00  0.00    +0.000 Cl
ATOM     28  C   UNL     1       8.151  12.134  22.527  0.00  0.00    +0.000 A 
ENDBRANCH  20  21
ENDBRANCH  10  20
TORSDOF 6
ENDMDL
MODEL 6
REMARK VINA RESULT:      -6.7      5.067      8.221
REMARK  Name = 
REMARK  7 active torsions:
REMARK  status: ('A' for Active; 'I' for Inactive)
REMARK    1  A    between atoms: C_1  and  C_2
REMARK    2  A    between atoms: C_2  and  O_3
REMARK    3  A    between atoms: O_3  and  C_4
REMARK    4  A    between atoms: N_6  and  C_7
REMARK    5  A    between atoms: C_13  and  C_14
REMARK    6  A    between atoms: C_18  and  C_19
REMARK    7  A    between atoms: C_19  and  C_20
REMARK                            x       y       z     vdW  Elec       q    Type
REMARK                         _______ _______ _______ _____ _____    ______ ____
ROOT
ATOM      1  C   UNL     1       0.206  12.517  20.323  0.00  0.00    +0.000 C 
ATOM      2  C   UNL     1      -0.893  12.557  21.384  0.00  0.00    +0.000 C 
ATOM      3  C   UNL     1      -2.231  12.840  20.709  0.00  0.00    +0.000 C 
ATOM      4  C   UNL     1      -2.452  12.071  19.426  0.00  0.00    +0.000 A 
ATOM      5  C   UNL     1      -3.729  12.112  18.844  0.00  0.00    +0.000 A 
ATOM      6  C   UNL     1      -3.984  11.465  17.635  0.00  0.00    +0.000 A 
ATOM      7  C   UNL     1      -2.960  10.775  16.984  0.00  0.00    +0.000 A 
ATOM      8  C   UNL     1      -1.679  10.736  17.548  0.00  0.00    +0.000 A 
ATOM      9  C   UNL     1      -1.410  11.384  18.767  0.00  0.00    +0.000 A 
ATOM     10  C   UNL     1      -0.007  11.297  19.376  0.00  0.00    +0.000 C 
ENDROOT
BRANCH   1  13
ATOM     11  C   UNL     1       2.242  13.768  21.000  0.00  0.00    +0.000 C 
ATOM     12  O   UNL     1       1.905  14.844  20.530  0.00  0.00    +0.000 OA
ATOM     13  N   UNL     1       1.522  12.612  20.930  0.00  0.00    +0.000 N 
ATOM     14  H   UNL     1       1.925  11.833  21.432  0.00  0.00    +0.000 HD
BRANCH  11  15
ATOM     15  O   UNL     1       3.386  13.532  21.686  0.00  0.00    +0.000 OA
BRANCH  15  17
ATOM     16  C   UNL     1       5.236  14.938  20.966  0.00  0.00    +0.000 C 
ATOM     17  C   UNL     1       4.170  14.690  22.018  0.00  0.00    +0.000 C 
ENDBRANCH  15  17
ENDBRANCH  11  15
ENDBRANCH   1  13
BRANCH   7  18
ATOM     18  C   UNL     1      -3.223  10.103  15.743  0.00  0.00    +0.000 C 
ATOM     19  N   UNL     1      -3.423   9.560  14.740  0.00  0.00    +0.000 NA
ENDBRANCH   7  18
BRANCH  10  20
ATOM     20  C   UNL     1       0.142   9.880  20.008  0.00  0.00    +0.000 C 
BRANCH  20  21
ATOM     21  C   UNL     1       1.222   9.010  19.414  0.00  0.00    +0.000 A 
ATOM     22  C   UNL     1       1.798   9.348  18.182  0.00  0.00    +0.000 A 
ATOM     23  C   UNL     1       2.679   8.468  17.552  0.00  0.00    +0.000 A 
ATOM     24  C   UNL     1       3.018   7.255  18.157  0.00  0.00    +0.000 A 
ATOM     25 CL   UNL     1       4.043   6.179  17.278  0.00  0.00    +0.000 Cl
ATOM     26  C   UNL     1       2.508   6.944  19.421  0.00  0.00    +0.000 A 
ATOM     27 CL   UNL     1       2.904   5.479  20.246  0.00  0.00    +0.000 Cl
ATOM     28  C   UNL     1       1.621   7.825  20.050  0.00  0.00    +0.000 A 
ENDBRANCH  20  21
ENDBRANCH  10  20
TORSDOF 6
ENDMDL
MODEL 7
REMARK VINA RESULT:      -6.6      5.526      8.796
REMARK  Name = 
REMARK  7 active torsions:
REMARK  status: ('A' for Active; 'I' for Inactive)
REMARK    1  A    between atoms: C_1  and  C_2
REMARK    2  A    between atoms: C_2  and  O_3
REMARK    3  A    between atoms: O_3  and  C_4
REMARK    4  A    between atoms: N_6  and  C_7
REMARK    5  A    between atoms: C_13  and  C_14
REMARK    6  A    between atoms: C_18  and  C_19
REMARK    7  A    between atoms: C_19  and  C_20
REMARK                            x       y       z     vdW  Elec       q    Type
REMARK                         _______ _______ _______ _____ _____    ______ ____
ROOT
ATOM      1  C   UNL     1      -1.113  10.363  18.128  0.00  0.00    +0.000 C 
ATOM      2  C   UNL     1      -2.001  10.547  16.898  0.00  0.00    +0.000 C 
ATOM      3  C   UNL     1      -3.451  10.708  17.345  0.00  0.00    +0.000 C 
ATOM      4  C   UNL     1      -3.631  11.611  18.545  0.00  0.00    +0.000 A 
ATOM      5  C   UNL     1      -4.938  11.978  18.903  0.00  0.00    +0.000 A 
ATOM      6  C   UNL     1      -5.175  12.767  20.029  0.00  0.00    +0.000 A 
ATOM      7  C   UNL     1      -4.107  13.191  20.819  0.00  0.00    +0.000 A 
ATOM      8  C   UNL     1      -2.800  12.823  20.480  0.00  0.00    +0.000 A 
ATOM      9  C   UNL     1      -2.547  12.028  19.347  0.00  0.00    +0.000 A 
ATOM     10  C   UNL     1      -1.104  11.667  18.983  0.00  0.00    +0.000 C 
ENDROOT
BRANCH   1  13
ATOM     11  C   UNL     1       1.091   9.346  18.650  0.00  0.00    +0.000 C 
ATOM     12  O   UNL     1       0.939   9.299  19.860  0.00  0.00    +0.000 OA
ATOM     13  N   UNL     1       0.195   9.852  17.756  0.00  0.00    +0.000 N 
ATOM     14  H   UNL     1       0.461   9.750  16.787  0.00  0.00    +0.000 HD
BRANCH  11  15
ATOM     15  O   UNL     1       2.175   8.892  17.975  0.00  0.00    +0.000 OA
BRANCH  15  17
ATOM     16  C   UNL     1       3.849   7.185  17.529  0.00  0.00    +0.000 C 
ATOM     17  C   UNL     1       2.540   7.523  18.218  0.00  0.00    +0.000 C 
ENDBRANCH  15  17
ENDBRANCH  11  15
ENDBRANCH   1  13
BRANCH   7  18
ATOM     18  C   UNL     1      -4.349  14.010  21.974  0.00  0.00    +0.000 C 
ATOM     19  N   UNL     1      -4.544  14.660  22.913  0.00  0.00    +0.000 NA
ENDBRANCH   7  18
BRANCH  10  20
ATOM     20  C   UNL     1      -0.455  12.928  18.337  0.00  0.00    +0.000 C 
BRANCH  20  21
ATOM     21  C   UNL     1       0.908  13.304  18.863  0.00  0.00    +0.000 A 
ATOM     22  C   UNL     1       1.253  13.014  20.190  0.00  0.00    +0.000 A 
ATOM     23  C   UNL     1       2.445  13.497  20.729  0.00  0.00    +0.000 A 
ATOM     24  C   UNL     1       3.321  14.252  19.943  0.00  0.00    +0.000 A 
ATOM     25 CL   UNL     1       4.733  14.892  20.703  0.00  0.00    +0.000 Cl
ATOM     26  C   UNL     1       3.020  14.482  18.597  0.00  0.00    +0.000 A 
ATOM     27 CL   UNL     1       4.066  15.379  17.554  0.00  0.00    +0.000 Cl
ATOM     28  C   UNL     1       1.822  14.000  18.059  0.00  0.00    +0.000 A 
ENDBRANCH  20  21
ENDBRANCH  10  20
TORSDOF 6
ENDMDL
MODEL 8
REMARK VINA RESULT:      -6.6      3.714      6.438
REMARK  Name = 
REMARK  7 active torsions:
REMARK  status: ('A' for Active; 'I' for Inactive)
REMARK    1  A    between atoms: C_1  and  C_2
REMARK    2  A    between atoms: C_2  and  O_3
REMARK    3  A    between atoms: O_3  and  C_4
REMARK    4  A    between atoms: N_6  and  C_7
REMARK    5  A    between atoms: C_13  and  C_14
REMARK    6  A    between atoms: C_18  and  C_19
REMARK    7  A    between atoms: C_19  and  C_20
REMARK                            x       y       z     vdW  Elec       q    Type
REMARK                         _______ _______ _______ _____ _____    ______ ____
ROOT
ATOM      1  C   UNL     1       6.475   4.505  15.322  0.00  0.00    +0.000 C 
ATOM      2  C   UNL     1       6.062   3.704  16.557  0.00  0.00    +0.000 C 
ATOM      3  C   UNL     1       7.015   4.024  17.704  0.00  0.00    +0.000 C 
ATOM      4  C   UNL     1       7.353   5.492  17.838  0.00  0.00    +0.000 A 
ATOM      5  C   UNL     1       8.057   5.905  18.979  0.00  0.00    +0.000 A 
ATOM      6  C   UNL     1       8.443   7.237  19.137  0.00  0.00    +0.000 A 
ATOM      7  C   UNL     1       8.136   8.173  18.149  0.00  0.00    +0.000 A 
ATOM      8  C   UNL     1       7.444   7.772  17.001  0.00  0.00    +0.000 A 
ATOM      9  C   UNL     1       7.050   6.432  16.829  0.00  0.00    +0.000 A 
ATOM     10  C   UNL     1       6.266   6.029  15.576  0.00  0.00    +0.000 C 
ENDROOT
BRANCH   1  13
ATOM     11  C   UNL     1       6.401   4.051  12.881  0.00  0.00    +0.000 C 
ATOM     12  O   UNL     1       7.459   4.595  12.608  0.00  0.00    +0.000 OA
ATOM     13  N   UNL     1       5.844   3.980  14.124  0.00  0.00    +0.000 N 
ATOM     14  H   UNL     1       4.995   3.435  14.176  0.00  0.00    +0.000 HD
BRANCH  11  15
ATOM     15  O   UNL     1       5.595   3.410  12.002  0.00  0.00    +0.000 OA
BRANCH  15  17
ATOM     16  C   UNL     1       7.128   1.820  10.984  0.00  0.00    +0.000 C 
ATOM     17  C   UNL     1       5.866   2.012  11.805  0.00  0.00    +0.000 C 
ENDBRANCH  15  17
ENDBRANCH  11  15
ENDBRANCH   1  13
BRANCH   7  18
ATOM     18  C   UNL     1       8.526   9.545  18.315  0.00  0.00    +0.000 C 
ATOM     19  N   UNL     1       8.840  10.653  18.436  0.00  0.00    +0.000 NA
ENDBRANCH   7  18
BRANCH  10  20
ATOM     20  C   UNL     1       4.798   6.517  15.766  0.00  0.00    +0.000 C 
BRANCH  20  21
ATOM     21  C   UNL     1       4.085   5.985  16.984  0.00  0.00    +0.000 A 
ATOM     22  C   UNL     1       4.069   6.731  18.170  0.00  0.00    +0.000 A 
ATOM     23  C   UNL     1       3.552   6.179  19.343  0.00  0.00    +0.000 A 
ATOM     24  C   UNL     1       3.019   4.887  19.339  0.00  0.00    +0.000 A 
ATOM     25 CL   UNL     1       2.480   4.236  20.844  0.00  0.00    +0.000 Cl
ATOM     26  C   UNL     1       2.961   4.164  18.143  0.00  0.00    +0.000 A 
ATOM     27 CL   UNL     1       2.290   2.575  18.052  0.00  0.00    +0.000 Cl
ATOM     28  C   UNL     1       3.484   4.718  16.969  0.00  0.00    +0.000 A 
ENDBRANCH  20  21
ENDBRANCH  10  20
TORSDOF 6
ENDMDL
MODEL 9
REMARK VINA RESULT:      -6.5      4.287      6.141
REMARK  Name = 
REMARK  7 active torsions:
REMARK  status: ('A' for Active; 'I' for Inactive)
REMARK    1  A    between atoms: C_1  and  C_2
REMARK    2  A    between atoms: C_2  and  O_3
REMARK    3  A    between atoms: O_3  and  C_4
REMARK    4  A    between atoms: N_6  and  C_7
REMARK    5  A    between atoms: C_13  and  C_14
REMARK    6  A    between atoms: C_18  and  C_19
REMARK    7  A    between atoms: C_19  and  C_20
REMARK                            x       y       z     vdW  Elec       q    Type
REMARK                         _______ _______ _______ _____ _____    ______ ____
ROOT
ATOM      1  C   UNL     1       1.426   8.154  19.093  0.00  0.00    +0.000 C 
ATOM      2  C   UNL     1       1.705   8.234  20.594  0.00  0.00    +0.000 C 
ATOM      3  C   UNL     1       1.417   6.877  21.230  0.00  0.00    +0.000 C 
ATOM      4  C   UNL     1       1.927   5.699  20.431  0.00  0.00    +0.000 A 
ATOM      5  C   UNL     1       1.887   4.430  21.030  0.00  0.00    +0.000 A 
ATOM      6  C   UNL     1       2.296   3.296  20.328  0.00  0.00    +0.000 A 
ATOM      7  C   UNL     1       2.741   3.414  19.011  0.00  0.00    +0.000 A 
ATOM      8  C   UNL     1       2.775   4.672  18.398  0.00  0.00    +0.000 A 
ATOM      9  C   UNL     1       2.365   5.823  19.095  0.00  0.00    +0.000 A 
ATOM     10  C   UNL     1       2.443   7.191  18.409  0.00  0.00    +0.000 C 
ENDROOT
BRANCH   1  13
ATOM     11  C   UNL     1       0.251  10.297  18.651  0.00  0.00    +0.000 C 
ATOM     12  O   UNL     1      -0.782  10.012  19.235  0.00  0.00    +0.000 OA
ATOM     13  N   UNL     1       1.334   9.481  18.508  0.00  0.00    +0.000 N 
ATOM     14  H   UNL     1       2.127   9.906  18.050  0.00  0.00    +0.000 HD
BRANCH  11  15
ATOM     15  O   UNL     1       0.513  11.482  18.048  0.00  0.00    +0.000 OA
BRANCH  15  17
ATOM     16  C   UNL     1       2.447  12.955  18.108  0.00  0.00    +0.000 C 
ATOM     17  C   UNL     1       1.219  12.449  18.843  0.00  0.00    +0.000 C 
ENDBRANCH  15  17
ENDBRANCH  11  15
ENDBRANCH   1  13
BRANCH   7  18
ATOM     18  C   UNL     1       3.169   2.249  18.290  0.00  0.00    +0.000 C 
ATOM     19  N   UNL     1       3.513   1.314  17.698  0.00  0.00    +0.000 NA
ENDBRANCH   7  18
BRANCH  10  20
ATOM     20  C   UNL     1       3.938   7.629  18.408  0.00  0.00    +0.000 C 
BRANCH  20  21
ATOM     21  C   UNL     1       4.834   6.893  17.443  0.00  0.00    +0.000 A 
ATOM     22  C   UNL     1       4.556   6.916  16.070  0.00  0.00    +0.000 A 
ATOM     23  C   UNL     1       5.283   6.111  15.191  0.00  0.00    +0.000 A 
ATOM     24  C   UNL     1       6.314   5.296  15.669  0.00  0.00    +0.000 A 
ATOM     25 CL   UNL     1       7.109   4.262  14.538  0.00  0.00    +0.000 Cl
ATOM     26  C   UNL     1       6.648   5.326  17.026  0.00  0.00    +0.000 A 
ATOM     27 CL   UNL     1       7.928   4.371  17.686  0.00  0.00    +0.000 Cl
ATOM     28  C   UNL     1       5.916   6.130  17.907  0.00  0.00    +0.000 A 
ENDBRANCH  20  21
ENDBRANCH  10  20
TORSDOF 6
ENDMDL
