MODEL 1
REMARK VINA RESULT:      -8.1      0.000      0.000
REMARK  Name = 
REMARK  10 active torsions:
REMARK  status: ('A' for Active; 'I' for Inactive)
REMARK    1  A    between atoms: C_1  and  O_2
REMARK    2  A    between atoms: O_2  and  C_3
REMARK    3  A    between atoms: C_8  and  C_9
REMARK    4  A    between atoms: C_9  and  C_10
REMARK    5  A    between atoms: C_10  and  C_11
REMARK    6  A    between atoms: C_11  and  N_12
REMARK    7  A    between atoms: C_15  and  C_16
REMARK    8  A    between atoms: C_15  and  C_17
REMARK    9  A    between atoms: C_21  and  O_22
REMARK   10  A    between atoms: C_24  and  C_25
REMARK                            x       y       z     vdW  Elec       q    Type
REMARK                         _______ _______ _______ _____ _____    ______ ____
ROOT
ATOM      1  N   UNL     1       7.326   6.686  16.957  0.00  0.00    +0.000 NA
ATOM      2  C   UNL     1       7.479   5.422  17.681  0.00  0.00    +0.000 C 
ATOM      3  C   UNL     1       6.190   4.921  18.339  0.00  0.00    +0.000 C 
ATOM      4  C   UNL     1       4.957   4.814  17.387  0.00  0.00    +0.000 C 
ATOM      5  C   UNL     1       5.183   3.618  16.419  0.00  0.00    +0.000 C 
ATOM      6  C   UNL     1       4.850   6.134  16.533  0.00  0.00    +0.000 C 
ATOM      7  C   UNL     1       4.135   7.291  17.262  0.00  0.00    +0.000 C 
ATOM      8  C   UNL     1       6.236   6.555  15.974  0.00  0.00    +0.000 C 
ENDROOT
BRANCH   4   9
ATOM      9  C   UNL     1       3.644   4.519  18.157  0.00  0.00    +0.000 A 
ATOM     10  C   UNL     1       2.503   3.975  17.535  0.00  0.00    +0.000 A 
ATOM     11  C   UNL     1       1.350   3.665  18.262  0.00  0.00    +0.000 A 
ATOM     12  C   UNL     1       1.299   3.906  19.631  0.00  0.00    +0.000 A 
ATOM     13  C   UNL     1       2.403   4.471  20.256  0.00  0.00    +0.000 A 
ATOM     14  C   UNL     1       3.558   4.777  19.539  0.00  0.00    +0.000 A 
BRANCH  13  15
ATOM     15  O   UNL     1       2.398   4.739  21.593  0.00  0.00    +0.000 OA
ATOM     16  H   UNL     1       2.209   3.913  22.071  0.00  0.00    +0.000 HD
ENDBRANCH  13  15
ENDBRANCH   4   9
BRANCH   1  17
ATOM     17  C   UNL     1       7.151   7.875  17.803  0.00  0.00    +0.000 C 
BRANCH  17  18
ATOM     18  C   UNL     1       8.192   8.984  17.706  0.00  0.00    +0.000 C 
BRANCH  18  19
ATOM     19  C   UNL     1       8.934   9.270  19.009  0.00  0.00    +0.000 C 
BRANCH  19  25
ATOM     20  C   UNL     1       9.498  11.516  20.102  0.00  0.00    +0.000 A 
ATOM     21  C   UNL     1      10.169  12.745  20.046  0.00  0.00    +0.000 A 
ATOM     22  C   UNL     1      10.732  13.189  18.849  0.00  0.00    +0.000 A 
ATOM     23  C   UNL     1      10.651  12.397  17.707  0.00  0.00    +0.000 A 
ATOM     24  C   UNL     1      10.032  11.149  17.768  0.00  0.00    +0.000 A 
ATOM     25  C   UNL     1       9.466  10.686  18.968  0.00  0.00    +0.000 A 
BRANCH  20  27
ATOM     26  C   UNL     1       8.725  12.032  22.266  0.00  0.00    +0.000 C 
ATOM     27  O   UNL     1       8.907  11.051  21.246  0.00  0.00    +0.000 OA
ENDBRANCH  20  27
ENDBRANCH  19  25
ENDBRANCH  18  19
ENDBRANCH  17  18
ENDBRANCH   1  17
TORSDOF 7
ENDMDL
MODEL 2
REMARK VINA RESULT:      -8.0      0.907      1.291
REMARK  Name = 
REMARK  10 active torsions:
REMARK  status: ('A' for Active; 'I' for Inactive)
REMARK    1  A    between atoms: C_1  and  O_2
REMARK    2  A    between atoms: O_2  and  C_3
REMARK    3  A    between atoms: C_8  and  C_9
REMARK    4  A    between atoms: C_9  and  C_10
REMARK    5  A    between atoms: C_10  and  C_11
REMARK    6  A    between atoms: C_11  and  N_12
REMARK    7  A    between atoms: C_15  and  C_16
REMARK    8  A    between atoms: C_15  and  C_17
REMARK    9  A    between atoms: C_21  and  O_22
REMARK   10  A    between atoms: C_24  and  C_25
REMARK                            x       y       z     vdW  Elec       q    Type
REMARK                         _______ _______ _______ _____ _____    ______ ____
ROOT
ATOM      1  N   UNL     1       7.084   6.754  16.890  0.00  0.00    +0.000 NA
ATOM      2  C   UNL     1       7.346   5.530  17.648  0.00  0.00    +0.000 C 
ATOM      3  C   UNL     1       6.144   5.023  18.450  0.00  0.00    +0.000 C 
ATOM      4  C   UNL     1       4.829   4.839  17.628  0.00  0.00    +0.000 C 
ATOM      5  C   UNL     1       4.998   3.607  16.695  0.00  0.00    +0.000 C 
ATOM      6  C   UNL     1       4.597   6.116  16.735  0.00  0.00    +0.000 C 
ATOM      7  C   UNL     1       3.920   7.283  17.481  0.00  0.00    +0.000 C 
ATOM      8  C   UNL     1       5.908   6.549  16.025  0.00  0.00    +0.000 C 
ENDROOT
BRANCH   4   9
ATOM      9  C   UNL     1       3.607   4.541  18.536  0.00  0.00    +0.000 A 
ATOM     10  C   UNL     1       3.446   5.122  19.809  0.00  0.00    +0.000 A 
ATOM     11  C   UNL     1       2.308   4.882  20.585  0.00  0.00    +0.000 A 
ATOM     12  C   UNL     1       1.305   4.040  20.116  0.00  0.00    +0.000 A 
ATOM     13  C   UNL     1       1.461   3.433  18.877  0.00  0.00    +0.000 A 
ATOM     14  C   UNL     1       2.590   3.673  18.095  0.00  0.00    +0.000 A 
BRANCH  13  15
ATOM     15  O   UNL     1       0.513   2.590  18.378  0.00  0.00    +0.000 OA
ATOM     16  H   UNL     1       0.654   1.707  18.761  0.00  0.00    +0.000 HD
ENDBRANCH  13  15
ENDBRANCH   4   9
BRANCH   1  17
ATOM     17  C   UNL     1       6.953   7.975  17.698  0.00  0.00    +0.000 C 
BRANCH  17  18
ATOM     18  C   UNL     1       8.080   9.000  17.638  0.00  0.00    +0.000 C 
BRANCH  18  19
ATOM     19  C   UNL     1       8.818   9.207  18.958  0.00  0.00    +0.000 C 
BRANCH  19  25
ATOM     20  C   UNL     1       9.548  11.397  20.066  0.00  0.00    +0.000 A 
ATOM     21  C   UNL     1      10.338  12.554  20.035  0.00  0.00    +0.000 A 
ATOM     22  C   UNL     1      10.998  12.929  18.864  0.00  0.00    +0.000 A 
ATOM     23  C   UNL     1      10.893  12.139  17.724  0.00  0.00    +0.000 A 
ATOM     24  C   UNL     1      10.152  10.958  17.761  0.00  0.00    +0.000 A 
ATOM     25  C   UNL     1       9.488  10.564  18.935  0.00  0.00    +0.000 A 
BRANCH  20  27
ATOM     26  C   UNL     1       8.819  11.971  22.230  0.00  0.00    +0.000 C 
ATOM     27  O   UNL     1       8.861  11.003  21.182  0.00  0.00    +0.000 OA
ENDBRANCH  20  27
ENDBRANCH  19  25
ENDBRANCH  18  19
ENDBRANCH  17  18
ENDBRANCH   1  17
TORSDOF 7
ENDMDL
MODEL 3
REMARK VINA RESULT:      -8.0      1.394      2.257
REMARK  Name = 
REMARK  10 active torsions:
REMARK  status: ('A' for Active; 'I' for Inactive)
REMARK    1  A    between atoms: C_1  and  O_2
REMARK    2  A    between atoms: O_2  and  C_3
REMARK    3  A    between atoms: C_8  and  C_9
REMARK    4  A    between atoms: C_9  and  C_10
REMARK    5  A    between atoms: C_10  and  C_11
REMARK    6  A    between atoms: C_11  and  N_12
REMARK    7  A    between atoms: C_15  and  C_16
REMARK    8  A    between atoms: C_15  and  C_17
REMARK    9  A    between atoms: C_21  and  O_22
REMARK   10  A    between atoms: C_24  and  C_25
REMARK                            x       y       z     vdW  Elec       q    Type
REMARK                         _______ _______ _______ _____ _____    ______ ____
ROOT
ATOM      1  N   UNL     1       7.204   6.672  16.888  0.00  0.00    +0.000 NA
ATOM      2  C   UNL     1       7.434   5.480  17.707  0.00  0.00    +0.000 C 
ATOM      3  C   UNL     1       6.207   5.023  18.502  0.00  0.00    +0.000 C 
ATOM      4  C   UNL     1       4.909   4.817  17.659  0.00  0.00    +0.000 C 
ATOM      5  C   UNL     1       5.085   3.542  16.786  0.00  0.00    +0.000 C 
ATOM      6  C   UNL     1       4.714   6.055  16.704  0.00  0.00    +0.000 C 
ATOM      7  C   UNL     1       4.034   7.262  17.380  0.00  0.00    +0.000 C 
ATOM      8  C   UNL     1       6.046   6.441  16.006  0.00  0.00    +0.000 C 
ENDROOT
BRANCH   4   9
ATOM      9  C   UNL     1       3.663   4.575  18.550  0.00  0.00    +0.000 A 
ATOM     10  C   UNL     1       3.511   5.163  19.820  0.00  0.00    +0.000 A 
ATOM     11  C   UNL     1       2.353   4.974  20.581  0.00  0.00    +0.000 A 
ATOM     12  C   UNL     1       1.321   4.177  20.099  0.00  0.00    +0.000 A 
ATOM     13  C   UNL     1       1.466   3.563  18.862  0.00  0.00    +0.000 A 
ATOM     14  C   UNL     1       2.615   3.751  18.096  0.00  0.00    +0.000 A 
BRANCH  13  15
ATOM     15  O   UNL     1       0.489   2.761  18.351  0.00  0.00    +0.000 OA
ATOM     16  H   UNL     1       0.614   2.699  17.388  0.00  0.00    +0.000 HD
ENDBRANCH  13  15
ENDBRANCH   4   9
BRANCH   1  17
ATOM     17  C   UNL     1       7.070   7.929  17.637  0.00  0.00    +0.000 C 
BRANCH  17  18
ATOM     18  C   UNL     1       8.327   8.543  18.241  0.00  0.00    +0.000 C 
BRANCH  18  19
ATOM     19  C   UNL     1       8.635   9.958  17.759  0.00  0.00    +0.000 C 
BRANCH  19  25
ATOM     20  C   UNL     1      10.389  11.639  18.568  0.00  0.00    +0.000 A 
ATOM     21  C   UNL     1      10.920  12.417  19.607  0.00  0.00    +0.000 A 
ATOM     22  C   UNL     1      10.524  12.198  20.927  0.00  0.00    +0.000 A 
ATOM     23  C   UNL     1       9.579  11.219  21.216  0.00  0.00    +0.000 A 
ATOM     24  C   UNL     1       9.006  10.477  20.183  0.00  0.00    +0.000 A 
ATOM     25  C   UNL     1       9.389  10.691  18.848  0.00  0.00    +0.000 A 
BRANCH  20  27
ATOM     26  C   UNL     1      11.278  13.091  16.941  0.00  0.00    +0.000 C 
ATOM     27  O   UNL     1      10.765  11.799  17.262  0.00  0.00    +0.000 OA
ENDBRANCH  20  27
ENDBRANCH  19  25
ENDBRANCH  18  19
ENDBRANCH  17  18
ENDBRANCH   1  17
TORSDOF 7
ENDMDL
MODEL 4
REMARK VINA RESULT:      -8.0      1.068      1.858
REMARK  Name = 
REMARK  10 active torsions:
REMARK  status: ('A' for Active; 'I' for Inactive)
REMARK    1  A    between atoms: C_1  and  O_2
REMARK    2  A    between atoms: O_2  and  C_3
REMARK    3  A    between atoms: C_8  and  C_9
REMARK    4  A    between atoms: C_9  and  C_10
REMARK    5  A    between atoms: C_10  and  C_11
REMARK    6  A    between atoms: C_11  and  N_12
REMARK    7  A    between atoms: C_15  and  C_16
REMARK    8  A    between atoms: C_15  and  C_17
REMARK    9  A    between atoms: C_21  and  O_22
REMARK   10  A    between atoms: C_24  and  C_25
REMARK                            x       y       z     vdW  Elec       q    Type
REMARK                         _______ _______ _______ _____ _____    ______ ____
ROOT
ATOM      1  N   UNL     1       7.406   6.675  16.920  0.00  0.00    +0.000 NA
ATOM      2  C   UNL     1       7.540   5.469  17.739  0.00  0.00    +0.000 C 
ATOM      3  C   UNL     1       6.231   5.009  18.389  0.00  0.00    +0.000 C 
ATOM      4  C   UNL     1       5.032   4.825  17.407  0.00  0.00    +0.000 C 
ATOM      5  C   UNL     1       5.294   3.562  16.538  0.00  0.00    +0.000 C 
ATOM      6  C   UNL     1       4.948   6.078  16.457  0.00  0.00    +0.000 C 
ATOM      7  C   UNL     1       4.204   7.280  17.075  0.00  0.00    +0.000 C 
ATOM      8  C   UNL     1       6.349   6.466  15.914  0.00  0.00    +0.000 C 
ENDROOT
BRANCH   4   9
ATOM      9  C   UNL     1       3.695   4.577  18.154  0.00  0.00    +0.000 A 
ATOM     10  C   UNL     1       2.557   4.044  17.519  0.00  0.00    +0.000 A 
ATOM     11  C   UNL     1       1.380   3.777  18.227  0.00  0.00    +0.000 A 
ATOM     12  C   UNL     1       1.303   4.054  19.587  0.00  0.00    +0.000 A 
ATOM     13  C   UNL     1       2.405   4.610  20.224  0.00  0.00    +0.000 A 
ATOM     14  C   UNL     1       3.583   4.872  19.527  0.00  0.00    +0.000 A 
BRANCH  13  15
ATOM     15  O   UNL     1       2.376   4.911  21.553  0.00  0.00    +0.000 OA
ATOM     16  H   UNL     1       1.449   5.019  21.824  0.00  0.00    +0.000 HD
ENDBRANCH  13  15
ENDBRANCH   4   9
BRANCH   1  17
ATOM     17  C   UNL     1       7.198   7.922  17.670  0.00  0.00    +0.000 C 
BRANCH  17  18
ATOM     18  C   UNL     1       8.424   8.642  18.221  0.00  0.00    +0.000 C 
BRANCH  18  19
ATOM     19  C   UNL     1       8.601  10.069  17.710  0.00  0.00    +0.000 C 
BRANCH  19  25
ATOM     20  C   UNL     1      10.054  12.039  18.461  0.00  0.00    +0.000 A 
ATOM     21  C   UNL     1      10.541  12.847  19.498  0.00  0.00    +0.000 A 
ATOM     22  C   UNL     1      10.376  12.464  20.829  0.00  0.00    +0.000 A 
ATOM     23  C   UNL     1       9.704  11.285  21.135  0.00  0.00    +0.000 A 
ATOM     24  C   UNL     1       9.170  10.502  20.112  0.00  0.00    +0.000 A 
ATOM     25  C   UNL     1       9.321  10.879  18.766  0.00  0.00    +0.000 A 
BRANCH  20  27
ATOM     26  C   UNL     1      11.332  13.202  16.861  0.00  0.00    +0.000 C 
ATOM     27  O   UNL     1      10.214  12.360  17.140  0.00  0.00    +0.000 OA
ENDBRANCH  20  27
ENDBRANCH  19  25
ENDBRANCH  18  19
ENDBRANCH  17  18
ENDBRANCH   1  17
TORSDOF 7
ENDMDL
MODEL 5
REMARK VINA RESULT:      -7.8      5.260      6.861
REMARK  Name = 
REMARK  10 active torsions:
REMARK  status: ('A' for Active; 'I' for Inactive)
REMARK    1  A    between atoms: C_1  and  O_2
REMARK    2  A    between atoms: O_2  and  C_3
REMARK    3  A    between atoms: C_8  and  C_9
REMARK    4  A    between atoms: C_9  and  C_10
REMARK    5  A    between atoms: C_10  and  C_11
REMARK    6  A    between atoms: C_11  and  N_12
REMARK    7  A    between atoms: C_15  and  C_16
REMARK    8  A    between atoms: C_15  and  C_17
REMARK    9  A    between atoms: C_21  and  O_22
REMARK   10  A    between atoms: C_24  and  C_25
REMARK                            x       y       z     vdW  Elec       q    Type
REMARK                         _______ _______ _______ _____ _____    ______ ____
ROOT
ATOM      1  N   UNL     1       2.140   3.388  20.576  0.00  0.00    +0.000 NA
ATOM      2  C   UNL     1       1.412   3.307  19.308  0.00  0.00    +0.000 C 
ATOM      3  C   UNL     1       2.167   3.902  18.116  0.00  0.00    +0.000 C 
ATOM      4  C   UNL     1       3.613   3.353  17.906  0.00  0.00    +0.000 C 
ATOM      5  C   UNL     1       3.516   1.889  17.389  0.00  0.00    +0.000 C 
ATOM      6  C   UNL     1       4.367   3.345  19.290  0.00  0.00    +0.000 C 
ATOM      7  C   UNL     1       4.983   4.707  19.671  0.00  0.00    +0.000 C 
ATOM      8  C   UNL     1       3.468   2.768  20.416  0.00  0.00    +0.000 C 
ENDROOT
BRANCH   4   9
ATOM      9  C   UNL     1       4.394   4.151  16.829  0.00  0.00    +0.000 A 
ATOM     10  C   UNL     1       4.455   5.558  16.822  0.00  0.00    +0.000 A 
ATOM     11  C   UNL     1       5.212   6.254  15.874  0.00  0.00    +0.000 A 
ATOM     12  C   UNL     1       5.915   5.561  14.894  0.00  0.00    +0.000 A 
ATOM     13  C   UNL     1       5.841   4.174  14.866  0.00  0.00    +0.000 A 
ATOM     14  C   UNL     1       5.094   3.475  15.812  0.00  0.00    +0.000 A 
BRANCH  13  15
ATOM     15  O   UNL     1       6.502   3.450  13.919  0.00  0.00    +0.000 OA
ATOM     16  H   UNL     1       5.885   3.261  13.191  0.00  0.00    +0.000 HD
ENDBRANCH  13  15
ENDBRANCH   4   9
BRANCH   1  17
ATOM     17  C   UNL     1       2.241   4.735  21.155  0.00  0.00    +0.000 C 
BRANCH  17  18
ATOM     18  C   UNL     1       1.244   5.792  20.692  0.00  0.00    +0.000 C 
BRANCH  18  19
ATOM     19  C   UNL     1       1.566   7.210  21.157  0.00  0.00    +0.000 C 
BRANCH  19  25
ATOM     20  C   UNL     1       0.952   9.391  19.962  0.00  0.00    +0.000 A 
ATOM     21  C   UNL     1       1.148  10.268  18.887  0.00  0.00    +0.000 A 
ATOM     22  C   UNL     1       1.883   9.867  17.771  0.00  0.00    +0.000 A 
ATOM     23  C   UNL     1       2.447   8.595  17.732  0.00  0.00    +0.000 A 
ATOM     24  C   UNL     1       2.302   7.735  18.819  0.00  0.00    +0.000 A 
ATOM     25  C   UNL     1       1.571   8.128  19.953  0.00  0.00    +0.000 A 
BRANCH  20  27
ATOM     26  C   UNL     1       0.057  11.133  21.269  0.00  0.00    +0.000 C 
ATOM     27  O   UNL     1       0.217   9.730  21.066  0.00  0.00    +0.000 OA
ENDBRANCH  20  27
ENDBRANCH  19  25
ENDBRANCH  18  19
ENDBRANCH  17  18
ENDBRANCH   1  17
TORSDOF 7
ENDMDL
MODEL 6
REMARK VINA RESULT:      -7.8      1.301      1.667
REMARK  Name = 
REMARK  10 active torsions:
REMARK  status: ('A' for Active; 'I' for Inactive)
REMARK    1  A    between atoms: C_1  and  O_2
REMARK    2  A    between atoms: O_2  and  C_3
REMARK    3  A    between atoms: C_8  and  C_9
REMARK    4  A    between atoms: C_9  and  C_10
REMARK    5  A    between atoms: C_10  and  C_11
REMARK    6  A    between atoms: C_11  and  N_12
REMARK    7  A    between atoms: C_15  and  C_16
REMARK    8  A    between atoms: C_15  and  C_17
REMARK    9  A    between atoms: C_21  and  O_22
REMARK   10  A    between atoms: C_24  and  C_25
REMARK                            x       y       z     vdW  Elec       q    Type
REMARK                         _______ _______ _______ _____ _____    ______ ____
ROOT
ATOM      1  N   UNL     1       7.342   6.550  17.003  0.00  0.00    +0.000 NA
ATOM      2  C   UNL     1       7.465   5.264  17.691  0.00  0.00    +0.000 C 
ATOM      3  C   UNL     1       6.164   4.773  18.333  0.00  0.00    +0.000 C 
ATOM      4  C   UNL     1       4.931   4.720  17.377  0.00  0.00    +0.000 C 
ATOM      5  C   UNL     1       5.131   3.547  16.376  0.00  0.00    +0.000 C 
ATOM      6  C   UNL     1       4.854   6.066  16.562  0.00  0.00    +0.000 C 
ATOM      7  C   UNL     1       4.164   7.217  17.322  0.00  0.00    +0.000 C 
ATOM      8  C   UNL     1       6.250   6.472  16.016  0.00  0.00    +0.000 C 
ENDROOT
BRANCH   4   9
ATOM      9  C   UNL     1       3.610   4.432  18.138  0.00  0.00    +0.000 A 
ATOM     10  C   UNL     1       2.444   3.978  17.491  0.00  0.00    +0.000 A 
ATOM     11  C   UNL     1       1.282   3.671  18.206  0.00  0.00    +0.000 A 
ATOM     12  C   UNL     1       1.249   3.826  19.588  0.00  0.00    +0.000 A 
ATOM     13  C   UNL     1       2.379   4.303  20.239  0.00  0.00    +0.000 A 
ATOM     14  C   UNL     1       3.542   4.605  19.533  0.00  0.00    +0.000 A 
BRANCH  13  15
ATOM     15  O   UNL     1       2.394   4.484  21.590  0.00  0.00    +0.000 OA
ATOM     16  H   UNL     1       3.279   4.257  21.922  0.00  0.00    +0.000 HD
ENDBRANCH  13  15
ENDBRANCH   4   9
BRANCH   1  17
ATOM     17  C   UNL     1       7.191   7.718  17.882  0.00  0.00    +0.000 C 
BRANCH  17  18
ATOM     18  C   UNL     1       8.398   8.628  18.081  0.00  0.00    +0.000 C 
BRANCH  18  19
ATOM     19  C   UNL     1       8.255  10.014  17.458  0.00  0.00    +0.000 C 
BRANCH  19  25
ATOM     20  C   UNL     1       8.723  12.400  18.260  0.00  0.00    +0.000 A 
ATOM     21  C   UNL     1       9.278  13.259  19.218  0.00  0.00    +0.000 A 
ATOM     22  C   UNL     1      10.142  12.764  20.196  0.00  0.00    +0.000 A 
ATOM     23  C   UNL     1      10.439  11.405  20.237  0.00  0.00    +0.000 A 
ATOM     24  C   UNL     1       9.850  10.536  19.319  0.00  0.00    +0.000 A 
ATOM     25  C   UNL     1       8.972  11.019  18.334  0.00  0.00    +0.000 A 
BRANCH  20  27
ATOM     26  C   UNL     1       7.145  14.016  17.591  0.00  0.00    +0.000 C 
ATOM     27  O   UNL     1       7.892  12.844  17.267  0.00  0.00    +0.000 OA
ENDBRANCH  20  27
ENDBRANCH  19  25
ENDBRANCH  18  19
ENDBRANCH  17  18
ENDBRANCH   1  17
TORSDOF 7
ENDMDL
MODEL 7
REMARK VINA RESULT:      -7.7      1.296      1.519
REMARK  Name = 
REMARK  10 active torsions:
REMARK  status: ('A' for Active; 'I' for Inactive)
REMARK    1  A    between atoms: C_1  and  O_2
REMARK    2  A    between atoms: O_2  and  C_3
REMARK    3  A    between atoms: C_8  and  C_9
REMARK    4  A    between atoms: C_9  and  C_10
REMARK    5  A    between atoms: C_10  and  C_11
REMARK    6  A    between atoms: C_11  and  N_12
REMARK    7  A    between atoms: C_15  and  C_16
REMARK    8  A    between atoms: C_15  and  C_17
REMARK    9  A    between atoms: C_21  and  O_22
REMARK   10  A    between atoms: C_24  and  C_25
REMARK                            x       y       z     vdW  Elec       q    Type
REMARK                         _______ _______ _______ _____ _____    ______ ____
ROOT
ATOM      1  N   UNL     1       7.441   6.380  16.891  0.00  0.00    +0.000 NA
ATOM      2  C   UNL     1       7.588   5.001  17.361  0.00  0.00    +0.000 C 
ATOM      3  C   UNL     1       6.345   4.446  18.063  0.00  0.00    +0.000 C 
ATOM      4  C   UNL     1       5.016   4.566  17.253  0.00  0.00    +0.000 C 
ATOM      5  C   UNL     1       5.064   3.555  16.072  0.00  0.00    +0.000 C 
ATOM      6  C   UNL     1       4.904   6.022  16.661  0.00  0.00    +0.000 C 
ATOM      7  C   UNL     1       4.343   7.057  17.656  0.00  0.00    +0.000 C 
ATOM      8  C   UNL     1       6.248   6.476  16.030  0.00  0.00    +0.000 C 
ENDROOT
BRANCH   4   9
ATOM      9  C   UNL     1       3.774   4.193  18.104  0.00  0.00    +0.000 A 
ATOM     10  C   UNL     1       2.460   4.262  17.601  0.00  0.00    +0.000 A 
ATOM     11  C   UNL     1       1.360   3.866  18.370  0.00  0.00    +0.000 A 
ATOM     12  C   UNL     1       1.543   3.408  19.670  0.00  0.00    +0.000 A 
ATOM     13  C   UNL     1       2.829   3.363  20.193  0.00  0.00    +0.000 A 
ATOM     14  C   UNL     1       3.930   3.750  19.431  0.00  0.00    +0.000 A 
BRANCH  13  15
ATOM     15  O   UNL     1       3.060   2.934  21.467  0.00  0.00    +0.000 OA
ATOM     16  H   UNL     1       2.223   2.970  21.960  0.00  0.00    +0.000 HD
ENDBRANCH  13  15
ENDBRANCH   4   9
BRANCH   1  17
ATOM     17  C   UNL     1       7.429   7.403  17.945  0.00  0.00    +0.000 C 
BRANCH  17  18
ATOM     18  C   UNL     1       7.872   8.815  17.580  0.00  0.00    +0.000 C 
BRANCH  18  19
ATOM     19  C   UNL     1       8.840   9.452  18.574  0.00  0.00    +0.000 C 
BRANCH  19  25
ATOM     20  C   UNL     1      10.096  11.682  18.532  0.00  0.00    +0.000 A 
ATOM     21  C   UNL     1      10.184  13.004  18.073  0.00  0.00    +0.000 A 
ATOM     22  C   UNL     1       9.094  13.609  17.447  0.00  0.00    +0.000 A 
ATOM     23  C   UNL     1       7.917  12.891  17.254  0.00  0.00    +0.000 A 
ATOM     24  C   UNL     1       7.840  11.559  17.659  0.00  0.00    +0.000 A 
ATOM     25  C   UNL     1       8.932  10.934  18.284  0.00  0.00    +0.000 A 
BRANCH  20  27
ATOM     26  C   UNL     1      12.014  11.928  19.877  0.00  0.00    +0.000 C 
ATOM     27  O   UNL     1      11.129  11.055  19.175  0.00  0.00    +0.000 OA
ENDBRANCH  20  27
ENDBRANCH  19  25
ENDBRANCH  18  19
ENDBRANCH  17  18
ENDBRANCH   1  17
TORSDOF 7
ENDMDL
MODEL 8
REMARK VINA RESULT:      -7.6      1.410      1.873
REMARK  Name = 
REMARK  10 active torsions:
REMARK  status: ('A' for Active; 'I' for Inactive)
REMARK    1  A    between atoms: C_1  and  O_2
REMARK    2  A    between atoms: O_2  and  C_3
REMARK    3  A    between atoms: C_8  and  C_9
REMARK    4  A    between atoms: C_9  and  C_10
REMARK    5  A    between atoms: C_10  and  C_11
REMARK    6  A    between atoms: C_11  and  N_12
REMARK    7  A    between atoms: C_15  and  C_16
REMARK    8  A    between atoms: C_15  and  C_17
REMARK    9  A    between atoms: C_21  and  O_22
REMARK   10  A    between atoms: C_24  and  C_25
REMARK                            x       y       z     vdW  Elec       q    Type
REMARK                         _______ _______ _______ _____ _____    ______ ____
ROOT
ATOM      1  N   UNL     1       7.298   6.474  16.940  0.00  0.00    +0.000 NA
ATOM      2  C   UNL     1       7.458   5.210  17.661  0.00  0.00    +0.000 C 
ATOM      3  C   UNL     1       6.211   4.772  18.435  0.00  0.00    +0.000 C 
ATOM      4  C   UNL     1       4.895   4.716  17.596  0.00  0.00    +0.000 C 
ATOM      5  C   UNL     1       4.980   3.504  16.625  0.00  0.00    +0.000 C 
ATOM      6  C   UNL     1       4.772   6.034  16.742  0.00  0.00    +0.000 C 
ATOM      7  C   UNL     1       4.177   7.226  17.519  0.00  0.00    +0.000 C 
ATOM      8  C   UNL     1       6.120   6.388  16.059  0.00  0.00    +0.000 C 
ENDROOT
BRANCH   4   9
ATOM      9  C   UNL     1       3.643   4.485  18.483  0.00  0.00    +0.000 A 
ATOM     10  C   UNL     1       3.455   5.137  19.717  0.00  0.00    +0.000 A 
ATOM     11  C   UNL     1       2.291   4.955  20.471  0.00  0.00    +0.000 A 
ATOM     12  C   UNL     1       1.291   4.101  20.020  0.00  0.00    +0.000 A 
ATOM     13  C   UNL     1       1.473   3.425  18.821  0.00  0.00    +0.000 A 
ATOM     14  C   UNL     1       2.627   3.606  18.061  0.00  0.00    +0.000 A 
BRANCH  13  15
ATOM     15  O   UNL     1       0.528   2.567  18.342  0.00  0.00    +0.000 OA
ATOM     16  H   UNL     1       0.834   1.656  18.493  0.00  0.00    +0.000 HD
ENDBRANCH  13  15
ENDBRANCH   4   9
BRANCH   1  17
ATOM     17  C   UNL     1       7.252   7.676  17.786  0.00  0.00    +0.000 C 
BRANCH  17  18
ATOM     18  C   UNL     1       8.175   8.837  17.435  0.00  0.00    +0.000 C 
BRANCH  18  19
ATOM     19  C   UNL     1       8.876   9.472  18.633  0.00  0.00    +0.000 C 
BRANCH  19  25
ATOM     20  C   UNL     1      10.019  11.749  18.889  0.00  0.00    +0.000 A 
ATOM     21  C   UNL     1      10.123  13.092  18.502  0.00  0.00    +0.000 A 
ATOM     22  C   UNL     1       9.128  13.682  17.721  0.00  0.00    +0.000 A 
ATOM     23  C   UNL     1       8.036  12.929  17.302  0.00  0.00    +0.000 A 
ATOM     24  C   UNL     1       7.951  11.578  17.638  0.00  0.00    +0.000 A 
ATOM     25  C   UNL     1       8.949  10.969  18.418  0.00  0.00    +0.000 A 
BRANCH  20  27
ATOM     26  C   UNL     1      12.298  11.561  19.451  0.00  0.00    +0.000 C 
ATOM     27  O   UNL     1      10.955  11.134  19.676  0.00  0.00    +0.000 OA
ENDBRANCH  20  27
ENDBRANCH  19  25
ENDBRANCH  18  19
ENDBRANCH  17  18
ENDBRANCH   1  17
TORSDOF 7
ENDMDL
MODEL 9
REMARK VINA RESULT:      -7.6      5.188      7.261
REMARK  Name = 
REMARK  10 active torsions:
REMARK  status: ('A' for Active; 'I' for Inactive)
REMARK    1  A    between atoms: C_1  and  O_2
REMARK    2  A    between atoms: O_2  and  C_3
REMARK    3  A    between atoms: C_8  and  C_9
REMARK    4  A    between atoms: C_9  and  C_10
REMARK    5  A    between atoms: C_10  and  C_11
REMARK    6  A    between atoms: C_11  and  N_12
REMARK    7  A    between atoms: C_15  and  C_16
REMARK    8  A    between atoms: C_15  and  C_17
REMARK    9  A    between atoms: C_21  and  O_22
REMARK   10  A    between atoms: C_24  and  C_25
REMARK                            x       y       z     vdW  Elec       q    Type
REMARK                         _______ _______ _______ _____ _____    ______ ____
ROOT
ATOM      1  N   UNL     1       1.985   3.624  20.583  0.00  0.00    +0.000 NA
ATOM      2  C   UNL     1       1.263   3.592  19.310  0.00  0.00    +0.000 C 
ATOM      3  C   UNL     1       2.066   4.135  18.124  0.00  0.00    +0.000 C 
ATOM      4  C   UNL     1       3.473   3.489  17.924  0.00  0.00    +0.000 C 
ATOM      5  C   UNL     1       3.280   2.035  17.405  0.00  0.00    +0.000 C 
ATOM      6  C   UNL     1       4.214   3.430  19.313  0.00  0.00    +0.000 C 
ATOM      7  C   UNL     1       4.918   4.746  19.700  0.00  0.00    +0.000 C 
ATOM      8  C   UNL     1       3.269   2.915  20.432  0.00  0.00    +0.000 C 
ENDROOT
BRANCH   4   9
ATOM      9  C   UNL     1       4.314   4.233  16.854  0.00  0.00    +0.000 A 
ATOM     10  C   UNL     1       4.437   5.635  16.824  0.00  0.00    +0.000 A 
ATOM     11  C   UNL     1       5.247   6.279  15.883  0.00  0.00    +0.000 A 
ATOM     12  C   UNL     1       5.943   5.539  14.934  0.00  0.00    +0.000 A 
ATOM     13  C   UNL     1       5.808   4.157  14.928  0.00  0.00    +0.000 A 
ATOM     14  C   UNL     1       5.008   3.507  15.867  0.00  0.00    +0.000 A 
BRANCH  13  15
ATOM     15  O   UNL     1       6.459   3.386  14.010  0.00  0.00    +0.000 OA
ATOM     16  H   UNL     1       6.650   3.934  13.229  0.00  0.00    +0.000 HD
ENDBRANCH  13  15
ENDBRANCH   4   9
BRANCH   1  17
ATOM     17  C   UNL     1       2.173   4.960  21.164  0.00  0.00    +0.000 C 
BRANCH  17  18
ATOM     18  C   UNL     1       1.263   6.086  20.684  0.00  0.00    +0.000 C 
BRANCH  18  19
ATOM     19  C   UNL     1       1.999   7.345  20.234  0.00  0.00    +0.000 C 
BRANCH  19  25
ATOM     20  C   UNL     1       0.686   9.504  19.817  0.00  0.00    +0.000 A 
ATOM     21  C   UNL     1      -0.175  10.499  20.298  0.00  0.00    +0.000 A 
ATOM     22  C   UNL     1      -0.435  10.608  21.665  0.00  0.00    +0.000 A 
ATOM     23  C   UNL     1       0.143   9.710  22.556  0.00  0.00    +0.000 A 
ATOM     24  C   UNL     1       0.959   8.684  22.080  0.00  0.00    +0.000 A 
ATOM     25  C   UNL     1       1.224   8.557  20.706  0.00  0.00    +0.000 A 
BRANCH  20  27
ATOM     26  C   UNL     1       2.014  10.255  18.023  0.00  0.00    +0.000 C 
ATOM     27  O   UNL     1       0.993   9.374  18.489  0.00  0.00    +0.000 OA
ENDBRANCH  20  27
ENDBRANCH  19  25
ENDBRANCH  18  19
ENDBRANCH  17  18
ENDBRANCH   1  17
TORSDOF 7
ENDMDL
