MODEL 1
REMARK VINA RESULT:      -7.7      0.000      0.000
REMARK  Name = 
REMARK  6 active torsions:
REMARK  status: ('A' for Active; 'I' for Inactive)
REMARK    1  A    between atoms: C_1  and  O_2
REMARK    2  A    between atoms: O_2  and  C_3
REMARK    3  A    between atoms: C_8  and  C_9
REMARK    4  A    between atoms: C_9  and  N_10
REMARK    5  A    between atoms: N_13  and  C_14
REMARK    6  A    between atoms: C_14  and  C_15
REMARK                            x       y       z     vdW  Elec       q    Type
REMARK                         _______ _______ _______ _____ _____    ______ ____
ROOT
ATOM      1  N   UNL     1       3.993   4.928  19.196  0.00  0.00    +0.000 NA
ATOM      2  C   UNL     1       3.732   6.260  18.667  0.00  0.00    +0.000 C 
ATOM      3  C   UNL     1       2.364   6.922  18.917  0.00  0.00    +0.000 C 
ATOM      4  N   UNL     1       1.688   6.692  20.200  0.00  0.00    +0.000 NA
ATOM      5  C   UNL     1       1.899   5.334  20.699  0.00  0.00    +0.000 C 
ATOM      6  C   UNL     1       3.192   4.541  20.353  0.00  0.00    +0.000 C 
ENDROOT
BRANCH   1   7
ATOM      7  C   UNL     1       4.199   3.861  18.204  0.00  0.00    +0.000 C 
BRANCH   7  13
ATOM      8  C   UNL     1       6.528   4.500  17.387  0.00  0.00    +0.000 A 
ATOM      9  C   UNL     1       7.422   4.725  16.335  0.00  0.00    +0.000 A 
ATOM     10  C   UNL     1       6.972   4.699  15.005  0.00  0.00    +0.000 A 
ATOM     11  C   UNL     1       5.628   4.475  14.718  0.00  0.00    +0.000 A 
ATOM     12  C   UNL     1       4.731   4.268  15.762  0.00  0.00    +0.000 A 
ATOM     13  C   UNL     1       5.174   4.250  17.098  0.00  0.00    +0.000 A 
BRANCH   8  15
ATOM     14  C   UNL     1       7.601   5.654  19.182  0.00  0.00    +0.000 C 
ATOM     15  O   UNL     1       6.863   4.538  18.718  0.00  0.00    +0.000 OA
ENDBRANCH   8  15
ENDBRANCH   7  13
ENDBRANCH   1   7
BRANCH   4  16
ATOM     16  C   UNL     1       1.868   7.832  21.097  0.00  0.00    +0.000 C 
BRANCH  16  17
ATOM     17  C   UNL     1       0.730   8.817  21.307  0.00  0.00    +0.000 A 
ATOM     18  C   UNL     1       0.331   9.091  22.619  0.00  0.00    +0.000 A 
ATOM     19  C   UNL     1      -0.514  10.162  22.900  0.00  0.00    +0.000 A 
ATOM     20  C   UNL     1      -0.991  10.993  21.879  0.00  0.00    +0.000 A 
ATOM     21  C   UNL     1      -1.766  12.122  22.191  0.00  0.00    +0.000 A 
ATOM     22  C   UNL     1      -2.245  12.961  21.188  0.00  0.00    +0.000 A 
ATOM     23  C   UNL     1      -1.970  12.665  19.857  0.00  0.00    +0.000 A 
ATOM     24  C   UNL     1      -1.192  11.545  19.532  0.00  0.00    +0.000 A 
ATOM     25  C   UNL     1      -0.670  10.699  20.536  0.00  0.00    +0.000 A 
ATOM     26  C   UNL     1       0.187   9.599  20.265  0.00  0.00    +0.000 A 
ENDBRANCH  16  17
ENDBRANCH   4  16
TORSDOF 5
ENDMDL
MODEL 2
REMARK VINA RESULT:      -7.4      0.566      1.438
REMARK  Name = 
REMARK  6 active torsions:
REMARK  status: ('A' for Active; 'I' for Inactive)
REMARK    1  A    between atoms: C_1  and  O_2
REMARK    2  A    between atoms: O_2  and  C_3
REMARK    3  A    between atoms: C_8  and  C_9
REMARK    4  A    between atoms: C_9  and  N_10
REMARK    5  A    between atoms: N_13  and  C_14
REMARK    6  A    between atoms: C_14  and  C_15
REMARK                            x       y       z     vdW  Elec       q    Type
REMARK                         _______ _______ _______ _____ _____    ______ ____
ROOT
ATOM      1  N   UNL     1       4.058   4.585  19.567  0.00  0.00    +0.000 NA
ATOM      2  C   UNL     1       4.135   5.978  19.149  0.00  0.00    +0.000 C 
ATOM      3  C   UNL     1       2.850   6.824  19.089  0.00  0.00    +0.000 C 
ATOM      4  N   UNL     1       1.805   6.603  20.097  0.00  0.00    +0.000 NA
ATOM      5  C   UNL     1       1.687   5.194  20.469  0.00  0.00    +0.000 C 
ATOM      6  C   UNL     1       2.913   4.238  20.402  0.00  0.00    +0.000 C 
ENDROOT
BRANCH   1   7
ATOM      7  C   UNL     1       4.407   3.580  18.551  0.00  0.00    +0.000 C 
BRANCH   7  13
ATOM      8  C   UNL     1       6.573   4.517  17.586  0.00  0.00    +0.000 A 
ATOM      9  C   UNL     1       7.334   4.913  16.480  0.00  0.00    +0.000 A 
ATOM     10  C   UNL     1       6.761   4.940  15.199  0.00  0.00    +0.000 A 
ATOM     11  C   UNL     1       5.424   4.600  15.016  0.00  0.00    +0.000 A 
ATOM     12  C   UNL     1       4.657   4.223  16.114  0.00  0.00    +0.000 A 
ATOM     13  C   UNL     1       5.228   4.150  17.399  0.00  0.00    +0.000 A 
BRANCH   8  15
ATOM     14  C   UNL     1       7.797   5.591  19.333  0.00  0.00    +0.000 C 
ATOM     15  O   UNL     1       7.031   4.489  18.879  0.00  0.00    +0.000 OA
ENDBRANCH   8  15
ENDBRANCH   7  13
ENDBRANCH   1   7
BRANCH   4  16
ATOM     16  C   UNL     1       1.860   7.628  21.138  0.00  0.00    +0.000 C 
BRANCH  16  17
ATOM     17  C   UNL     1       1.072   8.917  20.973  0.00  0.00    +0.000 A 
ATOM     18  C   UNL     1       0.730   9.318  19.678  0.00  0.00    +0.000 A 
ATOM     19  C   UNL     1      -0.201  10.331  19.465  0.00  0.00    +0.000 A 
ATOM     20  C   UNL     1      -0.820  10.981  20.540  0.00  0.00    +0.000 A 
ATOM     21  C   UNL     1      -1.824  11.935  20.307  0.00  0.00    +0.000 A 
ATOM     22  C   UNL     1      -2.452  12.586  21.366  0.00  0.00    +0.000 A 
ATOM     23  C   UNL     1      -2.065  12.304  22.672  0.00  0.00    +0.000 A 
ATOM     24  C   UNL     1      -1.069  11.349  22.919  0.00  0.00    +0.000 A 
ATOM     25  C   UNL     1      -0.442  10.654  21.861  0.00  0.00    +0.000 A 
ATOM     26  C   UNL     1       0.515   9.622  22.061  0.00  0.00    +0.000 A 
ENDBRANCH  16  17
ENDBRANCH   4  16
TORSDOF 5
ENDMDL
MODEL 3
REMARK VINA RESULT:      -7.3      1.039      1.960
REMARK  Name = 
REMARK  6 active torsions:
REMARK  status: ('A' for Active; 'I' for Inactive)
REMARK    1  A    between atoms: C_1  and  O_2
REMARK    2  A    between atoms: O_2  and  C_3
REMARK    3  A    between atoms: C_8  and  C_9
REMARK    4  A    between atoms: C_9  and  N_10
REMARK    5  A    between atoms: N_13  and  C_14
REMARK    6  A    between atoms: C_14  and  C_15
REMARK                            x       y       z     vdW  Elec       q    Type
REMARK                         _______ _______ _______ _____ _____    ______ ____
ROOT
ATOM      1  N   UNL     1       3.143   3.596  18.401  0.00  0.00    +0.000 NA
ATOM      2  C   UNL     1       3.337   3.882  19.816  0.00  0.00    +0.000 C 
ATOM      3  C   UNL     1       3.440   5.344  20.287  0.00  0.00    +0.000 C 
ATOM      4  N   UNL     1       2.621   6.365  19.621  0.00  0.00    +0.000 NA
ATOM      5  C   UNL     1       2.481   6.110  18.188  0.00  0.00    +0.000 C 
ATOM      6  C   UNL     1       2.526   4.662  17.619  0.00  0.00    +0.000 C 
ENDROOT
BRANCH   1   7
ATOM      7  C   UNL     1       4.243   2.891  17.722  0.00  0.00    +0.000 C 
BRANCH   7  13
ATOM      8  C   UNL     1       6.202   4.496  17.431  0.00  0.00    +0.000 A 
ATOM      9  C   UNL     1       7.054   5.227  16.596  0.00  0.00    +0.000 A 
ATOM     10  C   UNL     1       6.822   5.273  15.212  0.00  0.00    +0.000 A 
ATOM     11  C   UNL     1       5.727   4.615  14.657  0.00  0.00    +0.000 A 
ATOM     12  C   UNL     1       4.866   3.901  15.485  0.00  0.00    +0.000 A 
ATOM     13  C   UNL     1       5.109   3.811  16.869  0.00  0.00    +0.000 A 
BRANCH   8  15
ATOM     14  C   UNL     1       7.099   5.408  19.448  0.00  0.00    +0.000 C 
ATOM     15  O   UNL     1       6.325   4.417  18.796  0.00  0.00    +0.000 OA
ENDBRANCH   8  15
ENDBRANCH   7  13
ENDBRANCH   1   7
BRANCH   4  16
ATOM     16  C   UNL     1       1.442   6.691  20.421  0.00  0.00    +0.000 C 
BRANCH  16  17
ATOM     17  C   UNL     1       1.099   8.144  20.705  0.00  0.00    +0.000 A 
ATOM     18  C   UNL     1       1.289   9.078  19.680  0.00  0.00    +0.000 A 
ATOM     19  C   UNL     1       0.758  10.362  19.776  0.00  0.00    +0.000 A 
ATOM     20  C   UNL     1       0.024  10.759  20.900  0.00  0.00    +0.000 A 
ATOM     21  C   UNL     1      -0.581  12.026  20.939  0.00  0.00    +0.000 A 
ATOM     22  C   UNL     1      -1.319  12.433  22.048  0.00  0.00    +0.000 A 
ATOM     23  C   UNL     1      -1.440  11.582  23.141  0.00  0.00    +0.000 A 
ATOM     24  C   UNL     1      -0.848  10.312  23.113  0.00  0.00    +0.000 A 
ATOM     25  C   UNL     1      -0.122   9.867  21.986  0.00  0.00    +0.000 A 
ATOM     26  C   UNL     1       0.431   8.562  21.875  0.00  0.00    +0.000 A 
ENDBRANCH  16  17
ENDBRANCH   4  16
TORSDOF 5
ENDMDL
MODEL 4
REMARK VINA RESULT:      -7.3      1.245      2.596
REMARK  Name = 
REMARK  6 active torsions:
REMARK  status: ('A' for Active; 'I' for Inactive)
REMARK    1  A    between atoms: C_1  and  O_2
REMARK    2  A    between atoms: O_2  and  C_3
REMARK    3  A    between atoms: C_8  and  C_9
REMARK    4  A    between atoms: C_9  and  N_10
REMARK    5  A    between atoms: N_13  and  C_14
REMARK    6  A    between atoms: C_14  and  C_15
REMARK                            x       y       z     vdW  Elec       q    Type
REMARK                         _______ _______ _______ _____ _____    ______ ____
ROOT
ATOM      1  N   UNL     1       2.697   4.362  18.265  0.00  0.00    +0.000 NA
ATOM      2  C   UNL     1       2.254   4.078  19.623  0.00  0.00    +0.000 C 
ATOM      3  C   UNL     1       2.415   5.153  20.714  0.00  0.00    +0.000 C 
ATOM      4  N   UNL     1       2.230   6.564  20.353  0.00  0.00    +0.000 NA
ATOM      5  C   UNL     1       2.732   6.861  19.013  0.00  0.00    +0.000 C 
ATOM      6  C   UNL     1       2.749   5.774  17.900  0.00  0.00    +0.000 C 
ENDROOT
BRANCH   1   7
ATOM      7  C   UNL     1       3.819   3.554  17.762  0.00  0.00    +0.000 C 
BRANCH   7  13
ATOM      8  C   UNL     1       5.851   4.617  16.649  0.00  0.00    +0.000 A 
ATOM      9  C   UNL     1       7.009   5.398  16.736  0.00  0.00    +0.000 A 
ATOM     10  C   UNL     1       7.472   5.842  17.985  0.00  0.00    +0.000 A 
ATOM     11  C   UNL     1       6.800   5.491  19.153  0.00  0.00    +0.000 A 
ATOM     12  C   UNL     1       5.658   4.700  19.074  0.00  0.00    +0.000 A 
ATOM     13  C   UNL     1       5.158   4.281  17.826  0.00  0.00    +0.000 A 
BRANCH   8  15
ATOM     14  C   UNL     1       6.154   4.160  14.325  0.00  0.00    +0.000 C 
ATOM     15  O   UNL     1       5.340   4.107  15.482  0.00  0.00    +0.000 OA
ENDBRANCH   8  15
ENDBRANCH   7  13
ENDBRANCH   1   7
BRANCH   4  16
ATOM     16  C   UNL     1       0.905   7.036  20.754  0.00  0.00    +0.000 C 
BRANCH  16  17
ATOM     17  C   UNL     1       0.659   8.523  20.949  0.00  0.00    +0.000 A 
ATOM     18  C   UNL     1       0.960   9.384  19.889  0.00  0.00    +0.000 A 
ATOM     19  C   UNL     1       0.523  10.707  19.896  0.00  0.00    +0.000 A 
ATOM     20  C   UNL     1      -0.228  11.214  20.964  0.00  0.00    +0.000 A 
ATOM     21  C   UNL     1      -0.739  12.521  20.912  0.00  0.00    +0.000 A 
ATOM     22  C   UNL     1      -1.490  13.039  21.964  0.00  0.00    +0.000 A 
ATOM     23  C   UNL     1      -1.720  12.258  23.092  0.00  0.00    +0.000 A 
ATOM     24  C   UNL     1      -1.222  10.949  23.154  0.00  0.00    +0.000 A 
ATOM     25  C   UNL     1      -0.484  10.394  22.085  0.00  0.00    +0.000 A 
ATOM     26  C   UNL     1      -0.025   9.049  22.065  0.00  0.00    +0.000 A 
ENDBRANCH  16  17
ENDBRANCH   4  16
TORSDOF 5
ENDMDL
MODEL 5
REMARK VINA RESULT:      -7.3      4.480      7.537
REMARK  Name = 
REMARK  6 active torsions:
REMARK  status: ('A' for Active; 'I' for Inactive)
REMARK    1  A    between atoms: C_1  and  O_2
REMARK    2  A    between atoms: O_2  and  C_3
REMARK    3  A    between atoms: C_8  and  C_9
REMARK    4  A    between atoms: C_9  and  N_10
REMARK    5  A    between atoms: N_13  and  C_14
REMARK    6  A    between atoms: C_14  and  C_15
REMARK                            x       y       z     vdW  Elec       q    Type
REMARK                         _______ _______ _______ _____ _____    ______ ____
ROOT
ATOM      1  N   UNL     1       5.741   4.877  16.565  0.00  0.00    +0.000 NA
ATOM      2  C   UNL     1       5.238   6.243  16.492  0.00  0.00    +0.000 C 
ATOM      3  C   UNL     1       5.711   7.281  17.527  0.00  0.00    +0.000 C 
ATOM      4  N   UNL     1       7.097   7.224  18.008  0.00  0.00    +0.000 NA
ATOM      5  C   UNL     1       7.579   5.850  18.141  0.00  0.00    +0.000 C 
ATOM      6  C   UNL     1       7.027   4.712  17.232  0.00  0.00    +0.000 C 
ENDROOT
BRANCH   1   7
ATOM      7  C   UNL     1       4.749   3.833  16.870  0.00  0.00    +0.000 C 
BRANCH   7  13
ATOM      8  C   UNL     1       3.991   3.915  19.303  0.00  0.00    +0.000 A 
ATOM      9  C   UNL     1       3.134   4.419  20.287  0.00  0.00    +0.000 A 
ATOM     10  C   UNL     1       2.056   5.246  19.932  0.00  0.00    +0.000 A 
ATOM     11  C   UNL     1       1.811   5.553  18.597  0.00  0.00    +0.000 A 
ATOM     12  C   UNL     1       2.650   5.040  17.612  0.00  0.00    +0.000 A 
ATOM     13  C   UNL     1       3.760   4.244  17.955  0.00  0.00    +0.000 A 
BRANCH   8  15
ATOM     14  C   UNL     1       4.777   1.831  20.166  0.00  0.00    +0.000 C 
ATOM     15  O   UNL     1       5.049   3.075  19.544  0.00  0.00    +0.000 OA
ENDBRANCH   8  15
ENDBRANCH   7  13
ENDBRANCH   1   7
BRANCH   4  16
ATOM     16  C   UNL     1       7.925   8.223  17.335  0.00  0.00    +0.000 C 
BRANCH  16  17
ATOM     17  C   UNL     1       8.357   9.474  18.081  0.00  0.00    +0.000 A 
ATOM     18  C   UNL     1       9.046   9.316  19.288  0.00  0.00    +0.000 A 
ATOM     19  C   UNL     1       9.695  10.393  19.888  0.00  0.00    +0.000 A 
ATOM     20  C   UNL     1       9.674  11.665  19.303  0.00  0.00    +0.000 A 
ATOM     21  C   UNL     1      10.410  12.717  19.873  0.00  0.00    +0.000 A 
ATOM     22  C   UNL     1      10.404  13.987  19.302  0.00  0.00    +0.000 A 
ATOM     23  C   UNL     1       9.640  14.223  18.163  0.00  0.00    +0.000 A 
ATOM     24  C   UNL     1       8.907  13.181  17.580  0.00  0.00    +0.000 A 
ATOM     25  C   UNL     1       8.924  11.877  18.125  0.00  0.00    +0.000 A 
ATOM     26  C   UNL     1       8.263  10.770  17.530  0.00  0.00    +0.000 A 
ENDBRANCH  16  17
ENDBRANCH   4  16
TORSDOF 5
ENDMDL
MODEL 6
REMARK VINA RESULT:      -7.3      2.010      3.630
REMARK  Name = 
REMARK  6 active torsions:
REMARK  status: ('A' for Active; 'I' for Inactive)
REMARK    1  A    between atoms: C_1  and  O_2
REMARK    2  A    between atoms: O_2  and  C_3
REMARK    3  A    between atoms: C_8  and  C_9
REMARK    4  A    between atoms: C_9  and  N_10
REMARK    5  A    between atoms: N_13  and  C_14
REMARK    6  A    between atoms: C_14  and  C_15
REMARK                            x       y       z     vdW  Elec       q    Type
REMARK                         _______ _______ _______ _____ _____    ______ ____
ROOT
ATOM      1  N   UNL     1       5.017   5.053  16.130  0.00  0.00    +0.000 NA
ATOM      2  C   UNL     1       4.427   4.193  17.147  0.00  0.00    +0.000 C 
ATOM      3  C   UNL     1       4.260   4.721  18.584  0.00  0.00    +0.000 C 
ATOM      4  N   UNL     1       3.920   6.135  18.786  0.00  0.00    +0.000 NA
ATOM      5  C   UNL     1       4.564   7.004  17.803  0.00  0.00    +0.000 C 
ATOM      6  C   UNL     1       4.908   6.487  16.376  0.00  0.00    +0.000 C 
ENDROOT
BRANCH   1   7
ATOM      7  C   UNL     1       6.310   4.618  15.579  0.00  0.00    +0.000 C 
BRANCH   7  13
ATOM      8  C   UNL     1       7.292   4.752  13.231  0.00  0.00    +0.000 A 
ATOM      9  C   UNL     1       7.279   4.355  11.889  0.00  0.00    +0.000 A 
ATOM     10  C   UNL     1       6.245   3.540  11.401  0.00  0.00    +0.000 A 
ATOM     11  C   UNL     1       5.208   3.137  12.238  0.00  0.00    +0.000 A 
ATOM     12  C   UNL     1       5.207   3.543  13.570  0.00  0.00    +0.000 A 
ATOM     13  C   UNL     1       6.258   4.327  14.084  0.00  0.00    +0.000 A 
BRANCH   8  15
ATOM     14  C   UNL     1       9.229   6.118  12.942  0.00  0.00    +0.000 C 
ATOM     15  O   UNL     1       8.237   5.573  13.793  0.00  0.00    +0.000 OA
ENDBRANCH   8  15
ENDBRANCH   7  13
ENDBRANCH   1   7
BRANCH   4  16
ATOM     16  C   UNL     1       2.495   6.293  19.073  0.00  0.00    +0.000 C 
BRANCH  16  17
ATOM     17  C   UNL     1       1.972   7.618  19.602  0.00  0.00    +0.000 A 
ATOM     18  C   UNL     1       1.763   8.655  18.687  0.00  0.00    +0.000 A 
ATOM     19  C   UNL     1       1.048   9.795  19.049  0.00  0.00    +0.000 A 
ATOM     20  C   UNL     1       0.521   9.938  20.339  0.00  0.00    +0.000 A 
ATOM     21  C   UNL     1      -0.274  11.051  20.658  0.00  0.00    +0.000 A 
ATOM     22  C   UNL     1      -0.809  11.205  21.934  0.00  0.00    +0.000 A 
ATOM     23  C   UNL     1      -0.534  10.256  22.913  0.00  0.00    +0.000 A 
ATOM     24  C   UNL     1       0.252   9.138  22.606  0.00  0.00    +0.000 A 
ATOM     25  C   UNL     1       0.779   8.945  21.310  0.00  0.00    +0.000 A 
ATOM     26  C   UNL     1       1.515   7.792  20.926  0.00  0.00    +0.000 A 
ENDBRANCH  16  17
ENDBRANCH   4  16
TORSDOF 5
ENDMDL
MODEL 7
REMARK VINA RESULT:      -7.2      3.514      9.276
REMARK  Name = 
REMARK  6 active torsions:
REMARK  status: ('A' for Active; 'I' for Inactive)
REMARK    1  A    between atoms: C_1  and  O_2
REMARK    2  A    between atoms: O_2  and  C_3
REMARK    3  A    between atoms: C_8  and  C_9
REMARK    4  A    between atoms: C_9  and  N_10
REMARK    5  A    between atoms: N_13  and  C_14
REMARK    6  A    between atoms: C_14  and  C_15
REMARK                            x       y       z     vdW  Elec       q    Type
REMARK                         _______ _______ _______ _____ _____    ______ ____
ROOT
ATOM      1  N   UNL     1       0.572  11.994  19.959  0.00  0.00    +0.000 NA
ATOM      2  C   UNL     1       0.101  11.081  20.992  0.00  0.00    +0.000 C 
ATOM      3  C   UNL     1      -0.079   9.588  20.662  0.00  0.00    +0.000 C 
ATOM      4  N   UNL     1       0.869   8.945  19.742  0.00  0.00    +0.000 NA
ATOM      5  C   UNL     1       1.291   9.843  18.668  0.00  0.00    +0.000 C 
ATOM      6  C   UNL     1       1.345  11.384  18.882  0.00  0.00    +0.000 C 
ENDROOT
BRANCH   1   7
ATOM      7  C   UNL     1      -0.376  13.032  19.526  0.00  0.00    +0.000 C 
BRANCH   7  13
ATOM      8  C   UNL     1      -2.852  12.698  20.035  0.00  0.00    +0.000 A 
ATOM      9  C   UNL     1      -4.128  12.293  19.626  0.00  0.00    +0.000 A 
ATOM     10  C   UNL     1      -4.310  11.678  18.377  0.00  0.00    +0.000 A 
ATOM     11  C   UNL     1      -3.222  11.440  17.542  0.00  0.00    +0.000 A 
ATOM     12  C   UNL     1      -1.948  11.825  17.950  0.00  0.00    +0.000 A 
ATOM     13  C   UNL     1      -1.755  12.480  19.181  0.00  0.00    +0.000 A 
BRANCH   8  15
ATOM     14  C   UNL     1      -3.299  12.836  22.376  0.00  0.00    +0.000 C 
ATOM     15  O   UNL     1      -2.567  13.276  21.246  0.00  0.00    +0.000 OA
ENDBRANCH   8  15
ENDBRANCH   7  13
ENDBRANCH   1   7
BRANCH   4  16
ATOM     16  C   UNL     1       1.867   8.171  20.477  0.00  0.00    +0.000 C 
BRANCH  16  17
ATOM     17  C   UNL     1       2.086   6.705  20.141  0.00  0.00    +0.000 A 
ATOM     18  C   UNL     1       1.418   5.747  20.909  0.00  0.00    +0.000 A 
ATOM     19  C   UNL     1       1.362   4.416  20.501  0.00  0.00    +0.000 A 
ATOM     20  C   UNL     1       1.976   3.998  19.314  0.00  0.00    +0.000 A 
ATOM     21  C   UNL     1       1.832   2.672  18.872  0.00  0.00    +0.000 A 
ATOM     22  C   UNL     1       2.432   2.242  17.691  0.00  0.00    +0.000 A 
ATOM     23  C   UNL     1       3.204   3.131  16.950  0.00  0.00    +0.000 A 
ATOM     24  C   UNL     1       3.351   4.459  17.376  0.00  0.00    +0.000 A 
ATOM     25  C   UNL     1       2.724   4.924  18.554  0.00  0.00    +0.000 A 
ATOM     26  C   UNL     1       2.776   6.276  18.987  0.00  0.00    +0.000 A 
ENDBRANCH  16  17
ENDBRANCH   4  16
TORSDOF 5
ENDMDL
MODEL 8
REMARK VINA RESULT:      -7.2      2.717      9.495
REMARK  Name = 
REMARK  6 active torsions:
REMARK  status: ('A' for Active; 'I' for Inactive)
REMARK    1  A    between atoms: C_1  and  O_2
REMARK    2  A    between atoms: O_2  and  C_3
REMARK    3  A    between atoms: C_8  and  C_9
REMARK    4  A    between atoms: C_9  and  N_10
REMARK    5  A    between atoms: N_13  and  C_14
REMARK    6  A    between atoms: C_14  and  C_15
REMARK                            x       y       z     vdW  Elec       q    Type
REMARK                         _______ _______ _______ _____ _____    ______ ____
ROOT
ATOM      1  N   UNL     1      -0.127   9.747  19.437  0.00  0.00    +0.000 NA
ATOM      2  C   UNL     1       0.763   9.116  18.471  0.00  0.00    +0.000 C 
ATOM      3  C   UNL     1       2.054   8.435  18.961  0.00  0.00    +0.000 C 
ATOM      4  N   UNL     1       2.039   7.727  20.248  0.00  0.00    +0.000 NA
ATOM      5  C   UNL     1       1.196   8.397  21.236  0.00  0.00    +0.000 C 
ATOM      6  C   UNL     1      -0.039   9.239  20.802  0.00  0.00    +0.000 C 
ENDROOT
BRANCH   1   7
ATOM      7  C   UNL     1      -0.274  11.207  19.331  0.00  0.00    +0.000 C 
BRANCH   7  13
ATOM      8  C   UNL     1      -2.003  12.475  20.710  0.00  0.00    +0.000 A 
ATOM      9  C   UNL     1      -3.290  13.008  20.843  0.00  0.00    +0.000 A 
ATOM     10  C   UNL     1      -4.265  12.761  19.863  0.00  0.00    +0.000 A 
ATOM     11  C   UNL     1      -3.972  11.963  18.761  0.00  0.00    +0.000 A 
ATOM     12  C   UNL     1      -2.699  11.415  18.632  0.00  0.00    +0.000 A 
ATOM     13  C   UNL     1      -1.698  11.688  19.585  0.00  0.00    +0.000 A 
BRANCH   8  15
ATOM     14  C   UNL     1      -1.172  12.055  22.909  0.00  0.00    +0.000 C 
ATOM     15  O   UNL     1      -0.995  12.631  21.627  0.00  0.00    +0.000 OA
ENDBRANCH   8  15
ENDBRANCH   7  13
ENDBRANCH   1   7
BRANCH   4  16
ATOM     16  C   UNL     1       1.920   6.284  20.048  0.00  0.00    +0.000 C 
BRANCH  16  17
ATOM     17  C   UNL     1       2.957   5.548  19.215  0.00  0.00    +0.000 A 
ATOM     18  C   UNL     1       2.529   4.913  18.044  0.00  0.00    +0.000 A 
ATOM     19  C   UNL     1       3.449   4.449  17.106  0.00  0.00    +0.000 A 
ATOM     20  C   UNL     1       4.826   4.600  17.309  0.00  0.00    +0.000 A 
ATOM     21  C   UNL     1       5.734   4.210  16.311  0.00  0.00    +0.000 A 
ATOM     22  C   UNL     1       7.107   4.357  16.495  0.00  0.00    +0.000 A 
ATOM     23  C   UNL     1       7.586   4.878  17.692  0.00  0.00    +0.000 A 
ATOM     24  C   UNL     1       6.691   5.278  18.694  0.00  0.00    +0.000 A 
ATOM     25  C   UNL     1       5.294   5.167  18.515  0.00  0.00    +0.000 A 
ATOM     26  C   UNL     1       4.343   5.629  19.464  0.00  0.00    +0.000 A 
ENDBRANCH  16  17
ENDBRANCH   4  16
TORSDOF 5
ENDMDL
MODEL 9
REMARK VINA RESULT:      -7.2      2.801      9.821
REMARK  Name = 
REMARK  6 active torsions:
REMARK  status: ('A' for Active; 'I' for Inactive)
REMARK    1  A    between atoms: C_1  and  O_2
REMARK    2  A    between atoms: O_2  and  C_3
REMARK    3  A    between atoms: C_8  and  C_9
REMARK    4  A    between atoms: C_9  and  N_10
REMARK    5  A    between atoms: N_13  and  C_14
REMARK    6  A    between atoms: C_14  and  C_15
REMARK                            x       y       z     vdW  Elec       q    Type
REMARK                         _______ _______ _______ _____ _____    ______ ____
ROOT
ATOM      1  N   UNL     1      -0.005  10.154  20.405  0.00  0.00    +0.000 NA
ATOM      2  C   UNL     1       0.521  10.000  19.056  0.00  0.00    +0.000 C 
ATOM      3  C   UNL     1       1.792   9.162  18.828  0.00  0.00    +0.000 C 
ATOM      4  N   UNL     1       2.009   7.964  19.649  0.00  0.00    +0.000 NA
ATOM      5  C   UNL     1       1.538   8.143  21.021  0.00  0.00    +0.000 C 
ATOM      6  C   UNL     1       0.356   9.100  21.348  0.00  0.00    +0.000 C 
ENDROOT
BRANCH   1   7
ATOM      7  C   UNL     1       0.020  11.515  20.964  0.00  0.00    +0.000 C 
BRANCH   7  13
ATOM      8  C   UNL     1      -2.336  12.408  20.574  0.00  0.00    +0.000 A 
ATOM      9  C   UNL     1      -3.615  12.703  21.061  0.00  0.00    +0.000 A 
ATOM     10  C   UNL     1      -3.899  12.573  22.430  0.00  0.00    +0.000 A 
ATOM     11  C   UNL     1      -2.908  12.174  23.323  0.00  0.00    +0.000 A 
ATOM     12  C   UNL     1      -1.630  11.896  22.847  0.00  0.00    +0.000 A 
ATOM     13  C   UNL     1      -1.340  11.981  21.471  0.00  0.00    +0.000 A 
BRANCH   8  15
ATOM     14  C   UNL     1      -2.634  11.757  18.296  0.00  0.00    +0.000 C 
ATOM     15  O   UNL     1      -1.952  12.535  19.263  0.00  0.00    +0.000 OA
ENDBRANCH   8  15
ENDBRANCH   7  13
ENDBRANCH   1   7
BRANCH   4  16
ATOM     16  C   UNL     1       1.655   6.754  18.910  0.00  0.00    +0.000 C 
BRANCH  16  17
ATOM     17  C   UNL     1       2.748   5.892  18.299  0.00  0.00    +0.000 A 
ATOM     18  C   UNL     1       2.426   4.582  17.933  0.00  0.00    +0.000 A 
ATOM     19  C   UNL     1       3.288   3.828  17.139  0.00  0.00    +0.000 A 
ATOM     20  C   UNL     1       4.502   4.359  16.687  0.00  0.00    +0.000 A 
ATOM     21  C   UNL     1       5.315   3.619  15.812  0.00  0.00    +0.000 A 
ATOM     22  C   UNL     1       6.524   4.134  15.350  0.00  0.00    +0.000 A 
ATOM     23  C   UNL     1       6.943   5.390  15.778  0.00  0.00    +0.000 A 
ATOM     24  C   UNL     1       6.138   6.142  16.645  0.00  0.00    +0.000 A 
ATOM     25  C   UNL     1       4.894   5.652  17.101  0.00  0.00    +0.000 A 
ATOM     26  C   UNL     1       4.006   6.404  17.916  0.00  0.00    +0.000 A 
ENDBRANCH  16  17
ENDBRANCH   4  16
TORSDOF 5
ENDMDL
