MODEL 1
REMARK VINA RESULT:      -7.8      0.000      0.000
REMARK  Name = 
REMARK  7 active torsions:
REMARK  status: ('A' for Active; 'I' for Inactive)
REMARK    1  A    between atoms: C_1  and  C_2
REMARK    2  A    between atoms: C_5  and  C_6
REMARK    3  A    between atoms: N_15  and  C_16
REMARK    4  A    between atoms: C_18  and  C_19
REMARK    5  A    between atoms: C_19  and  N_20
REMARK    6  A    between atoms: C_25  and  C_26
REMARK    7  A    between atoms: C_25  and  C_27
REMARK                            x       y       z     vdW  Elec       q    Type
REMARK                         _______ _______ _______ _____ _____    ______ ____
ROOT
ATOM      1  C   UNL     1       0.010   9.599  23.575  0.00  0.00    +0.000 C 
ATOM      2  C   UNL     1      -0.217  10.153  22.197  0.00  0.00    +0.000 A 
ATOM      3  C   UNL     1      -1.194  11.055  21.981  0.00  0.00    +0.000 A 
ATOM      4  N   UNL     1      -1.419  11.488  20.694  0.00  0.00    +0.000 N 
ATOM      5  C   UNL     1      -2.366  12.318  20.138  0.00  0.00    +0.000 A 
ATOM      6  C   UNL     1      -2.202  12.166  18.774  0.00  0.00    +0.000 A 
ATOM      7  N   UNL     1      -1.115  11.365  18.483  0.00  0.00    +0.000 NA
ATOM      8  C   UNL     1      -0.671  10.982  19.664  0.00  0.00    +0.000 A 
ATOM      9  C   UNL     1       0.423  10.044  19.943  0.00  0.00    +0.000 A 
ATOM     10  N   UNL     1       1.187   9.607  18.868  0.00  0.00    +0.000 N 
ATOM     11  N   UNL     1       0.607   9.665  21.189  0.00  0.00    +0.000 NA
ATOM     12  H   UNL     1       0.892  10.066  18.008  0.00  0.00    +0.000 HD
ENDROOT
BRANCH   5  13
ATOM     13  C   UNL     1      -3.344  13.166  20.858  0.00  0.00    +0.000 A 
ATOM     14  C   UNL     1      -4.605  12.805  21.375  0.00  0.00    +0.000 A 
ATOM     15  N   UNL     1      -5.236  13.832  21.945  0.00  0.00    +0.000 NA
ATOM     16  N   UNL     1      -4.369  14.851  21.805  0.00  0.00    +0.000 N 
ATOM     17  C   UNL     1      -3.203  14.493  21.186  0.00  0.00    +0.000 A 
ATOM     18  H   UNL     1      -4.645  15.764  22.150  0.00  0.00    +0.000 HD
ENDBRANCH   5  13
BRANCH  10  19
ATOM     19  C   UNL     1       2.025   8.541  18.728  0.00  0.00    +0.000 A 
ATOM     20  C   UNL     1       2.962   8.376  17.716  0.00  0.00    +0.000 A 
ATOM     21  C   UNL     1       3.590   7.083  17.759  0.00  0.00    +0.000 A 
ATOM     22  N   UNL     1       3.251   6.330  18.809  0.00  0.00    +0.000 NA
ATOM     23  S   UNL     1       2.118   7.139  19.716  0.00  0.00    +0.000 S 
BRANCH  21  24
ATOM     24  C   UNL     1       4.464   6.479  16.667  0.00  0.00    +0.000 C 
BRANCH  24  25
ATOM     25  N   UNL     1       5.351   5.392  17.160  0.00  0.00    +0.000 NA
ATOM     26  C   UNL     1       4.920   4.089  16.610  0.00  0.00    +0.000 C 
ATOM     27  C   UNL     1       5.270   3.850  15.134  0.00  0.00    +0.000 C 
ATOM     28  C   UNL     1       6.696   4.237  14.753  0.00  0.00    +0.000 C 
ATOM     29  C   UNL     1       7.139   5.550  15.393  0.00  0.00    +0.000 C 
ATOM     30  C   UNL     1       6.810   5.619  16.904  0.00  0.00    +0.000 C 
ATOM     31  C   UNL     1       7.302   6.974  17.469  0.00  0.00    +0.000 C 
ATOM     32  C   UNL     1       7.655   4.550  17.656  0.00  0.00    +0.000 C 
ENDBRANCH  24  25
ENDBRANCH  21  24
ENDBRANCH  10  19
TORSDOF 4
ENDMDL
MODEL 2
REMARK VINA RESULT:      -7.8      2.474      3.686
REMARK  Name = 
REMARK  7 active torsions:
REMARK  status: ('A' for Active; 'I' for Inactive)
REMARK    1  A    between atoms: C_1  and  C_2
REMARK    2  A    between atoms: C_5  and  C_6
REMARK    3  A    between atoms: N_15  and  C_16
REMARK    4  A    between atoms: C_18  and  C_19
REMARK    5  A    between atoms: C_19  and  N_20
REMARK    6  A    between atoms: C_25  and  C_26
REMARK    7  A    between atoms: C_25  and  C_27
REMARK                            x       y       z     vdW  Elec       q    Type
REMARK                         _______ _______ _______ _____ _____    ______ ____
ROOT
ATOM      1  C   UNL     1      -3.271  10.975  17.760  0.00  0.00    +0.000 C 
ATOM      2  C   UNL     1      -2.370  11.283  18.922  0.00  0.00    +0.000 A 
ATOM      3  C   UNL     1      -2.634  12.329  19.728  0.00  0.00    +0.000 A 
ATOM      4  N   UNL     1      -1.749  12.622  20.741  0.00  0.00    +0.000 N 
ATOM      5  C   UNL     1      -1.685  13.643  21.661  0.00  0.00    +0.000 A 
ATOM      6  C   UNL     1      -0.438  13.509  22.242  0.00  0.00    +0.000 A 
ATOM      7  N   UNL     1       0.209  12.375  21.790  0.00  0.00    +0.000 NA
ATOM      8  C   UNL     1      -0.614  11.870  20.892  0.00  0.00    +0.000 A 
ATOM      9  C   UNL     1      -0.386  10.703  20.032  0.00  0.00    +0.000 A 
ATOM     10  N   UNL     1       0.751   9.941  20.267  0.00  0.00    +0.000 N 
ATOM     11  N   UNL     1      -1.264  10.455  19.084  0.00  0.00    +0.000 NA
ATOM     12  H   UNL     1       1.258  10.294  21.077  0.00  0.00    +0.000 HD
ENDROOT
BRANCH   5  13
ATOM     13  C   UNL     1      -2.725  14.659  21.942  0.00  0.00    +0.000 A 
ATOM     14  C   UNL     1      -3.615  14.725  23.034  0.00  0.00    +0.000 A 
ATOM     15  N   UNL     1      -4.443  15.768  22.956  0.00  0.00    +0.000 NA
ATOM     16  N   UNL     1      -4.070  16.380  21.818  0.00  0.00    +0.000 N 
ATOM     17  C   UNL     1      -3.021  15.769  21.188  0.00  0.00    +0.000 A 
ATOM     18  H   UNL     1      -4.583  17.207  21.529  0.00  0.00    +0.000 HD
ENDBRANCH   5  13
BRANCH  10  19
ATOM     19  C   UNL     1       1.407   9.031  19.492  0.00  0.00    +0.000 A 
ATOM     20  C   UNL     1       1.657   7.708  19.833  0.00  0.00    +0.000 A 
ATOM     21  C   UNL     1       2.497   7.046  18.872  0.00  0.00    +0.000 A 
ATOM     22  N   UNL     1       2.788   7.771  17.788  0.00  0.00    +0.000 NA
ATOM     23  S   UNL     1       2.115   9.282  17.948  0.00  0.00    +0.000 S 
BRANCH  21  24
ATOM     24  C   UNL     1       3.168   5.691  19.057  0.00  0.00    +0.000 C 
BRANCH  24  25
ATOM     25  N   UNL     1       2.291   4.547  18.694  0.00  0.00    +0.000 NA
ATOM     26  C   UNL     1       2.754   3.925  17.433  0.00  0.00    +0.000 C 
ATOM     27  C   UNL     1       4.015   3.058  17.553  0.00  0.00    +0.000 C 
ATOM     28  C   UNL     1       4.015   2.105  18.745  0.00  0.00    +0.000 C 
ATOM     29  C   UNL     1       3.465   2.752  20.014  0.00  0.00    +0.000 C 
ATOM     30  C   UNL     1       2.141   3.515  19.769  0.00  0.00    +0.000 C 
ATOM     31  C   UNL     1       1.653   4.126  21.106  0.00  0.00    +0.000 C 
ATOM     32  C   UNL     1       1.033   2.495  19.378  0.00  0.00    +0.000 C 
ENDBRANCH  24  25
ENDBRANCH  21  24
ENDBRANCH  10  19
TORSDOF 4
ENDMDL
MODEL 3
REMARK VINA RESULT:      -7.7      2.086     10.691
REMARK  Name = 
REMARK  7 active torsions:
REMARK  status: ('A' for Active; 'I' for Inactive)
REMARK    1  A    between atoms: C_1  and  C_2
REMARK    2  A    between atoms: C_5  and  C_6
REMARK    3  A    between atoms: N_15  and  C_16
REMARK    4  A    between atoms: C_18  and  C_19
REMARK    5  A    between atoms: C_19  and  N_20
REMARK    6  A    between atoms: C_25  and  C_26
REMARK    7  A    between atoms: C_25  and  C_27
REMARK                            x       y       z     vdW  Elec       q    Type
REMARK                         _______ _______ _______ _____ _____    ______ ____
ROOT
ATOM      1  C   UNL     1       2.057   4.259  21.409  0.00  0.00    +0.000 C 
ATOM      2  C   UNL     1       2.279   5.326  20.376  0.00  0.00    +0.000 A 
ATOM      3  C   UNL     1       3.074   5.089  19.315  0.00  0.00    +0.000 A 
ATOM      4  N   UNL     1       3.310   6.113  18.425  0.00  0.00    +0.000 N 
ATOM      5  C   UNL     1       4.117   6.221  17.316  0.00  0.00    +0.000 A 
ATOM      6  C   UNL     1       4.095   7.567  17.000  0.00  0.00    +0.000 A 
ATOM      7  N   UNL     1       3.211   8.258  17.806  0.00  0.00    +0.000 NA
ATOM      8  C   UNL     1       2.759   7.348  18.645  0.00  0.00    +0.000 A 
ATOM      9  C   UNL     1       1.851   7.555  19.780  0.00  0.00    +0.000 A 
ATOM     10  N   UNL     1       1.274   8.810  19.923  0.00  0.00    +0.000 N 
ATOM     11  N   UNL     1       1.647   6.546  20.598  0.00  0.00    +0.000 NA
ATOM     12  H   UNL     1       1.540   9.417  19.150  0.00  0.00    +0.000 HD
ENDROOT
BRANCH   5  13
ATOM     13  C   UNL     1       4.852   5.130  16.636  0.00  0.00    +0.000 A 
ATOM     14  C   UNL     1       5.553   5.173  15.413  0.00  0.00    +0.000 A 
ATOM     15  N   UNL     1       6.078   3.992  15.084  0.00  0.00    +0.000 NA
ATOM     16  N   UNL     1       5.724   3.194  16.107  0.00  0.00    +0.000 N 
ATOM     17  C   UNL     1       5.012   3.840  17.081  0.00  0.00    +0.000 A 
ATOM     18  H   UNL     1       5.997   2.218  16.069  0.00  0.00    +0.000 HD
ENDBRANCH   5  13
BRANCH  10  19
ATOM     19  C   UNL     1       0.673   9.414  20.987  0.00  0.00    +0.000 A 
ATOM     20  C   UNL     1      -0.227  10.470  20.916  0.00  0.00    +0.000 A 
ATOM     21  C   UNL     1      -0.570  10.981  22.215  0.00  0.00    +0.000 A 
ATOM     22  N   UNL     1      -0.064  10.293  23.242  0.00  0.00    +0.000 NA
ATOM     23  S   UNL     1       0.892   9.066  22.654  0.00  0.00    +0.000 S 
BRANCH  21  24
ATOM     24  C   UNL     1      -1.319  12.279  22.494  0.00  0.00    +0.000 C 
BRANCH  24  25
ATOM     25  N   UNL     1      -2.797  12.121  22.469  0.00  0.00    +0.000 NA
ATOM     26  C   UNL     1      -3.357  12.315  23.824  0.00  0.00    +0.000 C 
ATOM     27  C   UNL     1      -3.415  13.770  24.310  0.00  0.00    +0.000 C 
ATOM     28  C   UNL     1      -3.947  14.760  23.277  0.00  0.00    +0.000 C 
ATOM     29  C   UNL     1      -3.408  14.491  21.874  0.00  0.00    +0.000 C 
ATOM     30  C   UNL     1      -3.497  12.998  21.476  0.00  0.00    +0.000 C 
ATOM     31  C   UNL     1      -2.941  12.822  20.041  0.00  0.00    +0.000 C 
ATOM     32  C   UNL     1      -4.995  12.591  21.368  0.00  0.00    +0.000 C 
ENDBRANCH  24  25
ENDBRANCH  21  24
ENDBRANCH  10  19
TORSDOF 4
ENDMDL
MODEL 4
REMARK VINA RESULT:      -7.6      3.053      4.167
REMARK  Name = 
REMARK  7 active torsions:
REMARK  status: ('A' for Active; 'I' for Inactive)
REMARK    1  A    between atoms: C_1  and  C_2
REMARK    2  A    between atoms: C_5  and  C_6
REMARK    3  A    between atoms: N_15  and  C_16
REMARK    4  A    between atoms: C_18  and  C_19
REMARK    5  A    between atoms: C_19  and  N_20
REMARK    6  A    between atoms: C_25  and  C_26
REMARK    7  A    between atoms: C_25  and  C_27
REMARK                            x       y       z     vdW  Elec       q    Type
REMARK                         _______ _______ _______ _____ _____    ______ ____
ROOT
ATOM      1  C   UNL     1       2.845  14.371  20.105  0.00  0.00    +0.000 C 
ATOM      2  C   UNL     1       1.661  13.623  20.649  0.00  0.00    +0.000 A 
ATOM      3  C   UNL     1       0.858  14.196  21.566  0.00  0.00    +0.000 A 
ATOM      4  N   UNL     1      -0.176  13.455  22.093  0.00  0.00    +0.000 N 
ATOM      5  C   UNL     1      -1.101  13.710  23.079  0.00  0.00    +0.000 A 
ATOM      6  C   UNL     1      -1.711  12.490  23.306  0.00  0.00    +0.000 A 
ATOM      7  N   UNL     1      -1.272  11.533  22.411  0.00  0.00    +0.000 NA
ATOM      8  C   UNL     1      -0.353  12.156  21.698  0.00  0.00    +0.000 A 
ATOM      9  C   UNL     1       0.505  11.582  20.655  0.00  0.00    +0.000 A 
ATOM     10  N   UNL     1       0.245  10.278  20.251  0.00  0.00    +0.000 N 
ATOM     11  N   UNL     1       1.474  12.329  20.173  0.00  0.00    +0.000 NA
ATOM     12  H   UNL     1      -0.578   9.913  20.727  0.00  0.00    +0.000 HD
ENDROOT
BRANCH   5  13
ATOM     13  C   UNL     1      -1.360  15.005  23.749  0.00  0.00    +0.000 A 
ATOM     14  C   UNL     1      -1.287  15.312  25.123  0.00  0.00    +0.000 A 
ATOM     15  N   UNL     1      -1.612  16.580  25.381  0.00  0.00    +0.000 NA
ATOM     16  N   UNL     1      -1.878  17.089  24.165  0.00  0.00    +0.000 N 
ATOM     17  C   UNL     1      -1.710  16.190  23.148  0.00  0.00    +0.000 A 
ATOM     18  H   UNL     1      -2.177  18.058  24.107  0.00  0.00    +0.000 HD
ENDBRANCH   5  13
BRANCH  10  19
ATOM     19  C   UNL     1       1.006   9.370  19.577  0.00  0.00    +0.000 A 
ATOM     20  C   UNL     1       1.360   8.109  20.039  0.00  0.00    +0.000 A 
ATOM     21  C   UNL     1       2.288   7.448  19.162  0.00  0.00    +0.000 A 
ATOM     22  N   UNL     1       2.551   8.102  18.027  0.00  0.00    +0.000 NA
ATOM     23  S   UNL     1       1.742   9.553  18.037  0.00  0.00    +0.000 S 
BRANCH  21  24
ATOM     24  C   UNL     1       3.071   6.181  19.483  0.00  0.00    +0.000 C 
BRANCH  24  25
ATOM     25  N   UNL     1       2.676   5.019  18.644  0.00  0.00    +0.000 NA
ATOM     26  C   UNL     1       3.807   4.594  17.790  0.00  0.00    +0.000 C 
ATOM     27  C   UNL     1       4.924   3.828  18.512  0.00  0.00    +0.000 C 
ATOM     28  C   UNL     1       4.431   2.742  19.464  0.00  0.00    +0.000 C 
ATOM     29  C   UNL     1       3.219   3.183  20.281  0.00  0.00    +0.000 C 
ATOM     30  C   UNL     1       2.127   3.856  19.413  0.00  0.00    +0.000 C 
ATOM     31  C   UNL     1       0.937   4.259  20.318  0.00  0.00    +0.000 C 
ATOM     32  C   UNL     1       1.536   2.801  18.435  0.00  0.00    +0.000 C 
ENDBRANCH  24  25
ENDBRANCH  21  24
ENDBRANCH  10  19
TORSDOF 4
ENDMDL
MODEL 5
REMARK VINA RESULT:      -7.5      2.635     10.680
REMARK  Name = 
REMARK  7 active torsions:
REMARK  status: ('A' for Active; 'I' for Inactive)
REMARK    1  A    between atoms: C_1  and  C_2
REMARK    2  A    between atoms: C_5  and  C_6
REMARK    3  A    between atoms: N_15  and  C_16
REMARK    4  A    between atoms: C_18  and  C_19
REMARK    5  A    between atoms: C_19  and  N_20
REMARK    6  A    between atoms: C_25  and  C_26
REMARK    7  A    between atoms: C_25  and  C_27
REMARK                            x       y       z     vdW  Elec       q    Type
REMARK                         _______ _______ _______ _____ _____    ______ ____
ROOT
ATOM      1  C   UNL     1       4.596   7.190  16.631  0.00  0.00    +0.000 C 
ATOM      2  C   UNL     1       3.810   6.739  17.830  0.00  0.00    +0.000 A 
ATOM      3  C   UNL     1       3.877   5.459  18.243  0.00  0.00    +0.000 A 
ATOM      4  N   UNL     1       3.090   5.066  19.302  0.00  0.00    +0.000 N 
ATOM      5  C   UNL     1       2.868   3.846  19.900  0.00  0.00    +0.000 A 
ATOM      6  C   UNL     1       1.799   4.066  20.748  0.00  0.00    +0.000 A 
ATOM      7  N   UNL     1       1.441   5.400  20.773  0.00  0.00    +0.000 NA
ATOM      8  C   UNL     1       2.244   5.966  19.893  0.00  0.00    +0.000 A 
ATOM      9  C   UNL     1       2.239   7.367  19.454  0.00  0.00    +0.000 A 
ATOM     10  N   UNL     1       1.404   8.250  20.127  0.00  0.00    +0.000 N 
ATOM     11  N   UNL     1       3.014   7.699  18.446  0.00  0.00    +0.000 NA
ATOM     12  H   UNL     1       0.933   7.781  20.899  0.00  0.00    +0.000 HD
ENDROOT
BRANCH   5  13
ATOM     13  C   UNL     1       3.608   2.586  19.663  0.00  0.00    +0.000 A 
ATOM     14  C   UNL     1       4.616   1.999  20.454  0.00  0.00    +0.000 A 
ATOM     15  N   UNL     1       5.087   0.868  19.925  0.00  0.00    +0.000 NA
ATOM     16  N   UNL     1       4.366   0.725  18.799  0.00  0.00    +0.000 N 
ATOM     17  C   UNL     1       3.442   1.716  18.613  0.00  0.00    +0.000 A 
ATOM     18  H   UNL     1       4.566  -0.071  18.201  0.00  0.00    +0.000 HD
ENDBRANCH   5  13
BRANCH  10  19
ATOM     19  C   UNL     1       0.932   9.483  19.790  0.00  0.00    +0.000 A 
ATOM     20  C   UNL     1       0.755  10.549  20.663  0.00  0.00    +0.000 A 
ATOM     21  C   UNL     1       0.104  11.666  20.036  0.00  0.00    +0.000 A 
ATOM     22  N   UNL     1      -0.109  11.528  18.725  0.00  0.00    +0.000 NA
ATOM     23  S   UNL     1       0.405  10.021  18.247  0.00  0.00    +0.000 S 
BRANCH  21  24
ATOM     24  C   UNL     1      -0.467  12.884  20.752  0.00  0.00    +0.000 C 
BRANCH  24  25
ATOM     25  N   UNL     1      -1.534  12.543  21.730  0.00  0.00    +0.000 NA
ATOM     26  C   UNL     1      -1.100  12.883  23.103  0.00  0.00    +0.000 C 
ATOM     27  C   UNL     1      -1.117  14.380  23.445  0.00  0.00    +0.000 C 
ATOM     28  C   UNL     1      -2.377  15.115  22.998  0.00  0.00    +0.000 C 
ATOM     29  C   UNL     1      -2.843  14.691  21.607  0.00  0.00    +0.000 C 
ATOM     30  C   UNL     1      -2.869  13.154  21.429  0.00  0.00    +0.000 C 
ATOM     31  C   UNL     1      -3.361  12.817  20.000  0.00  0.00    +0.000 C 
ATOM     32  C   UNL     1      -3.954  12.553  22.369  0.00  0.00    +0.000 C 
ENDBRANCH  24  25
ENDBRANCH  21  24
ENDBRANCH  10  19
TORSDOF 4
ENDMDL
MODEL 6
REMARK VINA RESULT:      -7.5      3.757      9.939
REMARK  Name = 
REMARK  7 active torsions:
REMARK  status: ('A' for Active; 'I' for Inactive)
REMARK    1  A    between atoms: C_1  and  C_2
REMARK    2  A    between atoms: C_5  and  C_6
REMARK    3  A    between atoms: N_15  and  C_16
REMARK    4  A    between atoms: C_18  and  C_19
REMARK    5  A    between atoms: C_19  and  N_20
REMARK    6  A    between atoms: C_25  and  C_26
REMARK    7  A    between atoms: C_25  and  C_27
REMARK                            x       y       z     vdW  Elec       q    Type
REMARK                         _______ _______ _______ _____ _____    ______ ____
ROOT
ATOM      1  C   UNL     1       4.665   7.103  16.304  0.00  0.00    +0.000 C 
ATOM      2  C   UNL     1       3.889   6.747  17.539  0.00  0.00    +0.000 A 
ATOM      3  C   UNL     1       3.939   5.496  18.036  0.00  0.00    +0.000 A 
ATOM      4  N   UNL     1       3.160   5.188  19.129  0.00  0.00    +0.000 N 
ATOM      5  C   UNL     1       2.925   4.015  19.809  0.00  0.00    +0.000 A 
ATOM      6  C   UNL     1       1.872   4.309  20.655  0.00  0.00    +0.000 A 
ATOM      7  N   UNL     1       1.538   5.649  20.596  0.00  0.00    +0.000 NA
ATOM      8  C   UNL     1       2.338   6.140  19.670  0.00  0.00    +0.000 A 
ATOM      9  C   UNL     1       2.351   7.509  19.139  0.00  0.00    +0.000 A 
ATOM     10  N   UNL     1       1.541   8.449  19.762  0.00  0.00    +0.000 N 
ATOM     11  N   UNL     1       3.118   7.760  18.100  0.00  0.00    +0.000 NA
ATOM     12  H   UNL     1       1.073   8.041  20.569  0.00  0.00    +0.000 HD
ENDROOT
BRANCH   5  13
ATOM     13  C   UNL     1       3.641   2.729  19.646  0.00  0.00    +0.000 A 
ATOM     14  C   UNL     1       4.606   2.148  20.494  0.00  0.00    +0.000 A 
ATOM     15  N   UNL     1       5.066   0.987  20.026  0.00  0.00    +0.000 NA
ATOM     16  N   UNL     1       4.379   0.817  18.882  0.00  0.00    +0.000 N 
ATOM     17  C   UNL     1       3.488   1.821  18.625  0.00  0.00    +0.000 A 
ATOM     18  H   UNL     1       4.579  -0.007  18.323  0.00  0.00    +0.000 HD
ENDBRANCH   5  13
BRANCH  10  19
ATOM     19  C   UNL     1       1.085   9.666  19.350  0.00  0.00    +0.000 A 
ATOM     20  C   UNL     1       1.862  10.679  18.803  0.00  0.00    +0.000 A 
ATOM     21  C   UNL     1       1.116  11.892  18.606  0.00  0.00    +0.000 A 
ATOM     22  N   UNL     1      -0.190  11.798  18.872  0.00  0.00    +0.000 NA
ATOM     23  S   UNL     1      -0.521  10.269  19.432  0.00  0.00    +0.000 S 
BRANCH  21  24
ATOM     24  C   UNL     1       1.705  13.257  18.270  0.00  0.00    +0.000 C 
BRANCH  24  25
ATOM     25  N   UNL     1       1.843  14.145  19.454  0.00  0.00    +0.000 NA
ATOM     26  C   UNL     1       3.256  14.204  19.889  0.00  0.00    +0.000 C 
ATOM     27  C   UNL     1       4.179  15.058  19.008  0.00  0.00    +0.000 C 
ATOM     28  C   UNL     1       3.599  16.414  18.615  0.00  0.00    +0.000 C 
ATOM     29  C   UNL     1       2.121  16.334  18.241  0.00  0.00    +0.000 C 
ATOM     30  C   UNL     1       1.289  15.524  19.264  0.00  0.00    +0.000 C 
ATOM     31  C   UNL     1      -0.192  15.505  18.812  0.00  0.00    +0.000 C 
ATOM     32  C   UNL     1       1.275  16.284  20.622  0.00  0.00    +0.000 C 
ENDBRANCH  24  25
ENDBRANCH  21  24
ENDBRANCH  10  19
TORSDOF 4
ENDMDL
MODEL 7
REMARK VINA RESULT:      -7.5      2.253     10.500
REMARK  Name = 
REMARK  7 active torsions:
REMARK  status: ('A' for Active; 'I' for Inactive)
REMARK    1  A    between atoms: C_1  and  C_2
REMARK    2  A    between atoms: C_5  and  C_6
REMARK    3  A    between atoms: N_15  and  C_16
REMARK    4  A    between atoms: C_18  and  C_19
REMARK    5  A    between atoms: C_19  and  N_20
REMARK    6  A    between atoms: C_25  and  C_26
REMARK    7  A    between atoms: C_25  and  C_27
REMARK                            x       y       z     vdW  Elec       q    Type
REMARK                         _______ _______ _______ _____ _____    ______ ____
ROOT
ATOM      1  C   UNL     1       2.102   4.081  21.337  0.00  0.00    +0.000 C 
ATOM      2  C   UNL     1       2.335   5.170  20.330  0.00  0.00    +0.000 A 
ATOM      3  C   UNL     1       3.135   4.953  19.269  0.00  0.00    +0.000 A 
ATOM      4  N   UNL     1       3.382   5.996  18.403  0.00  0.00    +0.000 N 
ATOM      5  C   UNL     1       4.195   6.125  17.301  0.00  0.00    +0.000 A 
ATOM      6  C   UNL     1       4.181   7.477  17.016  0.00  0.00    +0.000 A 
ATOM      7  N   UNL     1       3.297   8.155  17.832  0.00  0.00    +0.000 NA
ATOM      8  C   UNL     1       2.836   7.228  18.649  0.00  0.00    +0.000 A 
ATOM      9  C   UNL     1       1.923   7.414  19.783  0.00  0.00    +0.000 A 
ATOM     10  N   UNL     1       1.351   8.669  19.951  0.00  0.00    +0.000 N 
ATOM     11  N   UNL     1       1.709   6.388  20.577  0.00  0.00    +0.000 NA
ATOM     12  H   UNL     1       1.625   9.292  19.194  0.00  0.00    +0.000 HD
ENDROOT
BRANCH   5  13
ATOM     13  C   UNL     1       4.927   5.045  16.600  0.00  0.00    +0.000 A 
ATOM     14  C   UNL     1       5.561   5.089  15.342  0.00  0.00    +0.000 A 
ATOM     15  N   UNL     1       6.106   3.919  15.003  0.00  0.00    +0.000 NA
ATOM     16  N   UNL     1       5.832   3.129  16.057  0.00  0.00    +0.000 N 
ATOM     17  C   UNL     1       5.153   3.769  17.056  0.00  0.00    +0.000 A 
ATOM     18  H   UNL     1       6.134   2.161  16.019  0.00  0.00    +0.000 HD
ENDBRANCH   5  13
BRANCH  10  19
ATOM     19  C   UNL     1       0.748   9.252  21.026  0.00  0.00    +0.000 A 
ATOM     20  C   UNL     1      -0.404  10.026  20.985  0.00  0.00    +0.000 A 
ATOM     21  C   UNL     1      -0.708  10.620  22.260  0.00  0.00    +0.000 A 
ATOM     22  N   UNL     1       0.090  10.238  23.260  0.00  0.00    +0.000 NA
ATOM     23  S   UNL     1       1.260   9.218  22.665  0.00  0.00    +0.000 S 
BRANCH  21  24
ATOM     24  C   UNL     1      -1.737  11.714  22.512  0.00  0.00    +0.000 C 
BRANCH  24  25
ATOM     25  N   UNL     1      -1.133  12.993  22.971  0.00  0.00    +0.000 NA
ATOM     26  C   UNL     1      -0.126  13.465  21.995  0.00  0.00    +0.000 C 
ATOM     27  C   UNL     1      -0.695  14.074  20.706  0.00  0.00    +0.000 C 
ATOM     28  C   UNL     1      -1.845  15.052  20.924  0.00  0.00    +0.000 C 
ATOM     29  C   UNL     1      -2.830  14.573  21.988  0.00  0.00    +0.000 C 
ATOM     30  C   UNL     1      -2.125  14.075  23.273  0.00  0.00    +0.000 C 
ATOM     31  C   UNL     1      -3.196  13.621  24.295  0.00  0.00    +0.000 C 
ATOM     32  C   UNL     1      -1.412  15.276  23.959  0.00  0.00    +0.000 C 
ENDBRANCH  24  25
ENDBRANCH  21  24
ENDBRANCH  10  19
TORSDOF 4
ENDMDL
MODEL 8
REMARK VINA RESULT:      -7.5      1.910      3.146
REMARK  Name = 
REMARK  7 active torsions:
REMARK  status: ('A' for Active; 'I' for Inactive)
REMARK    1  A    between atoms: C_1  and  C_2
REMARK    2  A    between atoms: C_5  and  C_6
REMARK    3  A    between atoms: N_15  and  C_16
REMARK    4  A    between atoms: C_18  and  C_19
REMARK    5  A    between atoms: C_19  and  N_20
REMARK    6  A    between atoms: C_25  and  C_26
REMARK    7  A    between atoms: C_25  and  C_27
REMARK                            x       y       z     vdW  Elec       q    Type
REMARK                         _______ _______ _______ _____ _____    ______ ____
ROOT
ATOM      1  C   UNL     1       1.858  10.491  17.933  0.00  0.00    +0.000 C 
ATOM      2  C   UNL     1       1.257  10.005  19.221  0.00  0.00    +0.000 A 
ATOM      3  C   UNL     1       0.582  10.855  20.018  0.00  0.00    +0.000 A 
ATOM      4  N   UNL     1       0.105  10.391  21.224  0.00  0.00    +0.000 N 
ATOM      5  C   UNL     1      -0.535  11.005  22.276  0.00  0.00    +0.000 A 
ATOM      6  C   UNL     1      -0.536  10.058  23.282  0.00  0.00    +0.000 A 
ATOM      7  N   UNL     1      -0.026   8.852  22.839  0.00  0.00    +0.000 NA
ATOM      8  C   UNL     1       0.344   9.095  21.597  0.00  0.00    +0.000 A 
ATOM      9  C   UNL     1       1.033   8.181  20.679  0.00  0.00    +0.000 A 
ATOM     10  N   UNL     1       1.198   6.862  21.084  0.00  0.00    +0.000 N 
ATOM     11  N   UNL     1       1.463   8.665  19.534  0.00  0.00    +0.000 NA
ATOM     12  H   UNL     1       0.747   6.705  21.983  0.00  0.00    +0.000 HD
ENDROOT
BRANCH   5  13
ATOM     13  C   UNL     1      -1.079  12.382  22.309  0.00  0.00    +0.000 A 
ATOM     14  C   UNL     1      -0.377  13.604  22.290  0.00  0.00    +0.000 A 
ATOM     15  N   UNL     1      -1.188  14.661  22.359  0.00  0.00    +0.000 NA
ATOM     16  N   UNL     1      -2.415  14.112  22.406  0.00  0.00    +0.000 N 
ATOM     17  C   UNL     1      -2.404  12.746  22.347  0.00  0.00    +0.000 A 
ATOM     18  H   UNL     1      -3.214  14.733  22.486  0.00  0.00    +0.000 HD
ENDBRANCH   5  13
BRANCH  10  19
ATOM     19  C   UNL     1       2.033   5.878  20.646  0.00  0.00    +0.000 A 
ATOM     20  C   UNL     1       3.010   6.021  19.669  0.00  0.00    +0.000 A 
ATOM     21  C   UNL     1       3.624   4.768  19.325  0.00  0.00    +0.000 A 
ATOM     22  N   UNL     1       3.235   3.729  20.069  0.00  0.00    +0.000 NA
ATOM     23  S   UNL     1       2.072   4.235  21.143  0.00  0.00    +0.000 S 
BRANCH  21  24
ATOM     24  C   UNL     1       4.538   4.520  18.131  0.00  0.00    +0.000 C 
BRANCH  24  25
ATOM     25  N   UNL     1       5.688   5.461  18.067  0.00  0.00    +0.000 NA
ATOM     26  C   UNL     1       6.955   4.713  17.911  0.00  0.00    +0.000 C 
ATOM     27  C   UNL     1       7.210   4.139  16.510  0.00  0.00    +0.000 C 
ATOM     28  C   UNL     1       6.924   5.109  15.368  0.00  0.00    +0.000 C 
ATOM     29  C   UNL     1       5.649   5.919  15.591  0.00  0.00    +0.000 C 
ATOM     30  C   UNL     1       5.564   6.520  17.014  0.00  0.00    +0.000 C 
ATOM     31  C   UNL     1       4.250   7.329  17.146  0.00  0.00    +0.000 C 
ATOM     32  C   UNL     1       6.694   7.576  17.186  0.00  0.00    +0.000 C 
ENDBRANCH  24  25
ENDBRANCH  21  24
ENDBRANCH  10  19
TORSDOF 4
ENDMDL
MODEL 9
REMARK VINA RESULT:      -7.5      2.421      3.378
REMARK  Name = 
REMARK  7 active torsions:
REMARK  status: ('A' for Active; 'I' for Inactive)
REMARK    1  A    between atoms: C_1  and  C_2
REMARK    2  A    between atoms: C_5  and  C_6
REMARK    3  A    between atoms: N_15  and  C_16
REMARK    4  A    between atoms: C_18  and  C_19
REMARK    5  A    between atoms: C_19  and  N_20
REMARK    6  A    between atoms: C_25  and  C_26
REMARK    7  A    between atoms: C_25  and  C_27
REMARK                            x       y       z     vdW  Elec       q    Type
REMARK                         _______ _______ _______ _____ _____    ______ ____
ROOT
ATOM      1  C   UNL     1       0.747   9.281  22.895  0.00  0.00    +0.000 C 
ATOM      2  C   UNL     1       0.376   9.846  21.553  0.00  0.00    +0.000 A 
ATOM      3  C   UNL     1      -0.583  10.786  21.454  0.00  0.00    +0.000 A 
ATOM      4  N   UNL     1      -0.945  11.230  20.202  0.00  0.00    +0.000 N 
ATOM      5  C   UNL     1      -1.918  12.098  19.762  0.00  0.00    +0.000 A 
ATOM      6  C   UNL     1      -1.929  11.940  18.389  0.00  0.00    +0.000 A 
ATOM      7  N   UNL     1      -0.918  11.096  17.971  0.00  0.00    +0.000 NA
ATOM      8  C   UNL     1      -0.350  10.694  19.091  0.00  0.00    +0.000 A 
ATOM      9  C   UNL     1       0.731   9.712  19.238  0.00  0.00    +0.000 A 
ATOM     10  N   UNL     1       1.340   9.245  18.080  0.00  0.00    +0.000 N 
ATOM     11  N   UNL     1       1.051   9.325  20.454  0.00  0.00    +0.000 NA
ATOM     12  H   UNL     1       0.961   9.716  17.261  0.00  0.00    +0.000 HD
ENDROOT
BRANCH   5  13
ATOM     13  C   UNL     1      -2.766  12.984  20.592  0.00  0.00    +0.000 A 
ATOM     14  C   UNL     1      -4.149  12.886  20.850  0.00  0.00    +0.000 A 
ATOM     15  N   UNL     1      -4.596  13.876  21.625  0.00  0.00    +0.000 NA
ATOM     16  N   UNL     1      -3.491  14.600  21.876  0.00  0.00    +0.000 N 
ATOM     17  C   UNL     1      -2.360  14.087  21.303  0.00  0.00    +0.000 A 
ATOM     18  H   UNL     1      -3.587  15.438  22.441  0.00  0.00    +0.000 HD
ENDBRANCH   5  13
BRANCH  10  19
ATOM     19  C   UNL     1       2.111   8.147  17.843  0.00  0.00    +0.000 A 
ATOM     20  C   UNL     1       1.671   6.829  17.857  0.00  0.00    +0.000 A 
ATOM     21  C   UNL     1       2.751   5.891  17.715  0.00  0.00    +0.000 A 
ATOM     22  N   UNL     1       3.946   6.442  17.486  0.00  0.00    +0.000 NA
ATOM     23  S   UNL     1       3.796   8.097  17.512  0.00  0.00    +0.000 S 
BRANCH  21  24
ATOM     24  C   UNL     1       2.662   4.387  17.940  0.00  0.00    +0.000 C 
BRANCH  24  25
ATOM     25  N   UNL     1       3.396   3.930  19.150  0.00  0.00    +0.000 NA
ATOM     26  C   UNL     1       3.022   4.755  20.319  0.00  0.00    +0.000 C 
ATOM     27  C   UNL     1       1.640   4.459  20.917  0.00  0.00    +0.000 C 
ATOM     28  C   UNL     1       1.330   2.974  21.087  0.00  0.00    +0.000 C 
ATOM     29  C   UNL     1       1.792   2.138  19.897  0.00  0.00    +0.000 C 
ATOM     30  C   UNL     1       3.238   2.472  19.458  0.00  0.00    +0.000 C 
ATOM     31  C   UNL     1       3.624   1.573  18.257  0.00  0.00    +0.000 C 
ATOM     32  C   UNL     1       4.221   2.057  20.590  0.00  0.00    +0.000 C 
ENDBRANCH  24  25
ENDBRANCH  21  24
ENDBRANCH  10  19
TORSDOF 4
ENDMDL
