MODEL 1
REMARK VINA RESULT:      -5.4      0.000      0.000
REMARK  Name = 
REMARK  4 active torsions:
REMARK  status: ('A' for Active; 'I' for Inactive)
REMARK    1  A    between atoms: C_1  and  C_2
REMARK    2  A    between atoms: C_2  and  C_3
REMARK    3  A    between atoms: C_8  and  C_9
REMARK    4  A    between atoms: C_8  and  C_10
REMARK                            x       y       z     vdW  Elec       q    Type
REMARK                         _______ _______ _______ _____ _____    ______ ____
ROOT
ATOM      1  C   UNL     1       2.619   5.196  17.900  0.00  0.00    +0.000 C 
ATOM      2  C   UNL     1       2.798   3.832  18.600  0.00  0.00    +0.000 C 
ATOM      3  C   UNL     1       2.283   2.760  17.608  0.00  0.00    +0.000 C 
ATOM      4  C   UNL     1       4.306   3.626  18.842  0.00  0.00    +0.000 C 
ATOM      5  S   UNL     1       4.440   2.358  20.117  0.00  0.00    +0.000 S 
ATOM      6  C   UNL     1       2.939   2.835  20.890  0.00  0.00    +0.000 C 
ATOM      7  O   UNL     1       2.654   2.480  22.020  0.00  0.00    +0.000 OA
ATOM      8  C   UNL     1       2.095   3.764  20.014  0.00  0.00    +0.000 C 
ATOM      9  C   UNL     1       2.028   5.123  20.736  0.00  0.00    +0.000 C 
ATOM     10  C   UNL     1       0.673   3.177  19.971  0.00  0.00    +0.000 C 
ENDROOT
TORSDOF 0
ENDMDL
MODEL 2
REMARK VINA RESULT:      -5.3      3.563      5.016
REMARK  Name = 
REMARK  4 active torsions:
REMARK  status: ('A' for Active; 'I' for Inactive)
REMARK    1  A    between atoms: C_1  and  C_2
REMARK    2  A    between atoms: C_2  and  C_3
REMARK    3  A    between atoms: C_8  and  C_9
REMARK    4  A    between atoms: C_8  and  C_10
REMARK                            x       y       z     vdW  Elec       q    Type
REMARK                         _______ _______ _______ _____ _____    ______ ____
ROOT
ATOM      1  C   UNL     1       5.402   5.171  15.388  0.00  0.00    +0.000 C 
ATOM      2  C   UNL     1       5.252   5.660  16.844  0.00  0.00    +0.000 C 
ATOM      3  C   UNL     1       4.597   7.062  16.770  0.00  0.00    +0.000 C 
ATOM      4  C   UNL     1       4.301   4.686  17.568  0.00  0.00    +0.000 C 
ATOM      5  S   UNL     1       4.583   4.930  19.332  0.00  0.00    +0.000 S 
ATOM      6  C   UNL     1       6.273   5.347  19.106  0.00  0.00    +0.000 C 
ATOM      7  O   UNL     1       7.067   5.344  20.030  0.00  0.00    +0.000 OA
ATOM      8  C   UNL     1       6.614   5.649  17.646  0.00  0.00    +0.000 C 
ATOM      9  C   UNL     1       7.596   4.557  17.179  0.00  0.00    +0.000 C 
ATOM     10  C   UNL     1       7.357   6.997  17.623  0.00  0.00    +0.000 C 
ENDROOT
TORSDOF 0
ENDMDL
MODEL 3
REMARK VINA RESULT:      -5.2      1.736      2.688
REMARK  Name = 
REMARK  4 active torsions:
REMARK  status: ('A' for Active; 'I' for Inactive)
REMARK    1  A    between atoms: C_1  and  C_2
REMARK    2  A    between atoms: C_2  and  C_3
REMARK    3  A    between atoms: C_8  and  C_9
REMARK    4  A    between atoms: C_8  and  C_10
REMARK                            x       y       z     vdW  Elec       q    Type
REMARK                         _______ _______ _______ _____ _____    ______ ____
ROOT
ATOM      1  C   UNL     1       0.458   2.682  18.899  0.00  0.00    +0.000 C 
ATOM      2  C   UNL     1       1.746   3.005  19.687  0.00  0.00    +0.000 C 
ATOM      3  C   UNL     1       1.430   2.723  21.177  0.00  0.00    +0.000 C 
ATOM      4  C   UNL     1       2.844   2.038  19.203  0.00  0.00    +0.000 C 
ATOM      5  S   UNL     1       4.413   2.779  19.693  0.00  0.00    +0.000 S 
ATOM      6  C   UNL     1       3.805   4.417  19.535  0.00  0.00    +0.000 C 
ATOM      7  O   UNL     1       4.549   5.380  19.477  0.00  0.00    +0.000 OA
ATOM      8  C   UNL     1       2.280   4.470  19.428  0.00  0.00    +0.000 C 
ATOM      9  C   UNL     1       1.947   5.009  18.024  0.00  0.00    +0.000 C 
ATOM     10  C   UNL     1       1.788   5.500  20.461  0.00  0.00    +0.000 C 
ENDROOT
TORSDOF 0
ENDMDL
MODEL 4
REMARK VINA RESULT:      -5.2      1.484      2.858
REMARK  Name = 
REMARK  4 active torsions:
REMARK  status: ('A' for Active; 'I' for Inactive)
REMARK    1  A    between atoms: C_1  and  C_2
REMARK    2  A    between atoms: C_2  and  C_3
REMARK    3  A    between atoms: C_8  and  C_9
REMARK    4  A    between atoms: C_8  and  C_10
REMARK                            x       y       z     vdW  Elec       q    Type
REMARK                         _______ _______ _______ _____ _____    ______ ____
ROOT
ATOM      1  C   UNL     1       1.503   4.323  17.742  0.00  0.00    +0.000 C 
ATOM      2  C   UNL     1       2.273   4.182  19.073  0.00  0.00    +0.000 C 
ATOM      3  C   UNL     1       2.507   5.620  19.598  0.00  0.00    +0.000 C 
ATOM      4  C   UNL     1       1.367   3.416  20.057  0.00  0.00    +0.000 C 
ATOM      5  S   UNL     1       2.454   2.785  21.350  0.00  0.00    +0.000 S 
ATOM      6  C   UNL     1       3.817   2.611  20.259  0.00  0.00    +0.000 C 
ATOM      7  O   UNL     1       4.790   1.936  20.544  0.00  0.00    +0.000 OA
ATOM      8  C   UNL     1       3.606   3.343  18.932  0.00  0.00    +0.000 C 
ATOM      9  C   UNL     1       3.546   2.268  17.830  0.00  0.00    +0.000 C 
ATOM     10  C   UNL     1       4.857   4.206  18.687  0.00  0.00    +0.000 C 
ENDROOT
TORSDOF 0
ENDMDL
MODEL 5
REMARK VINA RESULT:      -5.1      1.656      2.107
REMARK  Name = 
REMARK  4 active torsions:
REMARK  status: ('A' for Active; 'I' for Inactive)
REMARK    1  A    between atoms: C_1  and  C_2
REMARK    2  A    between atoms: C_2  and  C_3
REMARK    3  A    between atoms: C_8  and  C_9
REMARK    4  A    between atoms: C_8  and  C_10
REMARK                            x       y       z     vdW  Elec       q    Type
REMARK                         _______ _______ _______ _____ _____    ______ ____
ROOT
ATOM      1  C   UNL     1       1.311   5.284  20.390  0.00  0.00    +0.000 C 
ATOM      2  C   UNL     1       2.376   4.567  19.533  0.00  0.00    +0.000 C 
ATOM      3  C   UNL     1       1.857   4.597  18.074  0.00  0.00    +0.000 C 
ATOM      4  C   UNL     1       3.680   5.383  19.631  0.00  0.00    +0.000 C 
ATOM      5  S   UNL     1       5.005   4.271  19.119  0.00  0.00    +0.000 S 
ATOM      6  C   UNL     1       4.181   2.847  19.730  0.00  0.00    +0.000 C 
ATOM      7  O   UNL     1       4.763   1.792  19.908  0.00  0.00    +0.000 OA
ATOM      8  C   UNL     1       2.708   3.110  20.048  0.00  0.00    +0.000 C 
ATOM      9  C   UNL     1       2.541   2.941  21.571  0.00  0.00    +0.000 C 
ATOM     10  C   UNL     1       1.890   2.006  19.355  0.00  0.00    +0.000 C 
ENDROOT
TORSDOF 0
ENDMDL
MODEL 6
REMARK VINA RESULT:      -5.1      4.037      5.144
REMARK  Name = 
REMARK  4 active torsions:
REMARK  status: ('A' for Active; 'I' for Inactive)
REMARK    1  A    between atoms: C_1  and  C_2
REMARK    2  A    between atoms: C_2  and  C_3
REMARK    3  A    between atoms: C_8  and  C_9
REMARK    4  A    between atoms: C_8  and  C_10
REMARK                            x       y       z     vdW  Elec       q    Type
REMARK                         _______ _______ _______ _____ _____    ______ ____
ROOT
ATOM      1  C   UNL     1       4.429   7.263  17.061  0.00  0.00    +0.000 C 
ATOM      2  C   UNL     1       4.995   5.828  17.013  0.00  0.00    +0.000 C 
ATOM      3  C   UNL     1       3.893   4.903  17.588  0.00  0.00    +0.000 C 
ATOM      4  C   UNL     1       5.242   5.473  15.533  0.00  0.00    +0.000 C 
ATOM      5  S   UNL     1       6.389   4.082  15.537  0.00  0.00    +0.000 S 
ATOM      6  C   UNL     1       7.178   4.606  17.014  0.00  0.00    +0.000 C 
ATOM      7  O   UNL     1       8.262   4.170  17.357  0.00  0.00    +0.000 OA
ATOM      8  C   UNL     1       6.383   5.683  17.755  0.00  0.00    +0.000 C 
ATOM      9  C   UNL     1       7.234   6.967  17.730  0.00  0.00    +0.000 C 
ATOM     10  C   UNL     1       6.256   5.225  19.220  0.00  0.00    +0.000 C 
ENDROOT
TORSDOF 0
ENDMDL
MODEL 7
REMARK VINA RESULT:      -5.0      1.967      2.861
REMARK  Name = 
REMARK  4 active torsions:
REMARK  status: ('A' for Active; 'I' for Inactive)
REMARK    1  A    between atoms: C_1  and  C_2
REMARK    2  A    between atoms: C_2  and  C_3
REMARK    3  A    between atoms: C_8  and  C_9
REMARK    4  A    between atoms: C_8  and  C_10
REMARK                            x       y       z     vdW  Elec       q    Type
REMARK                         _______ _______ _______ _____ _____    ______ ____
ROOT
ATOM      1  C   UNL     1       4.191   5.053  19.297  0.00  0.00    +0.000 C 
ATOM      2  C   UNL     1       3.375   3.785  19.627  0.00  0.00    +0.000 C 
ATOM      3  C   UNL     1       4.404   2.665  19.917  0.00  0.00    +0.000 C 
ATOM      4  C   UNL     1       2.557   4.075  20.901  0.00  0.00    +0.000 C 
ATOM      5  S   UNL     1       1.236   2.848  20.937  0.00  0.00    +0.000 S 
ATOM      6  C   UNL     1       1.138   2.755  19.188  0.00  0.00    +0.000 C 
ATOM      7  O   UNL     1       0.181   2.258  18.620  0.00  0.00    +0.000 OA
ATOM      8  C   UNL     1       2.338   3.403  18.496  0.00  0.00    +0.000 C 
ATOM      9  C   UNL     1       1.803   4.618  17.713  0.00  0.00    +0.000 C 
ATOM     10  C   UNL     1       2.880   2.384  17.478  0.00  0.00    +0.000 C 
ENDROOT
TORSDOF 0
ENDMDL
MODEL 8
REMARK VINA RESULT:      -5.0      1.962      2.815
REMARK  Name = 
REMARK  4 active torsions:
REMARK  status: ('A' for Active; 'I' for Inactive)
REMARK    1  A    between atoms: C_1  and  C_2
REMARK    2  A    between atoms: C_2  and  C_3
REMARK    3  A    between atoms: C_8  and  C_9
REMARK    4  A    between atoms: C_8  and  C_10
REMARK                            x       y       z     vdW  Elec       q    Type
REMARK                         _______ _______ _______ _____ _____    ______ ____
ROOT
ATOM      1  C   UNL     1       0.709   3.573  20.075  0.00  0.00    +0.000 C 
ATOM      2  C   UNL     1       1.928   4.005  19.231  0.00  0.00    +0.000 C 
ATOM      3  C   UNL     1       1.456   4.019  17.756  0.00  0.00    +0.000 C 
ATOM      4  C   UNL     1       2.311   5.434  19.662  0.00  0.00    +0.000 C 
ATOM      5  S   UNL     1       4.007   5.686  19.105  0.00  0.00    +0.000 S 
ATOM      6  C   UNL     1       4.428   3.994  19.296  0.00  0.00    +0.000 C 
ATOM      7  O   UNL     1       5.586   3.616  19.325  0.00  0.00    +0.000 OA
ATOM      8  C   UNL     1       3.201   3.098  19.472  0.00  0.00    +0.000 C 
ATOM      9  C   UNL     1       3.277   2.505  20.892  0.00  0.00    +0.000 C 
ATOM     10  C   UNL     1       3.336   1.941  18.466  0.00  0.00    +0.000 C 
ENDROOT
TORSDOF 0
ENDMDL
MODEL 9
REMARK VINA RESULT:      -5.0      1.486      1.900
REMARK  Name = 
REMARK  4 active torsions:
REMARK  status: ('A' for Active; 'I' for Inactive)
REMARK    1  A    between atoms: C_1  and  C_2
REMARK    2  A    between atoms: C_2  and  C_3
REMARK    3  A    between atoms: C_8  and  C_9
REMARK    4  A    between atoms: C_8  and  C_10
REMARK                            x       y       z     vdW  Elec       q    Type
REMARK                         _______ _______ _______ _____ _____    ______ ____
ROOT
ATOM      1  C   UNL     1       1.510   4.694  17.873  0.00  0.00    +0.000 C 
ATOM      2  C   UNL     1       1.978   3.379  18.533  0.00  0.00    +0.000 C 
ATOM      3  C   UNL     1       0.696   2.621  18.958  0.00  0.00    +0.000 C 
ATOM      4  C   UNL     1       2.728   2.561  17.463  0.00  0.00    +0.000 C 
ATOM      5  S   UNL     1       3.720   1.353  18.361  0.00  0.00    +0.000 S 
ATOM      6  C   UNL     1       3.944   2.414  19.741  0.00  0.00    +0.000 C 
ATOM      7  O   UNL     1       4.805   2.210  20.579  0.00  0.00    +0.000 OA
ATOM      8  C   UNL     1       2.991   3.610  19.724  0.00  0.00    +0.000 C 
ATOM      9  C   UNL     1       3.859   4.873  19.561  0.00  0.00    +0.000 C 
ATOM     10  C   UNL     1       2.317   3.672  21.107  0.00  0.00    +0.000 C 
ENDROOT
TORSDOF 0
ENDMDL
