MODEL 1
REMARK VINA RESULT:      -7.2      0.000      0.000
REMARK  Name = 
REMARK  5 active torsions:
REMARK  status: ('A' for Active; 'I' for Inactive)
REMARK    1  A    between atoms: C_1  and  C_2
REMARK    2  A    between atoms: C_2  and  N_3
REMARK    3  A    between atoms: C_7  and  N_8
REMARK    4  A    between atoms: C_9  and  C_11
REMARK    5  A    between atoms: C_11  and  C_12
REMARK                            x       y       z     vdW  Elec       q    Type
REMARK                         _______ _______ _______ _____ _____    ______ ____
ROOT
ATOM      1  N   UNL     1       4.756   3.571  17.055  0.00  0.00    +0.000 N 
ATOM      2  C   UNL     1       3.887   4.389  17.856  0.00  0.00    +0.000 C 
ATOM      3  O   UNL     1       3.951   5.606  17.865  0.00  0.00    +0.000 OA
ATOM      4  H   UNL     1       4.655   2.566  17.105  0.00  0.00    +0.000 HD
ENDROOT
BRANCH   2   5
ATOM      5  C   UNL     1       2.917   3.681  18.728  0.00  0.00    +0.000 C 
ATOM      6  C   UNL     1       3.370   2.383  19.337  0.00  0.00    +0.000 C 
ATOM      7  C   UNL     1       1.982   4.543  19.590  0.00  0.00    +0.000 C 
ATOM      8  C   UNL     1       1.480   3.854  18.387  0.00  0.00    +0.000 C 
ATOM      9  F   UNL     1       1.131   4.554  17.257  0.00  0.00    +0.000 F 
ATOM     10  F   UNL     1       0.622   2.783  18.478  0.00  0.00    +0.000 F 
ENDBRANCH   2   5
BRANCH   1  15
ATOM     11  N   UNL     1       6.964   4.545  16.457  0.00  0.00    +0.000 N 
ATOM     12  N   UNL     1       7.638   4.983  15.375  0.00  0.00    +0.000 NA
ATOM     13  C   UNL     1       6.781   4.812  14.370  0.00  0.00    +0.000 A 
ATOM     14  C   UNL     1       5.561   4.264  14.802  0.00  0.00    +0.000 A 
ATOM     15  C   UNL     1       5.692   4.094  16.162  0.00  0.00    +0.000 A 
BRANCH  11  17
ATOM     16  C   UNL     1       7.520   6.039  18.347  0.00  0.00    +0.000 C 
ATOM     17  C   UNL     1       7.615   4.646  17.749  0.00  0.00    +0.000 C 
ENDBRANCH  11  17
ENDBRANCH   1  15
TORSDOF 3
ENDMDL
MODEL 2
REMARK VINA RESULT:      -7.2      1.986      2.943
REMARK  Name = 
REMARK  5 active torsions:
REMARK  status: ('A' for Active; 'I' for Inactive)
REMARK    1  A    between atoms: C_1  and  C_2
REMARK    2  A    between atoms: C_2  and  N_3
REMARK    3  A    between atoms: C_7  and  N_8
REMARK    4  A    between atoms: C_9  and  C_11
REMARK    5  A    between atoms: C_11  and  C_12
REMARK                            x       y       z     vdW  Elec       q    Type
REMARK                         _______ _______ _______ _____ _____    ______ ____
ROOT
ATOM      1  N   UNL     1       4.288   4.277  18.800  0.00  0.00    +0.000 N 
ATOM      2  C   UNL     1       4.008   3.159  19.660  0.00  0.00    +0.000 C 
ATOM      3  O   UNL     1       4.879   2.423  20.088  0.00  0.00    +0.000 OA
ATOM      4  H   UNL     1       3.514   4.840  18.473  0.00  0.00    +0.000 HD
ENDROOT
BRANCH   2   5
ATOM      5  C   UNL     1       2.581   2.901  19.978  0.00  0.00    +0.000 C 
ATOM      6  C   UNL     1       1.798   2.090  18.983  0.00  0.00    +0.000 C 
ATOM      7  C   UNL     1       2.213   2.697  21.456  0.00  0.00    +0.000 C 
ATOM      8  C   UNL     1       1.881   3.954  20.760  0.00  0.00    +0.000 C 
ATOM      9  F   UNL     1       2.535   5.127  21.055  0.00  0.00    +0.000 F 
ATOM     10  F   UNL     1       0.582   4.284  20.453  0.00  0.00    +0.000 F 
ENDBRANCH   2   5
BRANCH   1  15
ATOM     11  N   UNL     1       6.204   4.465  17.228  0.00  0.00    +0.000 N 
ATOM     12  N   UNL     1       7.454   4.966  17.183  0.00  0.00    +0.000 NA
ATOM     13  C   UNL     1       7.634   5.492  18.393  0.00  0.00    +0.000 A 
ATOM     14  C   UNL     1       6.505   5.333  19.214  0.00  0.00    +0.000 A 
ATOM     15  C   UNL     1       5.580   4.664  18.444  0.00  0.00    +0.000 A 
BRANCH  11  17
ATOM     16  C   UNL     1       6.339   4.263  14.768  0.00  0.00    +0.000 C 
ATOM     17  C   UNL     1       5.711   3.765  16.058  0.00  0.00    +0.000 C 
ENDBRANCH  11  17
ENDBRANCH   1  15
TORSDOF 3
ENDMDL
MODEL 3
REMARK VINA RESULT:      -7.0      1.047      1.159
REMARK  Name = 
REMARK  5 active torsions:
REMARK  status: ('A' for Active; 'I' for Inactive)
REMARK    1  A    between atoms: C_1  and  C_2
REMARK    2  A    between atoms: C_2  and  N_3
REMARK    3  A    between atoms: C_7  and  N_8
REMARK    4  A    between atoms: C_9  and  C_11
REMARK    5  A    between atoms: C_11  and  C_12
REMARK                            x       y       z     vdW  Elec       q    Type
REMARK                         _______ _______ _______ _____ _____    ______ ____
ROOT
ATOM      1  N   UNL     1       4.769   3.638  17.245  0.00  0.00    +0.000 N 
ATOM      2  C   UNL     1       3.701   4.459  17.748  0.00  0.00    +0.000 C 
ATOM      3  O   UNL     1       3.569   5.630  17.438  0.00  0.00    +0.000 OA
ATOM      4  H   UNL     1       4.824   2.676  17.553  0.00  0.00    +0.000 HD
ENDROOT
BRANCH   2   5
ATOM      5  C   UNL     1       2.771   3.828  18.717  0.00  0.00    +0.000 C 
ATOM      6  C   UNL     1       3.061   4.043  20.177  0.00  0.00    +0.000 C 
ATOM      7  C   UNL     1       1.288   3.754  18.326  0.00  0.00    +0.000 C 
ATOM      8  C   UNL     1       2.141   2.552  18.287  0.00  0.00    +0.000 C 
ATOM      9  F   UNL     1       2.515   1.979  17.094  0.00  0.00    +0.000 F 
ATOM     10  F   UNL     1       1.983   1.529  19.192  0.00  0.00    +0.000 F 
ENDBRANCH   2   5
BRANCH   1  15
ATOM     11  N   UNL     1       6.985   4.517  16.542  0.00  0.00    +0.000 N 
ATOM     12  N   UNL     1       7.645   4.870  15.421  0.00  0.00    +0.000 NA
ATOM     13  C   UNL     1       6.763   4.659  14.447  0.00  0.00    +0.000 A 
ATOM     14  C   UNL     1       5.540   4.170  14.937  0.00  0.00    +0.000 A 
ATOM     15  C   UNL     1       5.697   4.081  16.302  0.00  0.00    +0.000 A 
BRANCH  11  17
ATOM     16  C   UNL     1       7.423   6.043  18.437  0.00  0.00    +0.000 C 
ATOM     17  C   UNL     1       7.666   4.681  17.812  0.00  0.00    +0.000 C 
ENDBRANCH  11  17
ENDBRANCH   1  15
TORSDOF 3
ENDMDL
MODEL 4
REMARK VINA RESULT:      -6.9      1.488      2.620
REMARK  Name = 
REMARK  5 active torsions:
REMARK  status: ('A' for Active; 'I' for Inactive)
REMARK    1  A    between atoms: C_1  and  C_2
REMARK    2  A    between atoms: C_2  and  N_3
REMARK    3  A    between atoms: C_7  and  N_8
REMARK    4  A    between atoms: C_9  and  C_11
REMARK    5  A    between atoms: C_11  and  C_12
REMARK                            x       y       z     vdW  Elec       q    Type
REMARK                         _______ _______ _______ _____ _____    ______ ____
ROOT
ATOM      1  N   UNL     1       4.254   4.809  18.252  0.00  0.00    +0.000 N 
ATOM      2  C   UNL     1       3.593   3.830  19.070  0.00  0.00    +0.000 C 
ATOM      3  O   UNL     1       4.197   2.961  19.674  0.00  0.00    +0.000 OA
ATOM      4  H   UNL     1       3.689   5.496  17.770  0.00  0.00    +0.000 HD
ENDROOT
BRANCH   2   5
ATOM      5  C   UNL     1       2.111   3.887  19.117  0.00  0.00    +0.000 C 
ATOM      6  C   UNL     1       1.489   4.394  20.389  0.00  0.00    +0.000 C 
ATOM      7  C   UNL     1       1.377   4.244  17.816  0.00  0.00    +0.000 C 
ATOM      8  C   UNL     1       1.389   2.859  18.322  0.00  0.00    +0.000 C 
ATOM      9  F   UNL     1       2.101   1.872  17.683  0.00  0.00    +0.000 F 
ATOM     10  F   UNL     1       0.256   2.271  18.833  0.00  0.00    +0.000 F 
ENDBRANCH   2   5
BRANCH   1  15
ATOM     11  N   UNL     1       6.420   4.497  17.073  0.00  0.00    +0.000 N 
ATOM     12  N   UNL     1       7.735   4.732  17.254  0.00  0.00    +0.000 NA
ATOM     13  C   UNL     1       7.799   5.295  18.459  0.00  0.00    +0.000 A 
ATOM     14  C   UNL     1       6.532   5.425  19.051  0.00  0.00    +0.000 A 
ATOM     15  C   UNL     1       5.642   4.903  18.139  0.00  0.00    +0.000 A 
BRANCH  11  17
ATOM     16  C   UNL     1       6.288   4.658  14.610  0.00  0.00    +0.000 C 
ATOM     17  C   UNL     1       6.011   3.830  15.852  0.00  0.00    +0.000 C 
ENDBRANCH  11  17
ENDBRANCH   1  15
TORSDOF 3
ENDMDL
MODEL 5
REMARK VINA RESULT:      -6.9      1.593      2.047
REMARK  Name = 
REMARK  5 active torsions:
REMARK  status: ('A' for Active; 'I' for Inactive)
REMARK    1  A    between atoms: C_1  and  C_2
REMARK    2  A    between atoms: C_2  and  N_3
REMARK    3  A    between atoms: C_7  and  N_8
REMARK    4  A    between atoms: C_9  and  C_11
REMARK    5  A    between atoms: C_11  and  C_12
REMARK                            x       y       z     vdW  Elec       q    Type
REMARK                         _______ _______ _______ _____ _____    ______ ____
ROOT
ATOM      1  N   UNL     1       5.110   3.302  16.867  0.00  0.00    +0.000 N 
ATOM      2  C   UNL     1       3.897   3.847  17.413  0.00  0.00    +0.000 C 
ATOM      3  O   UNL     1       3.551   5.001  17.228  0.00  0.00    +0.000 OA
ATOM      4  H   UNL     1       5.341   2.339  17.070  0.00  0.00    +0.000 HD
ENDROOT
BRANCH   2   5
ATOM      5  C   UNL     1       3.085   2.947  18.269  0.00  0.00    +0.000 C 
ATOM      6  C   UNL     1       1.594   3.135  18.232  0.00  0.00    +0.000 C 
ATOM      7  C   UNL     1       3.581   1.503  18.445  0.00  0.00    +0.000 C 
ATOM      8  C   UNL     1       3.723   2.490  19.532  0.00  0.00    +0.000 C 
ATOM      9  F   UNL     1       4.954   2.987  19.889  0.00  0.00    +0.000 F 
ATOM     10  F   UNL     1       2.975   2.403  20.683  0.00  0.00    +0.000 F 
ENDBRANCH   2   5
BRANCH   1  15
ATOM     11  N   UNL     1       6.851   5.005  16.371  0.00  0.00    +0.000 N 
ATOM     12  N   UNL     1       7.539   5.501  15.323  0.00  0.00    +0.000 NA
ATOM     13  C   UNL     1       7.072   4.818  14.279  0.00  0.00    +0.000 A 
ATOM     14  C   UNL     1       6.090   3.886  14.653  0.00  0.00    +0.000 A 
ATOM     15  C   UNL     1       5.955   4.016  16.017  0.00  0.00    +0.000 A 
BRANCH  11  17
ATOM     16  C   UNL     1       7.562   7.028  17.601  0.00  0.00    +0.000 C 
ATOM     17  C   UNL     1       7.094   5.586  17.678  0.00  0.00    +0.000 C 
ENDBRANCH  11  17
ENDBRANCH   1  15
TORSDOF 3
ENDMDL
MODEL 6
REMARK VINA RESULT:      -6.9      1.665      1.854
REMARK  Name = 
REMARK  5 active torsions:
REMARK  status: ('A' for Active; 'I' for Inactive)
REMARK    1  A    between atoms: C_1  and  C_2
REMARK    2  A    between atoms: C_2  and  N_3
REMARK    3  A    between atoms: C_7  and  N_8
REMARK    4  A    between atoms: C_9  and  C_11
REMARK    5  A    between atoms: C_11  and  C_12
REMARK                            x       y       z     vdW  Elec       q    Type
REMARK                         _______ _______ _______ _____ _____    ______ ____
ROOT
ATOM      1  N   UNL     1       4.201   4.563  17.088  0.00  0.00    +0.000 N 
ATOM      2  C   UNL     1       4.218   4.012  18.415  0.00  0.00    +0.000 C 
ATOM      3  O   UNL     1       5.236   3.610  18.949  0.00  0.00    +0.000 OA
ATOM      4  H   UNL     1       3.317   4.867  16.702  0.00  0.00    +0.000 HD
ENDROOT
BRANCH   2   5
ATOM      5  C   UNL     1       2.911   3.903  19.111  0.00  0.00    +0.000 C 
ATOM      6  C   UNL     1       2.689   4.812  20.288  0.00  0.00    +0.000 C 
ATOM      7  C   UNL     1       1.676   3.598  18.250  0.00  0.00    +0.000 C 
ATOM      8  C   UNL     1       2.275   2.559  19.109  0.00  0.00    +0.000 C 
ATOM      9  F   UNL     1       2.951   1.490  18.570  0.00  0.00    +0.000 F 
ATOM     10  F   UNL     1       1.636   2.103  20.237  0.00  0.00    +0.000 F 
ENDBRANCH   2   5
BRANCH   1  15
ATOM     11  N   UNL     1       6.263   5.793  16.445  0.00  0.00    +0.000 N 
ATOM     12  N   UNL     1       7.286   5.704  15.572  0.00  0.00    +0.000 NA
ATOM     13  C   UNL     1       7.025   4.596  14.881  0.00  0.00    +0.000 A 
ATOM     14  C   UNL     1       5.840   3.973  15.307  0.00  0.00    +0.000 A 
ATOM     15  C   UNL     1       5.354   4.761  16.326  0.00  0.00    +0.000 A 
BRANCH  11  17
ATOM     16  C   UNL     1       7.600   7.522  17.600  0.00  0.00    +0.000 C 
ATOM     17  C   UNL     1       6.223   6.943  17.328  0.00  0.00    +0.000 C 
ENDBRANCH  11  17
ENDBRANCH   1  15
TORSDOF 3
ENDMDL
MODEL 7
REMARK VINA RESULT:      -6.8      1.385      1.677
REMARK  Name = 
REMARK  5 active torsions:
REMARK  status: ('A' for Active; 'I' for Inactive)
REMARK    1  A    between atoms: C_1  and  C_2
REMARK    2  A    between atoms: C_2  and  N_3
REMARK    3  A    between atoms: C_7  and  N_8
REMARK    4  A    between atoms: C_9  and  C_11
REMARK    5  A    between atoms: C_11  and  C_12
REMARK                            x       y       z     vdW  Elec       q    Type
REMARK                         _______ _______ _______ _____ _____    ______ ____
ROOT
ATOM      1  N   UNL     1       4.605   3.995  16.842  0.00  0.00    +0.000 N 
ATOM      2  C   UNL     1       3.747   4.940  17.502  0.00  0.00    +0.000 C 
ATOM      3  O   UNL     1       3.885   6.145  17.391  0.00  0.00    +0.000 OA
ATOM      4  H   UNL     1       4.439   3.008  16.988  0.00  0.00    +0.000 HD
ENDROOT
BRANCH   2   5
ATOM      5  C   UNL     1       2.689   4.383  18.382  0.00  0.00    +0.000 C 
ATOM      6  C   UNL     1       1.380   4.029  17.733  0.00  0.00    +0.000 C 
ATOM      7  C   UNL     1       3.138   3.476  19.538  0.00  0.00    +0.000 C 
ATOM      8  C   UNL     1       2.690   4.858  19.791  0.00  0.00    +0.000 C 
ATOM      9  F   UNL     1       3.575   5.837  20.176  0.00  0.00    +0.000 F 
ATOM     10  F   UNL     1       1.498   5.122  20.424  0.00  0.00    +0.000 F 
ENDBRANCH   2   5
BRANCH   1  15
ATOM     11  N   UNL     1       6.894   4.782  16.280  0.00  0.00    +0.000 N 
ATOM     12  N   UNL     1       7.652   5.063  15.200  0.00  0.00    +0.000 NA
ATOM     13  C   UNL     1       6.843   4.827  14.169  0.00  0.00    +0.000 A 
ATOM     14  C   UNL     1       5.571   4.394  14.581  0.00  0.00    +0.000 A 
ATOM     15  C   UNL     1       5.617   4.368  15.957  0.00  0.00    +0.000 A 
BRANCH  11  17
ATOM     16  C   UNL     1       7.431   6.443  18.030  0.00  0.00    +0.000 C 
ATOM     17  C   UNL     1       7.478   4.990  17.591  0.00  0.00    +0.000 C 
ENDBRANCH  11  17
ENDBRANCH   1  15
TORSDOF 3
ENDMDL
MODEL 8
REMARK VINA RESULT:      -6.8      1.975      2.281
REMARK  Name = 
REMARK  5 active torsions:
REMARK  status: ('A' for Active; 'I' for Inactive)
REMARK    1  A    between atoms: C_1  and  C_2
REMARK    2  A    between atoms: C_2  and  N_3
REMARK    3  A    between atoms: C_7  and  N_8
REMARK    4  A    between atoms: C_9  and  C_11
REMARK    5  A    between atoms: C_11  and  C_12
REMARK                            x       y       z     vdW  Elec       q    Type
REMARK                         _______ _______ _______ _____ _____    ______ ____
ROOT
ATOM      1  N   UNL     1       3.648   4.119  18.122  0.00  0.00    +0.000 N 
ATOM      2  C   UNL     1       3.304   2.986  18.937  0.00  0.00    +0.000 C 
ATOM      3  O   UNL     1       4.010   1.996  19.020  0.00  0.00    +0.000 OA
ATOM      4  H   UNL     1       3.010   4.903  18.091  0.00  0.00    +0.000 HD
ENDROOT
BRANCH   2   5
ATOM      5  C   UNL     1       2.006   3.047  19.655  0.00  0.00    +0.000 C 
ATOM      6  C   UNL     1       0.795   2.556  18.912  0.00  0.00    +0.000 C 
ATOM      7  C   UNL     1       2.024   2.787  21.168  0.00  0.00    +0.000 C 
ATOM      8  C   UNL     1       1.851   4.152  20.638  0.00  0.00    +0.000 C 
ATOM      9  F   UNL     1       2.842   5.096  20.759  0.00  0.00    +0.000 F 
ATOM     10  F   UNL     1       0.650   4.814  20.737  0.00  0.00    +0.000 F 
ENDBRANCH   2   5
BRANCH   1  15
ATOM     11  N   UNL     1       6.055   4.695  17.896  0.00  0.00    +0.000 N 
ATOM     12  N   UNL     1       7.043   4.657  16.979  0.00  0.00    +0.000 NA
ATOM     13  C   UNL     1       6.456   4.153  15.895  0.00  0.00    +0.000 A 
ATOM     14  C   UNL     1       5.098   3.865  16.113  0.00  0.00    +0.000 A 
ATOM     15  C   UNL     1       4.849   4.221  17.419  0.00  0.00    +0.000 A 
BRANCH  11  17
ATOM     16  C   UNL     1       7.753   5.856  19.268  0.00  0.00    +0.000 C 
ATOM     17  C   UNL     1       6.361   5.252  19.200  0.00  0.00    +0.000 C 
ENDBRANCH  11  17
ENDBRANCH   1  15
TORSDOF 3
ENDMDL
MODEL 9
REMARK VINA RESULT:      -6.7      1.649      2.681
REMARK  Name = 
REMARK  5 active torsions:
REMARK  status: ('A' for Active; 'I' for Inactive)
REMARK    1  A    between atoms: C_1  and  C_2
REMARK    2  A    between atoms: C_2  and  N_3
REMARK    3  A    between atoms: C_7  and  N_8
REMARK    4  A    between atoms: C_9  and  C_11
REMARK    5  A    between atoms: C_11  and  C_12
REMARK                            x       y       z     vdW  Elec       q    Type
REMARK                         _______ _______ _______ _____ _____    ______ ____
ROOT
ATOM      1  N   UNL     1       4.361   4.714  19.163  0.00  0.00    +0.000 N 
ATOM      2  C   UNL     1       3.913   3.489  19.766  0.00  0.00    +0.000 C 
ATOM      3  O   UNL     1       4.607   2.489  19.819  0.00  0.00    +0.000 OA
ATOM      4  H   UNL     1       3.727   5.503  19.144  0.00  0.00    +0.000 HD
ENDROOT
BRANCH   2   5
ATOM      5  C   UNL     1       2.526   3.470  20.294  0.00  0.00    +0.000 C 
ATOM      6  C   UNL     1       2.306   2.769  21.606  0.00  0.00    +0.000 C 
ATOM      7  C   UNL     1       1.655   4.709  20.035  0.00  0.00    +0.000 C 
ATOM      8  C   UNL     1       1.438   3.461  19.281  0.00  0.00    +0.000 C 
ATOM      9  F   UNL     1       1.755   3.369  17.946  0.00  0.00    +0.000 F 
ATOM     10  F   UNL     1       0.322   2.684  19.484  0.00  0.00    +0.000 F 
ENDBRANCH   2   5
BRANCH   1  15
ATOM     11  N   UNL     1       6.105   4.548  17.400  0.00  0.00    +0.000 N 
ATOM     12  N   UNL     1       7.402   4.860  17.201  0.00  0.00    +0.000 NA
ATOM     13  C   UNL     1       7.781   5.412  18.351  0.00  0.00    +0.000 A 
ATOM     14  C   UNL     1       6.735   5.458  19.288  0.00  0.00    +0.000 A 
ATOM     15  C   UNL     1       5.649   4.893  18.657  0.00  0.00    +0.000 A 
BRANCH  11  17
ATOM     16  C   UNL     1       6.055   4.067  14.976  0.00  0.00    +0.000 C 
ATOM     17  C   UNL     1       5.398   3.871  16.331  0.00  0.00    +0.000 C 
ENDBRANCH  11  17
ENDBRANCH   1  15
TORSDOF 3
ENDMDL
