MODEL 1
REMARK VINA RESULT:      -9.0      0.000      0.000
REMARK  Name = 
REMARK  7 active torsions:
REMARK  status: ('A' for Active; 'I' for Inactive)
REMARK    1  A    between atoms: C_1  and  C_2
REMARK    2  A    between atoms: C_2  and  N_3
REMARK    3  A    between atoms: C_12  and  S_13
REMARK    4  A    between atoms: S_13  and  C_14
REMARK    5  A    between atoms: C_14  and  C_15
REMARK    6  A    between atoms: N_17  and  C_18
REMARK    7  A    between atoms: C_22  and  C_23
REMARK                            x       y       z     vdW  Elec       q    Type
REMARK                         _______ _______ _______ _____ _____    ______ ____
ROOT
ATOM      1  N   UNL     1       1.082  11.145  19.441  0.00  0.00    +0.000 N 
ATOM      2  C   UNL     1       0.426  10.635  20.641  0.00  0.00    +0.000 A 
ATOM      3  C   UNL     1      -0.221  11.533  21.516  0.00  0.00    +0.000 A 
ATOM      4  C   UNL     1      -0.668  11.137  22.777  0.00  0.00    +0.000 A 
ATOM      5  C   UNL     1      -0.447   9.840  23.206  0.00  0.00    +0.000 A 
ATOM      6  C   UNL     1       0.200   8.934  22.364  0.00  0.00    +0.000 A 
ATOM      7  C   UNL     1       0.650   9.301  21.069  0.00  0.00    +0.000 A 
ATOM      8  C   UNL     1       1.346   8.309  20.221  0.00  0.00    +0.000 A 
ATOM      9  N   UNL     1       1.608   7.088  20.767  0.00  0.00    +0.000 NA
ATOM     10  C   UNL     1       2.245   6.172  20.011  0.00  0.00    +0.000 A 
ATOM     11  N   UNL     1       2.644   6.371  18.742  0.00  0.00    +0.000 NA
ATOM     12  C   UNL     1       2.344   7.573  18.219  0.00  0.00    +0.000 A 
ATOM     13  C   UNL     1       1.703   8.555  18.930  0.00  0.00    +0.000 A 
ATOM     14  S   UNL     1       1.350  10.055  18.172  0.00  0.00    +0.000 S 
ATOM     15  O   UNL     1       0.105   9.879  17.447  0.00  0.00    +0.000 OA
ATOM     16  O   UNL     1       2.549  10.476  17.484  0.00  0.00    +0.000 OA
ENDROOT
BRANCH   1  18
ATOM     17  C   UNL     1       1.945  13.439  19.199  0.00  0.00    +0.000 C 
ATOM     18  C   UNL     1       0.766  12.516  18.935  0.00  0.00    +0.000 C 
ENDBRANCH   1  18
BRANCH  10  19
ATOM     19  S   UNL     1       2.534   4.579  20.729  0.00  0.00    +0.000 S 
BRANCH  19  20
ATOM     20  C   UNL     1       2.618   3.555  19.224  0.00  0.00    +0.000 C 
BRANCH  20  21
ATOM     21  C   UNL     1       3.958   3.717  18.516  0.00  0.00    +0.000 C 
ATOM     22  O   UNL     1       5.027   3.556  19.104  0.00  0.00    +0.000 OA
ATOM     23  N   UNL     1       3.842   4.090  17.187  0.00  0.00    +0.000 N 
ATOM     24  H   UNL     1       3.009   4.629  16.969  0.00  0.00    +0.000 HD
BRANCH  23  25
ATOM     25  C   UNL     1       4.962   4.295  16.357  0.00  0.00    +0.000 A 
ATOM     26  C   UNL     1       5.986   5.120  16.825  0.00  0.00    +0.000 A 
ATOM     27  C   UNL     1       7.099   5.379  16.028  0.00  0.00    +0.000 A 
ATOM     28  C   UNL     1       7.158   4.881  14.727  0.00  0.00    +0.000 A 
ATOM     29  C   UNL     1       6.116   4.088  14.222  0.00  0.00    +0.000 A 
ATOM     30  C   UNL     1       5.037   3.757  15.066  0.00  0.00    +0.000 A 
BRANCH  29  31
ATOM     31  C   UNL     1       6.122   3.645  12.777  0.00  0.00    +0.000 C 
ATOM     32  F   UNL     1       4.963   3.938  12.118  0.00  0.00    +0.000 F 
ATOM     33  F   UNL     1       7.118   4.209  12.044  0.00  0.00    +0.000 F 
ATOM     34  F   UNL     1       6.278   2.296  12.653  0.00  0.00    +0.000 F 
ENDBRANCH  29  31
ENDBRANCH  23  25
ENDBRANCH  20  21
ENDBRANCH  19  20
ENDBRANCH  10  19
TORSDOF 6
ENDMDL
MODEL 2
REMARK VINA RESULT:      -8.9      0.954      1.212
REMARK  Name = 
REMARK  7 active torsions:
REMARK  status: ('A' for Active; 'I' for Inactive)
REMARK    1  A    between atoms: C_1  and  C_2
REMARK    2  A    between atoms: C_2  and  N_3
REMARK    3  A    between atoms: C_12  and  S_13
REMARK    4  A    between atoms: S_13  and  C_14
REMARK    5  A    between atoms: C_14  and  C_15
REMARK    6  A    between atoms: N_17  and  C_18
REMARK    7  A    between atoms: C_22  and  C_23
REMARK                            x       y       z     vdW  Elec       q    Type
REMARK                         _______ _______ _______ _____ _____    ______ ____
ROOT
ATOM      1  N   UNL     1       0.794  11.410  19.720  0.00  0.00    +0.000 N 
ATOM      2  C   UNL     1       0.091  10.853  20.871  0.00  0.00    +0.000 A 
ATOM      3  C   UNL     1      -0.614  11.713  21.741  0.00  0.00    +0.000 A 
ATOM      4  C   UNL     1      -1.114  11.271  22.966  0.00  0.00    +0.000 A 
ATOM      5  C   UNL     1      -0.889   9.966  23.367  0.00  0.00    +0.000 A 
ATOM      6  C   UNL     1      -0.187   9.097  22.531  0.00  0.00    +0.000 A 
ATOM      7  C   UNL     1       0.318   9.510  21.270  0.00  0.00    +0.000 A 
ATOM      8  C   UNL     1       1.071   8.556  20.428  0.00  0.00    +0.000 A 
ATOM      9  N   UNL     1       1.329   7.324  20.950  0.00  0.00    +0.000 NA
ATOM     10  C   UNL     1       2.018   6.442  20.199  0.00  0.00    +0.000 A 
ATOM     11  N   UNL     1       2.473   6.686  18.957  0.00  0.00    +0.000 NA
ATOM     12  C   UNL     1       2.177   7.898  18.455  0.00  0.00    +0.000 A 
ATOM     13  C   UNL     1       1.485   8.848  19.163  0.00  0.00    +0.000 A 
ATOM     14  S   UNL     1       1.141  10.364  18.434  0.00  0.00    +0.000 S 
ATOM     15  O   UNL     1      -0.064  10.189  17.645  0.00  0.00    +0.000 OA
ATOM     16  O   UNL     1       2.364  10.825  17.817  0.00  0.00    +0.000 OA
ENDROOT
BRANCH   1  18
ATOM     17  C   UNL     1       1.619  13.727  19.601  0.00  0.00    +0.000 C 
ATOM     18  C   UNL     1       0.478  12.790  19.240  0.00  0.00    +0.000 C 
ENDBRANCH   1  18
BRANCH  10  19
ATOM     19  S   UNL     1       2.300   4.833  20.882  0.00  0.00    +0.000 S 
BRANCH  19  20
ATOM     20  C   UNL     1       1.804   3.789  19.474  0.00  0.00    +0.000 C 
BRANCH  20  21
ATOM     21  C   UNL     1       2.989   3.479  18.567  0.00  0.00    +0.000 C 
ATOM     22  O   UNL     1       3.108   2.393  18.003  0.00  0.00    +0.000 OA
ATOM     23  N   UNL     1       3.908   4.512  18.481  0.00  0.00    +0.000 N 
ATOM     24  H   UNL     1       3.954   5.108  19.303  0.00  0.00    +0.000 HD
BRANCH  23  25
ATOM     25  C   UNL     1       5.076   4.425  17.697  0.00  0.00    +0.000 A 
ATOM     26  C   UNL     1       6.305   4.642  18.321  0.00  0.00    +0.000 A 
ATOM     27  C   UNL     1       7.486   4.599  17.583  0.00  0.00    +0.000 A 
ATOM     28  C   UNL     1       7.438   4.418  16.202  0.00  0.00    +0.000 A 
ATOM     29  C   UNL     1       6.208   4.245  15.548  0.00  0.00    +0.000 A 
ATOM     30  C   UNL     1       5.027   4.201  16.316  0.00  0.00    +0.000 A 
BRANCH  29  31
ATOM     31  C   UNL     1       6.145   4.166  14.041  0.00  0.00    +0.000 C 
ATOM     32  F   UNL     1       7.033   4.997  13.420  0.00  0.00    +0.000 F 
ATOM     33  F   UNL     1       6.400   2.923  13.554  0.00  0.00    +0.000 F 
ATOM     34  F   UNL     1       4.921   4.519  13.556  0.00  0.00    +0.000 F 
ENDBRANCH  29  31
ENDBRANCH  23  25
ENDBRANCH  20  21
ENDBRANCH  19  20
ENDBRANCH  10  19
TORSDOF 6
ENDMDL
MODEL 3
REMARK VINA RESULT:      -8.5      4.728      6.884
REMARK  Name = 
REMARK  7 active torsions:
REMARK  status: ('A' for Active; 'I' for Inactive)
REMARK    1  A    between atoms: C_1  and  C_2
REMARK    2  A    between atoms: C_2  and  N_3
REMARK    3  A    between atoms: C_12  and  S_13
REMARK    4  A    between atoms: S_13  and  C_14
REMARK    5  A    between atoms: C_14  and  C_15
REMARK    6  A    between atoms: N_17  and  C_18
REMARK    7  A    between atoms: C_22  and  C_23
REMARK                            x       y       z     vdW  Elec       q    Type
REMARK                         _______ _______ _______ _____ _____    ______ ____
ROOT
ATOM      1  N   UNL     1      -5.199  12.006  19.188  0.00  0.00    +0.000 N 
ATOM      2  C   UNL     1      -4.298  11.798  18.059  0.00  0.00    +0.000 A 
ATOM      3  C   UNL     1      -4.834  11.550  16.777  0.00  0.00    +0.000 A 
ATOM      4  C   UNL     1      -4.034  11.129  15.715  0.00  0.00    +0.000 A 
ATOM      5  C   UNL     1      -2.682  10.912  15.919  0.00  0.00    +0.000 A 
ATOM      6  C   UNL     1      -2.128  11.140  17.180  0.00  0.00    +0.000 A 
ATOM      7  C   UNL     1      -2.912  11.586  18.276  0.00  0.00    +0.000 A 
ATOM      8  C   UNL     1      -2.281  11.797  19.597  0.00  0.00    +0.000 A 
ATOM      9  N   UNL     1      -0.967  11.460  19.727  0.00  0.00    +0.000 NA
ATOM     10  C   UNL     1      -0.375  11.641  20.924  0.00  0.00    +0.000 A 
ATOM     11  N   UNL     1      -0.989  12.138  22.014  0.00  0.00    +0.000 NA
ATOM     12  C   UNL     1      -2.275  12.491  21.847  0.00  0.00    +0.000 A 
ATOM     13  C   UNL     1      -2.944  12.331  20.660  0.00  0.00    +0.000 A 
ATOM     14  S   UNL     1      -4.585  12.824  20.539  0.00  0.00    +0.000 S 
ATOM     15  O   UNL     1      -4.578  14.247  20.251  0.00  0.00    +0.000 OA
ATOM     16  O   UNL     1      -5.268  12.313  21.704  0.00  0.00    +0.000 OA
ENDROOT
BRANCH   1  18
ATOM     17  C   UNL     1      -7.506  11.196  19.475  0.00  0.00    +0.000 C 
ATOM     18  C   UNL     1      -6.640  12.331  18.954  0.00  0.00    +0.000 C 
ENDBRANCH   1  18
BRANCH  10  19
ATOM     19  S   UNL     1       1.344  11.238  21.056  0.00  0.00    +0.000 S 
BRANCH  19  20
ATOM     20  C   UNL     1       1.231   9.519  21.647  0.00  0.00    +0.000 C 
BRANCH  20  21
ATOM     21  C   UNL     1       1.458   8.526  20.514  0.00  0.00    +0.000 C 
ATOM     22  O   UNL     1       1.202   8.806  19.343  0.00  0.00    +0.000 OA
ATOM     23  N   UNL     1       1.934   7.296  20.939  0.00  0.00    +0.000 N 
ATOM     24  H   UNL     1       1.658   7.038  21.882  0.00  0.00    +0.000 HD
BRANCH  23  25
ATOM     25  C   UNL     1       2.206   6.239  20.048  0.00  0.00    +0.000 A 
ATOM     26  C   UNL     1       2.860   6.538  18.852  0.00  0.00    +0.000 A 
ATOM     27  C   UNL     1       3.123   5.532  17.924  0.00  0.00    +0.000 A 
ATOM     28  C   UNL     1       2.661   4.237  18.150  0.00  0.00    +0.000 A 
ATOM     29  C   UNL     1       1.960   3.926  19.326  0.00  0.00    +0.000 A 
ATOM     30  C   UNL     1       1.779   4.929  20.299  0.00  0.00    +0.000 A 
BRANCH  29  31
ATOM     31  C   UNL     1       1.360   2.553  19.520  0.00  0.00    +0.000 C 
ATOM     32  F   UNL     1       2.219   1.539  19.209  0.00  0.00    +0.000 F 
ATOM     33  F   UNL     1       0.954   2.316  20.795  0.00  0.00    +0.000 F 
ATOM     34  F   UNL     1       0.266   2.354  18.731  0.00  0.00    +0.000 F 
ENDBRANCH  29  31
ENDBRANCH  23  25
ENDBRANCH  20  21
ENDBRANCH  19  20
ENDBRANCH  10  19
TORSDOF 6
ENDMDL
MODEL 4
REMARK VINA RESULT:      -8.3      5.473      9.889
REMARK  Name = 
REMARK  7 active torsions:
REMARK  status: ('A' for Active; 'I' for Inactive)
REMARK    1  A    between atoms: C_1  and  C_2
REMARK    2  A    between atoms: C_2  and  N_3
REMARK    3  A    between atoms: C_12  and  S_13
REMARK    4  A    between atoms: S_13  and  C_14
REMARK    5  A    between atoms: C_14  and  C_15
REMARK    6  A    between atoms: N_17  and  C_18
REMARK    7  A    between atoms: C_22  and  C_23
REMARK                            x       y       z     vdW  Elec       q    Type
REMARK                         _______ _______ _______ _____ _____    ______ ____
ROOT
ATOM      1  N   UNL     1       3.902   4.053  19.064  0.00  0.00    +0.000 N 
ATOM      2  C   UNL     1       4.305   4.594  17.770  0.00  0.00    +0.000 A 
ATOM      3  C   UNL     1       5.179   3.852  16.946  0.00  0.00    +0.000 A 
ATOM      4  C   UNL     1       5.769   4.409  15.811  0.00  0.00    +0.000 A 
ATOM      5  C   UNL     1       5.524   5.733  15.491  0.00  0.00    +0.000 A 
ATOM      6  C   UNL     1       4.671   6.492  16.293  0.00  0.00    +0.000 A 
ATOM      7  C   UNL     1       4.042   5.950  17.444  0.00  0.00    +0.000 A 
ATOM      8  C   UNL     1       3.159   6.800  18.273  0.00  0.00    +0.000 A 
ATOM      9  N   UNL     1       3.060   8.117  17.937  0.00  0.00    +0.000 NA
ATOM     10  C   UNL     1       2.263   8.909  18.682  0.00  0.00    +0.000 A 
ATOM     11  N   UNL     1       1.548   8.494  19.743  0.00  0.00    +0.000 NA
ATOM     12  C   UNL     1       1.641   7.184  20.032  0.00  0.00    +0.000 A 
ATOM     13  C   UNL     1       2.435   6.320  19.322  0.00  0.00    +0.000 A 
ATOM     14  S   UNL     1       2.479   4.659  19.756  0.00  0.00    +0.000 S 
ATOM     15  O   UNL     1       1.346   4.023  19.109  0.00  0.00    +0.000 OA
ATOM     16  O   UNL     1       2.635   4.600  21.191  0.00  0.00    +0.000 OA
ENDROOT
BRANCH   1  18
ATOM     17  C   UNL     1       3.284   1.771  18.376  0.00  0.00    +0.000 C 
ATOM     18  C   UNL     1       4.087   2.600  19.364  0.00  0.00    +0.000 C 
ENDBRANCH   1  18
BRANCH  10  19
ATOM     19  S   UNL     1       2.116  10.606  18.199  0.00  0.00    +0.000 S 
BRANCH  19  20
ATOM     20  C   UNL     1       0.846  11.171  19.376  0.00  0.00    +0.000 C 
BRANCH  20  21
ATOM     21  C   UNL     1      -0.441  11.562  18.660  0.00  0.00    +0.000 C 
ATOM     22  O   UNL     1      -0.784  12.736  18.533  0.00  0.00    +0.000 OA
ATOM     23  N   UNL     1      -1.179  10.477  18.213  0.00  0.00    +0.000 N 
ATOM     24  H   UNL     1      -1.062   9.630  18.761  0.00  0.00    +0.000 HD
BRANCH  23  25
ATOM     25  C   UNL     1      -2.403  10.623  17.530  0.00  0.00    +0.000 A 
ATOM     26  C   UNL     1      -2.372  10.715  16.137  0.00  0.00    +0.000 A 
ATOM     27  C   UNL     1      -3.552  10.892  15.418  0.00  0.00    +0.000 A 
ATOM     28  C   UNL     1      -4.761  11.059  16.092  0.00  0.00    +0.000 A 
ATOM     29  C   UNL     1      -4.806  11.016  17.494  0.00  0.00    +0.000 A 
ATOM     30  C   UNL     1      -3.621  10.747  18.208  0.00  0.00    +0.000 A 
BRANCH  29  31
ATOM     31  C   UNL     1      -6.093  11.312  18.228  0.00  0.00    +0.000 C 
ATOM     32  F   UNL     1      -6.958  12.086  17.510  0.00  0.00    +0.000 F 
ATOM     33  F   UNL     1      -6.790  10.195  18.567  0.00  0.00    +0.000 F 
ATOM     34  F   UNL     1      -5.879  11.992  19.390  0.00  0.00    +0.000 F 
ENDBRANCH  29  31
ENDBRANCH  23  25
ENDBRANCH  20  21
ENDBRANCH  19  20
ENDBRANCH  10  19
TORSDOF 6
ENDMDL
MODEL 5
REMARK VINA RESULT:      -8.2      4.012      5.749
REMARK  Name = 
REMARK  7 active torsions:
REMARK  status: ('A' for Active; 'I' for Inactive)
REMARK    1  A    between atoms: C_1  and  C_2
REMARK    2  A    between atoms: C_2  and  N_3
REMARK    3  A    between atoms: C_12  and  S_13
REMARK    4  A    between atoms: S_13  and  C_14
REMARK    5  A    between atoms: C_14  and  C_15
REMARK    6  A    between atoms: N_17  and  C_18
REMARK    7  A    between atoms: C_22  and  C_23
REMARK                            x       y       z     vdW  Elec       q    Type
REMARK                         _______ _______ _______ _____ _____    ______ ____
ROOT
ATOM      1  N   UNL     1      -4.607  12.143  19.600  0.00  0.00    +0.000 N 
ATOM      2  C   UNL     1      -3.778  11.726  18.473  0.00  0.00    +0.000 A 
ATOM      3  C   UNL     1      -4.364  11.570  17.199  0.00  0.00    +0.000 A 
ATOM      4  C   UNL     1      -3.678  10.968  16.144  0.00  0.00    +0.000 A 
ATOM      5  C   UNL     1      -2.401  10.475  16.349  0.00  0.00    +0.000 A 
ATOM      6  C   UNL     1      -1.802  10.607  17.603  0.00  0.00    +0.000 A 
ATOM      7  C   UNL     1      -2.466  11.231  18.691  0.00  0.00    +0.000 A 
ATOM      8  C   UNL     1      -1.796  11.332  20.006  0.00  0.00    +0.000 A 
ATOM      9  N   UNL     1      -0.581  10.728  20.139  0.00  0.00    +0.000 NA
ATOM     10  C   UNL     1       0.044  10.805  21.331  0.00  0.00    +0.000 A 
ATOM     11  N   UNL     1      -0.443  11.443  22.411  0.00  0.00    +0.000 NA
ATOM     12  C   UNL     1      -1.628  12.056  22.240  0.00  0.00    +0.000 A 
ATOM     13  C   UNL     1      -2.324  12.016  21.059  0.00  0.00    +0.000 A 
ATOM     14  S   UNL     1      -3.824  12.841  20.931  0.00  0.00    +0.000 S 
ATOM     15  O   UNL     1      -3.519  14.224  20.612  0.00  0.00    +0.000 OA
ATOM     16  O   UNL     1      -4.592  12.510  22.109  0.00  0.00    +0.000 OA
ENDROOT
BRANCH   1  18
ATOM     17  C   UNL     1      -7.036  11.754  19.706  0.00  0.00    +0.000 C 
ATOM     18  C   UNL     1      -5.948  12.759  19.363  0.00  0.00    +0.000 C 
ENDBRANCH   1  18
BRANCH  10  19
ATOM     19  S   UNL     1       1.641  10.052  21.467  0.00  0.00    +0.000 S 
BRANCH  19  20
ATOM     20  C   UNL     1       1.193   8.299  21.253  0.00  0.00    +0.000 C 
BRANCH  20  21
ATOM     21  C   UNL     1       1.808   7.719  19.986  0.00  0.00    +0.000 C 
ATOM     22  O   UNL     1       1.889   8.371  18.946  0.00  0.00    +0.000 OA
ATOM     23  N   UNL     1       2.220   6.403  20.120  0.00  0.00    +0.000 N 
ATOM     24  H   UNL     1       1.697   5.863  20.804  0.00  0.00    +0.000 HD
BRANCH  23  25
ATOM     25  C   UNL     1       2.812   5.682  19.064  0.00  0.00    +0.000 A 
ATOM     26  C   UNL     1       2.110   4.599  18.532  0.00  0.00    +0.000 A 
ATOM     27  C   UNL     1       2.667   3.835  17.508  0.00  0.00    +0.000 A 
ATOM     28  C   UNL     1       3.962   4.099  17.066  0.00  0.00    +0.000 A 
ATOM     29  C   UNL     1       4.702   5.155  17.622  0.00  0.00    +0.000 A 
ATOM     30  C   UNL     1       4.097   5.977  18.593  0.00  0.00    +0.000 A 
BRANCH  29  31
ATOM     31  C   UNL     1       6.145   5.369  17.227  0.00  0.00    +0.000 C 
ATOM     32  F   UNL     1       6.862   6.062  18.160  0.00  0.00    +0.000 F 
ATOM     33  F   UNL     1       6.826   4.211  17.021  0.00  0.00    +0.000 F 
ATOM     34  F   UNL     1       6.262   6.088  16.074  0.00  0.00    +0.000 F 
ENDBRANCH  29  31
ENDBRANCH  23  25
ENDBRANCH  20  21
ENDBRANCH  19  20
ENDBRANCH  10  19
TORSDOF 6
ENDMDL
MODEL 6
REMARK VINA RESULT:      -8.2      4.145      6.537
REMARK  Name = 
REMARK  7 active torsions:
REMARK  status: ('A' for Active; 'I' for Inactive)
REMARK    1  A    between atoms: C_1  and  C_2
REMARK    2  A    between atoms: C_2  and  N_3
REMARK    3  A    between atoms: C_12  and  S_13
REMARK    4  A    between atoms: S_13  and  C_14
REMARK    5  A    between atoms: C_14  and  C_15
REMARK    6  A    between atoms: N_17  and  C_18
REMARK    7  A    between atoms: C_22  and  C_23
REMARK                            x       y       z     vdW  Elec       q    Type
REMARK                         _______ _______ _______ _____ _____    ______ ____
ROOT
ATOM      1  N   UNL     1       0.310  16.040  20.405  0.00  0.00    +0.000 N 
ATOM      2  C   UNL     1       1.300  15.121  19.851  0.00  0.00    +0.000 A 
ATOM      3  C   UNL     1       2.129  15.547  18.792  0.00  0.00    +0.000 A 
ATOM      4  C   UNL     1       2.931  14.653  18.081  0.00  0.00    +0.000 A 
ATOM      5  C   UNL     1       2.896  13.305  18.392  0.00  0.00    +0.000 A 
ATOM      6  C   UNL     1       2.077  12.856  19.429  0.00  0.00    +0.000 A 
ATOM      7  C   UNL     1       1.264  13.742  20.183  0.00  0.00    +0.000 A 
ATOM      8  C   UNL     1       0.400  13.214  21.261  0.00  0.00    +0.000 A 
ATOM      9  N   UNL     1       0.356  11.862  21.427  0.00  0.00    +0.000 NA
ATOM     10  C   UNL     1      -0.429  11.362  22.402  0.00  0.00    +0.000 A 
ATOM     11  N   UNL     1      -1.178  12.104  23.237  0.00  0.00    +0.000 NA
ATOM     12  C   UNL     1      -1.090  13.435  23.071  0.00  0.00    +0.000 A 
ATOM     13  C   UNL     1      -0.318  14.015  22.097  0.00  0.00    +0.000 A 
ATOM     14  S   UNL     1      -0.258  15.727  21.971  0.00  0.00    +0.000 S 
ATOM     15  O   UNL     1       0.738  16.186  22.922  0.00  0.00    +0.000 OA
ATOM     16  O   UNL     1      -1.619  16.205  22.042  0.00  0.00    +0.000 OA
ENDROOT
BRANCH   1  18
ATOM     17  C   UNL     1      -0.622  17.905  19.096  0.00  0.00    +0.000 C 
ATOM     18  C   UNL     1       0.411  17.507  20.138  0.00  0.00    +0.000 C 
ENDBRANCH   1  18
BRANCH  10  19
ATOM     19  S   UNL     1      -0.434   9.605  22.626  0.00  0.00    +0.000 S 
BRANCH  19  20
ATOM     20  C   UNL     1       1.306   9.223  22.247  0.00  0.00    +0.000 C 
BRANCH  20  21
ATOM     21  C   UNL     1       1.429   8.399  20.971  0.00  0.00    +0.000 C 
ATOM     22  O   UNL     1       1.140   8.861  19.868  0.00  0.00    +0.000 OA
ATOM     23  N   UNL     1       1.853   7.098  21.189  0.00  0.00    +0.000 N 
ATOM     24  H   UNL     1       1.603   6.717  22.097  0.00  0.00    +0.000 HD
BRANCH  23  25
ATOM     25  C   UNL     1       2.028   6.172  20.141  0.00  0.00    +0.000 A 
ATOM     26  C   UNL     1       2.433   6.655  18.896  0.00  0.00    +0.000 A 
ATOM     27  C   UNL     1       2.589   5.783  17.820  0.00  0.00    +0.000 A 
ATOM     28  C   UNL     1       2.261   4.436  17.962  0.00  0.00    +0.000 A 
ATOM     29  C   UNL     1       1.807   3.939  19.193  0.00  0.00    +0.000 A 
ATOM     30  C   UNL     1       1.740   4.811  20.299  0.00  0.00    +0.000 A 
BRANCH  29  31
ATOM     31  C   UNL     1       1.342   2.507  19.317  0.00  0.00    +0.000 C 
ATOM     32  F   UNL     1       0.187   2.254  18.634  0.00  0.00    +0.000 F 
ATOM     33  F   UNL     1       2.249   1.604  18.859  0.00  0.00    +0.000 F 
ATOM     34  F   UNL     1       1.082   2.160  20.609  0.00  0.00    +0.000 F 
ENDBRANCH  29  31
ENDBRANCH  23  25
ENDBRANCH  20  21
ENDBRANCH  19  20
ENDBRANCH  10  19
TORSDOF 6
ENDMDL
MODEL 7
REMARK VINA RESULT:      -8.0      5.992     11.036
REMARK  Name = 
REMARK  7 active torsions:
REMARK  status: ('A' for Active; 'I' for Inactive)
REMARK    1  A    between atoms: C_1  and  C_2
REMARK    2  A    between atoms: C_2  and  N_3
REMARK    3  A    between atoms: C_12  and  S_13
REMARK    4  A    between atoms: S_13  and  C_14
REMARK    5  A    between atoms: C_14  and  C_15
REMARK    6  A    between atoms: N_17  and  C_18
REMARK    7  A    between atoms: C_22  and  C_23
REMARK                            x       y       z     vdW  Elec       q    Type
REMARK                         _______ _______ _______ _____ _____    ______ ____
ROOT
ATOM      1  N   UNL     1       3.531   3.690  19.374  0.00  0.00    +0.000 N 
ATOM      2  C   UNL     1       3.871   4.481  18.196  0.00  0.00    +0.000 A 
ATOM      3  C   UNL     1       4.759   3.954  17.235  0.00  0.00    +0.000 A 
ATOM      4  C   UNL     1       5.288   4.742  16.212  0.00  0.00    +0.000 A 
ATOM      5  C   UNL     1       4.968   6.087  16.148  0.00  0.00    +0.000 A 
ATOM      6  C   UNL     1       4.100   6.636  17.093  0.00  0.00    +0.000 A 
ATOM      7  C   UNL     1       3.531   5.858  18.134  0.00  0.00    +0.000 A 
ATOM      8  C   UNL     1       2.629   6.491  19.121  0.00  0.00    +0.000 A 
ATOM      9  N   UNL     1       2.453   7.839  19.037  0.00  0.00    +0.000 NA
ATOM     10  C   UNL     1       1.639   8.435  19.931  0.00  0.00    +0.000 A 
ATOM     11  N   UNL     1       0.974   7.792  20.908  0.00  0.00    +0.000 NA
ATOM     12  C   UNL     1       1.141   6.459  20.946  0.00  0.00    +0.000 A 
ATOM     13  C   UNL     1       1.959   5.786  20.074  0.00  0.00    +0.000 A 
ATOM     14  S   UNL     1       2.099   4.078  20.192  0.00  0.00    +0.000 S 
ATOM     15  O   UNL     1       0.982   3.511  19.458  0.00  0.00    +0.000 OA
ATOM     16  O   UNL     1       2.297   3.764  21.588  0.00  0.00    +0.000 OA
ENDROOT
BRANCH   1  18
ATOM     17  C   UNL     1       4.811   1.903  20.485  0.00  0.00    +0.000 C 
ATOM     18  C   UNL     1       3.798   2.219  19.397  0.00  0.00    +0.000 C 
ENDBRANCH   1  18
BRANCH  10  19
ATOM     19  S   UNL     1       1.392  10.182  19.773  0.00  0.00    +0.000 S 
BRANCH  19  20
ATOM     20  C   UNL     1      -0.381  10.224  19.354  0.00  0.00    +0.000 C 
BRANCH  20  21
ATOM     21  C   UNL     1      -1.087  11.384  20.045  0.00  0.00    +0.000 C 
ATOM     22  O   UNL     1      -1.584  12.313  19.410  0.00  0.00    +0.000 OA
ATOM     23  N   UNL     1      -1.077  11.296  21.428  0.00  0.00    +0.000 N 
ATOM     24  H   UNL     1      -0.282  10.795  21.815  0.00  0.00    +0.000 HD
BRANCH  23  25
ATOM     25  C   UNL     1      -1.675  12.269  22.254  0.00  0.00    +0.000 A 
ATOM     26  C   UNL     1      -0.848  13.224  22.848  0.00  0.00    +0.000 A 
ATOM     27  C   UNL     1      -1.387  14.188  23.699  0.00  0.00    +0.000 A 
ATOM     28  C   UNL     1      -2.742  14.152  24.024  0.00  0.00    +0.000 A 
ATOM     29  C   UNL     1      -3.581  13.170  23.473  0.00  0.00    +0.000 A 
ATOM     30  C   UNL     1      -3.044  12.256  22.544  0.00  0.00    +0.000 A 
BRANCH  29  31
ATOM     31  C   UNL     1      -5.021  13.058  23.914  0.00  0.00    +0.000 C 
ATOM     32  F   UNL     1      -5.855  12.619  22.926  0.00  0.00    +0.000 F 
ATOM     33  F   UNL     1      -5.203  12.207  24.958  0.00  0.00    +0.000 F 
ATOM     34  F   UNL     1      -5.533  14.258  24.311  0.00  0.00    +0.000 F 
ENDBRANCH  29  31
ENDBRANCH  23  25
ENDBRANCH  20  21
ENDBRANCH  19  20
ENDBRANCH  10  19
TORSDOF 6
ENDMDL
MODEL 8
REMARK VINA RESULT:      -8.0      4.453      6.180
REMARK  Name = 
REMARK  7 active torsions:
REMARK  status: ('A' for Active; 'I' for Inactive)
REMARK    1  A    between atoms: C_1  and  C_2
REMARK    2  A    between atoms: C_2  and  N_3
REMARK    3  A    between atoms: C_12  and  S_13
REMARK    4  A    between atoms: S_13  and  C_14
REMARK    5  A    between atoms: C_14  and  C_15
REMARK    6  A    between atoms: N_17  and  C_18
REMARK    7  A    between atoms: C_22  and  C_23
REMARK                            x       y       z     vdW  Elec       q    Type
REMARK                         _______ _______ _______ _____ _____    ______ ____
ROOT
ATOM      1  N   UNL     1      -5.612  12.809  19.062  0.00  0.00    +0.000 N 
ATOM      2  C   UNL     1      -4.989  12.969  20.372  0.00  0.00    +0.000 A 
ATOM      3  C   UNL     1      -5.706  13.598  21.412  0.00  0.00    +0.000 A 
ATOM      4  C   UNL     1      -5.091  13.975  22.606  0.00  0.00    +0.000 A 
ATOM      5  C   UNL     1      -3.733  13.762  22.774  0.00  0.00    +0.000 A 
ATOM      6  C   UNL     1      -2.998  13.150  21.758  0.00  0.00    +0.000 A 
ATOM      7  C   UNL     1      -3.598  12.739  20.539  0.00  0.00    +0.000 A 
ATOM      8  C   UNL     1      -2.773  12.111  19.484  0.00  0.00    +0.000 A 
ATOM      9  N   UNL     1      -1.429  12.035  19.700  0.00  0.00    +0.000 NA
ATOM     10  C   UNL     1      -0.660  11.470  18.749  0.00  0.00    +0.000 A 
ATOM     11  N   UNL     1      -1.122  10.965  17.590  0.00  0.00    +0.000 NA
ATOM     12  C   UNL     1      -2.454  11.024  17.420  0.00  0.00    +0.000 A 
ATOM     13  C   UNL     1      -3.298  11.590  18.341  0.00  0.00    +0.000 A 
ATOM     14  S   UNL     1      -4.989  11.608  18.041  0.00  0.00    +0.000 S 
ATOM     15  O   UNL     1      -5.508  10.323  18.473  0.00  0.00    +0.000 OA
ATOM     16  O   UNL     1      -5.174  12.057  16.680  0.00  0.00    +0.000 OA
ENDROOT
BRANCH   1  18
ATOM     17  C   UNL     1      -7.437  14.408  18.643  0.00  0.00    +0.000 C 
ATOM     18  C   UNL     1      -7.092  12.951  18.908  0.00  0.00    +0.000 C 
ENDBRANCH   1  18
BRANCH  10  19
ATOM     19  S   UNL     1       1.077  11.343  19.072  0.00  0.00    +0.000 S 
BRANCH  19  20
ATOM     20  C   UNL     1       1.135   9.728  19.912  0.00  0.00    +0.000 C 
BRANCH  20  21
ATOM     21  C   UNL     1       1.590   8.625  18.964  0.00  0.00    +0.000 C 
ATOM     22  O   UNL     1       1.380   8.681  17.753  0.00  0.00    +0.000 OA
ATOM     23  N   UNL     1       2.216   7.567  19.603  0.00  0.00    +0.000 N 
ATOM     24  H   UNL     1       1.915   7.412  20.561  0.00  0.00    +0.000 HD
BRANCH  23  25
ATOM     25  C   UNL     1       2.709   6.444  18.907  0.00  0.00    +0.000 A 
ATOM     26  C   UNL     1       3.719   6.646  17.965  0.00  0.00    +0.000 A 
ATOM     27  C   UNL     1       4.217   5.573  17.228  0.00  0.00    +0.000 A 
ATOM     28  C   UNL     1       3.651   4.307  17.370  0.00  0.00    +0.000 A 
ATOM     29  C   UNL     1       2.602   4.094  18.278  0.00  0.00    +0.000 A 
ATOM     30  C   UNL     1       2.167   5.166  19.084  0.00  0.00    +0.000 A 
BRANCH  29  31
ATOM     31  C   UNL     1       1.912   2.752  18.349  0.00  0.00    +0.000 C 
ATOM     32  F   UNL     1       2.161   2.078  19.510  0.00  0.00    +0.000 F 
ATOM     33  F   UNL     1       0.558   2.835  18.253  0.00  0.00    +0.000 F 
ATOM     34  F   UNL     1       2.311   1.914  17.351  0.00  0.00    +0.000 F 
ENDBRANCH  29  31
ENDBRANCH  23  25
ENDBRANCH  20  21
ENDBRANCH  19  20
ENDBRANCH  10  19
TORSDOF 6
ENDMDL
MODEL 9
REMARK VINA RESULT:      -8.0      4.543      6.474
REMARK  Name = 
REMARK  7 active torsions:
REMARK  status: ('A' for Active; 'I' for Inactive)
REMARK    1  A    between atoms: C_1  and  C_2
REMARK    2  A    between atoms: C_2  and  N_3
REMARK    3  A    between atoms: C_12  and  S_13
REMARK    4  A    between atoms: S_13  and  C_14
REMARK    5  A    between atoms: C_14  and  C_15
REMARK    6  A    between atoms: N_17  and  C_18
REMARK    7  A    between atoms: C_22  and  C_23
REMARK                            x       y       z     vdW  Elec       q    Type
REMARK                         _______ _______ _______ _____ _____    ______ ____
ROOT
ATOM      1  N   UNL     1      -5.222  12.437  20.521  0.00  0.00    +0.000 N 
ATOM      2  C   UNL     1      -4.586  12.205  19.229  0.00  0.00    +0.000 A 
ATOM      3  C   UNL     1      -5.382  12.107  18.067  0.00  0.00    +0.000 A 
ATOM      4  C   UNL     1      -4.857  11.670  16.851  0.00  0.00    +0.000 A 
ATOM      5  C   UNL     1      -3.529  11.286  16.776  0.00  0.00    +0.000 A 
ATOM      6  C   UNL     1      -2.721  11.365  17.912  0.00  0.00    +0.000 A 
ATOM      7  C   UNL     1      -3.221  11.822  19.159  0.00  0.00    +0.000 A 
ATOM      8  C   UNL     1      -2.329  11.870  20.338  0.00  0.00    +0.000 A 
ATOM      9  N   UNL     1      -1.067  11.378  20.192  0.00  0.00    +0.000 NA
ATOM     10  C   UNL     1      -0.241  11.409  21.257  0.00  0.00    +0.000 A 
ATOM     11  N   UNL     1      -0.570  11.898  22.467  0.00  0.00    +0.000 NA
ATOM     12  C   UNL     1      -1.810  12.405  22.572  0.00  0.00    +0.000 A 
ATOM     13  C   UNL     1      -2.707  12.403  21.534  0.00  0.00    +0.000 A 
ATOM     14  S   UNL     1      -4.265  13.087  21.759  0.00  0.00    +0.000 S 
ATOM     15  O   UNL     1      -4.136  14.516  21.538  0.00  0.00    +0.000 OA
ATOM     16  O   UNL     1      -4.774  12.579  23.013  0.00  0.00    +0.000 OA
ENDROOT
BRANCH   1  18
ATOM     17  C   UNL     1      -7.561  11.789  20.935  0.00  0.00    +0.000 C 
ATOM     18  C   UNL     1      -6.629  12.939  20.589  0.00  0.00    +0.000 C 
ENDBRANCH   1  18
BRANCH  10  19
ATOM     19  S   UNL     1       1.408  10.804  21.030  0.00  0.00    +0.000 S 
BRANCH  19  20
ATOM     20  C   UNL     1       1.141   9.021  21.292  0.00  0.00    +0.000 C 
BRANCH  20  21
ATOM     21  C   UNL     1       1.632   8.205  20.102  0.00  0.00    +0.000 C 
ATOM     22  O   UNL     1       1.539   8.620  18.948  0.00  0.00    +0.000 OA
ATOM     23  N   UNL     1       2.144   6.967  20.452  0.00  0.00    +0.000 N 
ATOM     24  H   UNL     1       1.748   6.567  21.298  0.00  0.00    +0.000 HD
BRANCH  23  25
ATOM     25  C   UNL     1       2.648   6.058  19.500  0.00  0.00    +0.000 A 
ATOM     26  C   UNL     1       3.391   6.567  18.434  0.00  0.00    +0.000 A 
ATOM     27  C   UNL     1       3.883   5.712  17.449  0.00  0.00    +0.000 A 
ATOM     28  C   UNL     1       3.566   4.356  17.481  0.00  0.00    +0.000 A 
ATOM     29  C   UNL     1       2.780   3.832  18.519  0.00  0.00    +0.000 A 
ATOM     30  C   UNL     1       2.363   4.689  19.559  0.00  0.00    +0.000 A 
BRANCH  29  31
ATOM     31  C   UNL     1       2.339   2.388  18.493  0.00  0.00    +0.000 C 
ATOM     32  F   UNL     1       2.192   1.891  17.230  0.00  0.00    +0.000 F 
ATOM     33  F   UNL     1       3.203   1.548  19.122  0.00  0.00    +0.000 F 
ATOM     34  F   UNL     1       1.130   2.207  19.096  0.00  0.00    +0.000 F 
ENDBRANCH  29  31
ENDBRANCH  23  25
ENDBRANCH  20  21
ENDBRANCH  19  20
ENDBRANCH  10  19
TORSDOF 6
ENDMDL
