MODEL 1
REMARK VINA RESULT:      -7.3      0.000      0.000
REMARK  Name = 
REMARK  2 active torsions:
REMARK  status: ('A' for Active; 'I' for Inactive)
REMARK    1  A    between atoms: C_1  and  C_2
REMARK    2  A    between atoms: C_6  and  C_7
REMARK                            x       y       z     vdW  Elec       q    Type
REMARK                         _______ _______ _______ _____ _____    ______ ____
ROOT
ATOM      1  C   UNL     1      -0.498   9.766  22.916  0.00  0.00    +0.000 C 
ATOM      2  C   UNL     1       0.210   9.407  21.661  0.00  0.00    +0.000 A 
ATOM      3  N   UNL     1       0.944   8.288  21.588  0.00  0.00    +0.000 NA
ATOM      4  N   UNL     1       1.437   8.281  20.322  0.00  0.00    +0.000 N 
ATOM      5  C   UNL     1       2.263   7.319  19.743  0.00  0.00    +0.000 A 
ATOM      6  C   UNL     1       2.671   7.457  18.469  0.00  0.00    +0.000 A 
ATOM      7  C   UNL     1       2.170   8.688  17.778  0.00  0.00    +0.000 A 
ATOM      8  N   UNL     1       1.398   9.600  18.289  0.00  0.00    +0.000 NA
ATOM      9  C   UNL     1       1.018   9.398  19.589  0.00  0.00    +0.000 A 
ATOM     10  C   UNL     1       0.223  10.126  20.446  0.00  0.00    +0.000 A 
ATOM     11 CL   UNL     1      -0.581  11.586  20.129  0.00  0.00    +0.000 Cl
ENDROOT
BRANCH   6  12
ATOM     12  C   UNL     1       3.534   6.509  17.768  0.00  0.00    +0.000 A 
ATOM     13  C   UNL     1       3.327   5.131  17.905  0.00  0.00    +0.000 A 
ATOM     14  C   UNL     1       4.089   4.227  17.159  0.00  0.00    +0.000 A 
ATOM     15  C   UNL     1       5.062   4.699  16.281  0.00  0.00    +0.000 A 
ATOM     16 CL   UNL     1       5.979   3.588  15.341  0.00  0.00    +0.000 Cl
ATOM     17  C   UNL     1       5.290   6.068  16.152  0.00  0.00    +0.000 A 
ATOM     18  C   UNL     1       4.526   6.974  16.895  0.00  0.00    +0.000 A 
ENDBRANCH   6  12
TORSDOF 1
ENDMDL
MODEL 2
REMARK VINA RESULT:      -7.2      0.164      1.151
REMARK  Name = 
REMARK  2 active torsions:
REMARK  status: ('A' for Active; 'I' for Inactive)
REMARK    1  A    between atoms: C_1  and  C_2
REMARK    2  A    between atoms: C_6  and  C_7
REMARK                            x       y       z     vdW  Elec       q    Type
REMARK                         _______ _______ _______ _____ _____    ______ ____
ROOT
ATOM      1  C   UNL     1      -0.428   9.767  23.067  0.00  0.00    +0.000 C 
ATOM      2  C   UNL     1       0.237   9.433  21.781  0.00  0.00    +0.000 A 
ATOM      3  N   UNL     1       0.928   8.293  21.647  0.00  0.00    +0.000 NA
ATOM      4  N   UNL     1       1.390   8.318  20.370  0.00  0.00    +0.000 N 
ATOM      5  C   UNL     1       2.168   7.352  19.733  0.00  0.00    +0.000 A 
ATOM      6  C   UNL     1       2.549   7.524  18.455  0.00  0.00    +0.000 A 
ATOM      7  C   UNL     1       2.075   8.798  17.825  0.00  0.00    +0.000 A 
ATOM      8  N   UNL     1       1.348   9.715  18.390  0.00  0.00    +0.000 NA
ATOM      9  C   UNL     1       0.993   9.476  19.691  0.00  0.00    +0.000 A 
ATOM     10  C   UNL     1       0.246  10.197  20.595  0.00  0.00    +0.000 A 
ATOM     11 CL   UNL     1      -0.514  11.695  20.354  0.00  0.00    +0.000 Cl
ENDROOT
BRANCH   6  12
ATOM     12  C   UNL     1       3.360   6.576  17.697  0.00  0.00    +0.000 A 
ATOM     13  C   UNL     1       4.416   7.032  16.898  0.00  0.00    +0.000 A 
ATOM     14  C   UNL     1       5.254   6.118  16.250  0.00  0.00    +0.000 A 
ATOM     15  C   UNL     1       5.031   4.750  16.393  0.00  0.00    +0.000 A 
ATOM     16 CL   UNL     1       6.078   3.627  15.620  0.00  0.00    +0.000 Cl
ATOM     17  C   UNL     1       3.970   4.287  17.169  0.00  0.00    +0.000 A 
ATOM     18  C   UNL     1       3.134   5.199  17.822  0.00  0.00    +0.000 A 
ENDBRANCH   6  12
TORSDOF 1
ENDMDL
MODEL 3
REMARK VINA RESULT:      -7.0      1.027      1.934
REMARK  Name = 
REMARK  2 active torsions:
REMARK  status: ('A' for Active; 'I' for Inactive)
REMARK    1  A    between atoms: C_1  and  C_2
REMARK    2  A    between atoms: C_6  and  C_7
REMARK                            x       y       z     vdW  Elec       q    Type
REMARK                         _______ _______ _______ _____ _____    ______ ____
ROOT
ATOM      1  C   UNL     1      -0.724  11.920  19.768  0.00  0.00    +0.000 C 
ATOM      2  C   UNL     1       0.081  10.674  19.710  0.00  0.00    +0.000 A 
ATOM      3  N   UNL     1       0.748  10.344  18.595  0.00  0.00    +0.000 NA
ATOM      4  N   UNL     1       1.358   9.169  18.894  0.00  0.00    +0.000 N 
ATOM      5  C   UNL     1       2.180   8.408  18.063  0.00  0.00    +0.000 A 
ATOM      6  C   UNL     1       2.713   7.256  18.509  0.00  0.00    +0.000 A 
ATOM      7  C   UNL     1       2.346   6.898  19.917  0.00  0.00    +0.000 A 
ATOM      8  N   UNL     1       1.586   7.586  20.716  0.00  0.00    +0.000 NA
ATOM      9  C   UNL     1       1.079   8.749  20.200  0.00  0.00    +0.000 A 
ATOM     10  C   UNL     1       0.258   9.718  20.732  0.00  0.00    +0.000 A 
ATOM     11 CL   UNL     1      -0.412   9.770  22.290  0.00  0.00    +0.000 Cl
ENDROOT
BRANCH   6  12
ATOM     12  C   UNL     1       3.585   6.388  17.723  0.00  0.00    +0.000 A 
ATOM     13  C   UNL     1       3.376   5.003  17.710  0.00  0.00    +0.000 A 
ATOM     14  C   UNL     1       4.148   4.182  16.883  0.00  0.00    +0.000 A 
ATOM     15  C   UNL     1       5.135   4.743  16.074  0.00  0.00    +0.000 A 
ATOM     16 CL   UNL     1       6.064   3.737  15.035  0.00  0.00    +0.000 Cl
ATOM     17  C   UNL     1       5.365   6.118  16.095  0.00  0.00    +0.000 A 
ATOM     18  C   UNL     1       4.590   6.941  16.919  0.00  0.00    +0.000 A 
ENDBRANCH   6  12
TORSDOF 1
ENDMDL
MODEL 4
REMARK VINA RESULT:      -6.9      1.049      2.226
REMARK  Name = 
REMARK  2 active torsions:
REMARK  status: ('A' for Active; 'I' for Inactive)
REMARK    1  A    between atoms: C_1  and  C_2
REMARK    2  A    between atoms: C_6  and  C_7
REMARK                            x       y       z     vdW  Elec       q    Type
REMARK                         _______ _______ _______ _____ _____    ______ ____
ROOT
ATOM      1  C   UNL     1      -0.667  12.081  20.120  0.00  0.00    +0.000 C 
ATOM      2  C   UNL     1       0.084  10.805  20.005  0.00  0.00    +0.000 A 
ATOM      3  N   UNL     1       0.700  10.477  18.861  0.00  0.00    +0.000 NA
ATOM      4  N   UNL     1       1.271   9.271  19.112  0.00  0.00    +0.000 N 
ATOM      5  C   UNL     1       2.034   8.499  18.236  0.00  0.00    +0.000 A 
ATOM      6  C   UNL     1       2.533   7.316  18.636  0.00  0.00    +0.000 A 
ATOM      7  C   UNL     1       2.200   6.938  20.047  0.00  0.00    +0.000 A 
ATOM      8  N   UNL     1       1.496   7.636  20.887  0.00  0.00    +0.000 NA
ATOM      9  C   UNL     1       1.019   8.830  20.416  0.00  0.00    +0.000 A 
ATOM     10  C   UNL     1       0.257   9.818  20.999  0.00  0.00    +0.000 A 
ATOM     11 CL   UNL     1      -0.359   9.858  22.579  0.00  0.00    +0.000 Cl
ENDROOT
BRANCH   6  12
ATOM     12  C   UNL     1       3.343   6.433  17.801  0.00  0.00    +0.000 A 
ATOM     13  C   UNL     1       4.407   6.951  17.051  0.00  0.00    +0.000 A 
ATOM     14  C   UNL     1       5.242   6.092  16.329  0.00  0.00    +0.000 A 
ATOM     15  C   UNL     1       5.010   4.719  16.349  0.00  0.00    +0.000 A 
ATOM     16 CL   UNL     1       6.055   3.661  15.485  0.00  0.00    +0.000 Cl
ATOM     17  C   UNL     1       3.942   4.195  17.076  0.00  0.00    +0.000 A 
ATOM     18  C   UNL     1       3.108   5.052  17.802  0.00  0.00    +0.000 A 
ENDBRANCH   6  12
TORSDOF 1
ENDMDL
MODEL 5
REMARK VINA RESULT:      -6.6      1.977      7.027
REMARK  Name = 
REMARK  2 active torsions:
REMARK  status: ('A' for Active; 'I' for Inactive)
REMARK    1  A    between atoms: C_1  and  C_2
REMARK    2  A    between atoms: C_6  and  C_7
REMARK                            x       y       z     vdW  Elec       q    Type
REMARK                         _______ _______ _______ _____ _____    ______ ____
ROOT
ATOM      1  C   UNL     1       4.032   2.549  19.146  0.00  0.00    +0.000 C 
ATOM      2  C   UNL     1       3.529   3.946  19.149  0.00  0.00    +0.000 A 
ATOM      3  N   UNL     1       2.848   4.424  20.200  0.00  0.00    +0.000 NA
ATOM      4  N   UNL     1       2.549   5.705  19.863  0.00  0.00    +0.000 N 
ATOM      5  C   UNL     1       1.846   6.637  20.626  0.00  0.00    +0.000 A 
ATOM      6  C   UNL     1       1.628   7.875  20.148  0.00  0.00    +0.000 A 
ATOM      7  C   UNL     1       2.188   8.130  18.782  0.00  0.00    +0.000 A 
ATOM      8  N   UNL     1       2.848   7.284  18.048  0.00  0.00    +0.000 NA
ATOM      9  C   UNL     1       3.037   6.042  18.595  0.00  0.00    +0.000 A 
ATOM     10  C   UNL     1       3.674   4.913  18.131  0.00  0.00    +0.000 A 
ATOM     11 CL   UNL     1       4.471   4.705  16.648  0.00  0.00    +0.000 Cl
ENDROOT
BRANCH   6  12
ATOM     12  C   UNL     1       0.908   8.924  20.864  0.00  0.00    +0.000 A 
ATOM     13  C   UNL     1       0.325   9.987  20.161  0.00  0.00    +0.000 A 
ATOM     14  C   UNL     1      -0.446  10.938  20.835  0.00  0.00    +0.000 A 
ATOM     15  C   UNL     1      -0.630  10.833  22.212  0.00  0.00    +0.000 A 
ATOM     16 CL   UNL     1      -1.603  11.987  23.036  0.00  0.00    +0.000 Cl
ATOM     17  C   UNL     1      -0.038   9.791  22.925  0.00  0.00    +0.000 A 
ATOM     18  C   UNL     1       0.731   8.837  22.251  0.00  0.00    +0.000 A 
ENDBRANCH   6  12
TORSDOF 1
ENDMDL
MODEL 6
REMARK VINA RESULT:      -6.5      1.807      6.933
REMARK  Name = 
REMARK  2 active torsions:
REMARK  status: ('A' for Active; 'I' for Inactive)
REMARK    1  A    between atoms: C_1  and  C_2
REMARK    2  A    between atoms: C_6  and  C_7
REMARK                            x       y       z     vdW  Elec       q    Type
REMARK                         _______ _______ _______ _____ _____    ______ ____
ROOT
ATOM      1  C   UNL     1       5.288   4.202  18.072  0.00  0.00    +0.000 C 
ATOM      2  C   UNL     1       4.418   5.395  18.230  0.00  0.00    +0.000 A 
ATOM      3  N   UNL     1       3.703   5.575  19.349  0.00  0.00    +0.000 NA
ATOM      4  N   UNL     1       3.037   6.741  19.148  0.00  0.00    +0.000 N 
ATOM      5  C   UNL     1       2.156   7.373  20.025  0.00  0.00    +0.000 A 
ATOM      6  C   UNL     1       1.571   8.533  19.678  0.00  0.00    +0.000 A 
ATOM      7  C   UNL     1       1.947   9.044  18.321  0.00  0.00    +0.000 A 
ATOM      8  N   UNL     1       2.765   8.481  17.483  0.00  0.00    +0.000 NA
ATOM      9  C   UNL     1       3.328   7.304  17.900  0.00  0.00    +0.000 A 
ATOM     10  C   UNL     1       4.220   6.442  17.304  0.00  0.00    +0.000 A 
ATOM     11 CL   UNL     1       4.944   6.588  15.776  0.00  0.00    +0.000 Cl
ENDROOT
BRANCH   6  12
ATOM     12  C   UNL     1       0.637   9.275  20.520  0.00  0.00    +0.000 A 
ATOM     13  C   UNL     1       0.395   8.864  21.837  0.00  0.00    +0.000 A 
ATOM     14  C   UNL     1      -0.423   9.630  22.674  0.00  0.00    +0.000 A 
ATOM     15  C   UNL     1      -1.005  10.801  22.193  0.00  0.00    +0.000 A 
ATOM     16 CL   UNL     1      -1.987  11.758  23.231  0.00  0.00    +0.000 Cl
ATOM     17  C   UNL     1      -0.787  11.208  20.878  0.00  0.00    +0.000 A 
ATOM     18  C   UNL     1       0.034  10.446  20.041  0.00  0.00    +0.000 A 
ENDBRANCH   6  12
TORSDOF 1
ENDMDL
MODEL 7
REMARK VINA RESULT:      -6.5      1.977      7.036
REMARK  Name = 
REMARK  2 active torsions:
REMARK  status: ('A' for Active; 'I' for Inactive)
REMARK    1  A    between atoms: C_1  and  C_2
REMARK    2  A    between atoms: C_6  and  C_7
REMARK                            x       y       z     vdW  Elec       q    Type
REMARK                         _______ _______ _______ _____ _____    ______ ____
ROOT
ATOM      1  C   UNL     1       4.182   3.206  19.412  0.00  0.00    +0.000 C 
ATOM      2  C   UNL     1       3.548   4.548  19.389  0.00  0.00    +0.000 A 
ATOM      3  N   UNL     1       2.817   4.975  20.428  0.00  0.00    +0.000 NA
ATOM      4  N   UNL     1       2.400   6.216  20.068  0.00  0.00    +0.000 N 
ATOM      5  C   UNL     1       1.606   7.089  20.811  0.00  0.00    +0.000 A 
ATOM      6  C   UNL     1       1.274   8.293  20.312  0.00  0.00    +0.000 A 
ATOM      7  C   UNL     1       1.818   8.579  18.946  0.00  0.00    +0.000 A 
ATOM      8  N   UNL     1       2.561   7.789  18.230  0.00  0.00    +0.000 NA
ATOM      9  C   UNL     1       2.864   6.579  18.798  0.00  0.00    +0.000 A 
ATOM     10  C   UNL     1       3.608   5.509  18.357  0.00  0.00    +0.000 A 
ATOM     11 CL   UNL     1       4.433   5.355  16.882  0.00  0.00    +0.000 Cl
ENDROOT
BRANCH   6  12
ATOM     12  C   UNL     1       0.452   9.280  21.007  0.00  0.00    +0.000 A 
ATOM     13  C   UNL     1       0.124   9.102  22.357  0.00  0.00    +0.000 A 
ATOM     14  C   UNL     1      -0.580  10.094  23.047  0.00  0.00    +0.000 A 
ATOM     15  C   UNL     1      -0.963  11.259  22.387  0.00  0.00    +0.000 A 
ATOM     16 CL   UNL     1      -1.803  12.491  23.244  0.00  0.00    +0.000 Cl
ATOM     17  C   UNL     1      -0.660  11.437  21.038  0.00  0.00    +0.000 A 
ATOM     18  C   UNL     1       0.048  10.449  20.347  0.00  0.00    +0.000 A 
ENDBRANCH   6  12
TORSDOF 1
ENDMDL
MODEL 8
REMARK VINA RESULT:      -6.5      2.078      2.253
REMARK  Name = 
REMARK  2 active torsions:
REMARK  status: ('A' for Active; 'I' for Inactive)
REMARK    1  A    between atoms: C_1  and  C_2
REMARK    2  A    between atoms: C_6  and  C_7
REMARK                            x       y       z     vdW  Elec       q    Type
REMARK                         _______ _______ _______ _____ _____    ______ ____
ROOT
ATOM      1  C   UNL     1       0.010  12.097  21.546  0.00  0.00    +0.000 C 
ATOM      2  C   UNL     1       0.595  11.073  20.643  0.00  0.00    +0.000 A 
ATOM      3  N   UNL     1       0.797   9.820  21.073  0.00  0.00    +0.000 NA
ATOM      4  N   UNL     1       1.336   9.173  20.008  0.00  0.00    +0.000 N 
ATOM      5  C   UNL     1       1.726   7.836  19.940  0.00  0.00    +0.000 A 
ATOM      6  C   UNL     1       2.248   7.340  18.804  0.00  0.00    +0.000 A 
ATOM      7  C   UNL     1       2.360   8.326  17.682  0.00  0.00    +0.000 A 
ATOM      8  N   UNL     1       2.004   9.575  17.713  0.00  0.00    +0.000 NA
ATOM      9  C   UNL     1       1.477  10.015  18.898  0.00  0.00    +0.000 A 
ATOM     10  C   UNL     1       0.998  11.241  19.301  0.00  0.00    +0.000 A 
ATOM     11 CL   UNL     1       0.903  12.669  18.390  0.00  0.00    +0.000 Cl
ENDROOT
BRANCH   6  12
ATOM     12  C   UNL     1       2.686   5.958  18.628  0.00  0.00    +0.000 A 
ATOM     13  C   UNL     1       3.853   5.502  19.254  0.00  0.00    +0.000 A 
ATOM     14  C   UNL     1       4.219   4.156  19.164  0.00  0.00    +0.000 A 
ATOM     15  C   UNL     1       3.425   3.267  18.443  0.00  0.00    +0.000 A 
ATOM     16 CL   UNL     1       3.860   1.605  18.358  0.00  0.00    +0.000 Cl
ATOM     17  C   UNL     1       2.273   3.715  17.799  0.00  0.00    +0.000 A 
ATOM     18  C   UNL     1       1.902   5.060  17.891  0.00  0.00    +0.000 A 
ENDBRANCH   6  12
TORSDOF 1
ENDMDL
MODEL 9
REMARK VINA RESULT:      -6.5      5.059      8.225
REMARK  Name = 
REMARK  2 active torsions:
REMARK  status: ('A' for Active; 'I' for Inactive)
REMARK    1  A    between atoms: C_1  and  C_2
REMARK    2  A    between atoms: C_6  and  C_7
REMARK                            x       y       z     vdW  Elec       q    Type
REMARK                         _______ _______ _______ _____ _____    ______ ____
ROOT
ATOM      1  C   UNL     1       7.107   3.686  11.191  0.00  0.00    +0.000 C 
ATOM      2  C   UNL     1       6.831   4.058  12.602  0.00  0.00    +0.000 A 
ATOM      3  N   UNL     1       5.819   3.490  13.272  0.00  0.00    +0.000 NA
ATOM      4  N   UNL     1       5.861   4.057  14.505  0.00  0.00    +0.000 N 
ATOM      5  C   UNL     1       5.014   3.800  15.582  0.00  0.00    +0.000 A 
ATOM      6  C   UNL     1       5.185   4.449  16.747  0.00  0.00    +0.000 A 
ATOM      7  C   UNL     1       6.321   5.426  16.761  0.00  0.00    +0.000 A 
ATOM      8  N   UNL     1       7.129   5.685  15.777  0.00  0.00    +0.000 NA
ATOM      9  C   UNL     1       6.900   4.987  14.620  0.00  0.00    +0.000 A 
ATOM     10  C   UNL     1       7.532   4.990  13.397  0.00  0.00    +0.000 A 
ATOM     11 CL   UNL     1       8.873   5.914  12.922  0.00  0.00    +0.000 Cl
ENDROOT
BRANCH   6  12
ATOM     12  C   UNL     1       4.357   4.254  17.934  0.00  0.00    +0.000 A 
ATOM     13  C   UNL     1       3.934   2.969  18.296  0.00  0.00    +0.000 A 
ATOM     14  C   UNL     1       3.225   2.770  19.485  0.00  0.00    +0.000 A 
ATOM     15  C   UNL     1       2.931   3.856  20.307  0.00  0.00    +0.000 A 
ATOM     16 CL   UNL     1       2.084   3.607  21.783  0.00  0.00    +0.000 Cl
ATOM     17  C   UNL     1       3.329   5.142  19.946  0.00  0.00    +0.000 A 
ATOM     18  C   UNL     1       4.043   5.342  18.760  0.00  0.00    +0.000 A 
ENDBRANCH   6  12
TORSDOF 1
ENDMDL
