MODEL 1
REMARK VINA RESULT:      -8.1      0.000      0.000
REMARK  Name = 
REMARK  9 active torsions:
REMARK  status: ('A' for Active; 'I' for Inactive)
REMARK    1  A    between atoms: C_1  and  C_2
REMARK    2  A    between atoms: C_2  and  C_3
REMARK    3  A    between atoms: C_2  and  C_4
REMARK    4  A    between atoms: C_2  and  C_5
REMARK    5  A    between atoms: C_5  and  C_6
REMARK    6  A    between atoms: N_8  and  C_9
REMARK    7  A    between atoms: C_9  and  C_10
REMARK    8  A    between atoms: C_10  and  N_11
REMARK    9  A    between atoms: C_13  and  C_14
REMARK                            x       y       z     vdW  Elec       q    Type
REMARK                         _______ _______ _______ _____ _____    ______ ____
ROOT
ATOM      1  N   UNL     1       6.758   5.618  18.288  0.00  0.00    +0.000 N 
ATOM      2  N   UNL     1       5.700   5.360  19.097  0.00  0.00    +0.000 NA
ATOM      3  C   UNL     1       4.835   4.710  18.303  0.00  0.00    +0.000 A 
ATOM      4  C   UNL     1       5.338   4.567  16.981  0.00  0.00    +0.000 A 
ATOM      5  C   UNL     1       4.902   3.989  15.779  0.00  0.00    +0.000 A 
ATOM      6  C   UNL     1       5.773   4.047  14.693  0.00  0.00    +0.000 A 
ATOM      7  C   UNL     1       7.010   4.662  14.851  0.00  0.00    +0.000 A 
ATOM      8  N   UNL     1       7.476   5.234  15.990  0.00  0.00    +0.000 NA
ATOM      9  C   UNL     1       6.594   5.156  17.008  0.00  0.00    +0.000 A 
ENDROOT
BRANCH   3  10
ATOM     10  C   UNL     1       3.542   4.137  18.809  0.00  0.00    +0.000 C 
ATOM     11  C   UNL     1       3.434   2.615  18.844  0.00  0.00    +0.000 C 
ATOM     12  C   UNL     1       2.484   2.280  17.710  0.00  0.00    +0.000 C 
ATOM     13  N   UNL     1       1.524   3.393  17.702  0.00  0.00    +0.000 NA
ATOM     14  C   UNL     1       2.356   4.583  17.939  0.00  0.00    +0.000 C 
ATOM     15  H   UNL     1       0.881   3.276  18.485  0.00  0.00    +0.000 HD
ENDBRANCH   3  10
BRANCH   1  16
ATOM     16  C   UNL     1       7.932   6.298  18.808  0.00  0.00    +0.000 C 
BRANCH  16  17
ATOM     17  C   UNL     1       8.138   7.658  18.145  0.00  0.00    +0.000 C 
BRANCH  17  20
ATOM     18  C   UNL     1       8.789   9.965  18.766  0.00  0.00    +0.000 C 
ATOM     19  O   UNL     1       8.163  10.455  17.832  0.00  0.00    +0.000 OA
ATOM     20  N   UNL     1       8.860   8.608  18.986  0.00  0.00    +0.000 N 
ATOM     21  H   UNL     1       9.408   8.256  19.761  0.00  0.00    +0.000 HD
BRANCH  18  22
ATOM     22  C   UNL     1       9.558  10.822  19.757  0.00  0.00    +0.000 C 
BRANCH  22  24
ATOM     23  C   UNL     1       9.826  13.233  18.985  0.00  0.00    +0.000 C 
ATOM     24  C   UNL     1      10.508  11.860  19.112  0.00  0.00    +0.000 C 
ATOM     25  C   UNL     1      10.975  11.391  17.725  0.00  0.00    +0.000 C 
ATOM     26  C   UNL     1      11.745  12.021  20.018  0.00  0.00    +0.000 C 
ENDBRANCH  22  24
ENDBRANCH  18  22
ENDBRANCH  17  20
ENDBRANCH  16  17
ENDBRANCH   1  16
TORSDOF 6
ENDMDL
MODEL 2
REMARK VINA RESULT:      -8.0      0.849      1.506
REMARK  Name = 
REMARK  9 active torsions:
REMARK  status: ('A' for Active; 'I' for Inactive)
REMARK    1  A    between atoms: C_1  and  C_2
REMARK    2  A    between atoms: C_2  and  C_3
REMARK    3  A    between atoms: C_2  and  C_4
REMARK    4  A    between atoms: C_2  and  C_5
REMARK    5  A    between atoms: C_5  and  C_6
REMARK    6  A    between atoms: N_8  and  C_9
REMARK    7  A    between atoms: C_9  and  C_10
REMARK    8  A    between atoms: C_10  and  N_11
REMARK    9  A    between atoms: C_13  and  C_14
REMARK                            x       y       z     vdW  Elec       q    Type
REMARK                         _______ _______ _______ _____ _____    ______ ____
ROOT
ATOM      1  N   UNL     1       6.355   5.427  17.550  0.00  0.00    +0.000 N 
ATOM      2  N   UNL     1       5.174   5.023  18.079  0.00  0.00    +0.000 NA
ATOM      3  C   UNL     1       4.544   4.428  17.053  0.00  0.00    +0.000 A 
ATOM      4  C   UNL     1       5.321   4.467  15.864  0.00  0.00    +0.000 A 
ATOM      5  C   UNL     1       5.191   4.013  14.543  0.00  0.00    +0.000 A 
ATOM      6  C   UNL     1       6.264   4.241  13.683  0.00  0.00    +0.000 A 
ATOM      7  C   UNL     1       7.391   4.894  14.168  0.00  0.00    +0.000 A 
ATOM      8  N   UNL     1       7.565   5.351  15.433  0.00  0.00    +0.000 NA
ATOM      9  C   UNL     1       6.497   5.110  16.223  0.00  0.00    +0.000 A 
ENDROOT
BRANCH   3  10
ATOM     10  C   UNL     1       3.220   3.737  17.206  0.00  0.00    +0.000 C 
ATOM     11  C   UNL     1       2.099   4.541  17.859  0.00  0.00    +0.000 C 
ATOM     12  C   UNL     1       1.943   3.919  19.234  0.00  0.00    +0.000 C 
ATOM     13  N   UNL     1       2.211   2.491  19.017  0.00  0.00    +0.000 NA
ATOM     14  C   UNL     1       3.345   2.478  18.080  0.00  0.00    +0.000 C 
ATOM     15  H   UNL     1       1.400   2.071  18.562  0.00  0.00    +0.000 HD
ENDBRANCH   3  10
BRANCH   1  16
ATOM     16  C   UNL     1       7.341   6.099  18.379  0.00  0.00    +0.000 C 
BRANCH  16  17
ATOM     17  C   UNL     1       7.765   7.439  17.780  0.00  0.00    +0.000 C 
BRANCH  17  20
ATOM     18  C   UNL     1       8.609   9.620  18.593  0.00  0.00    +0.000 C 
ATOM     19  O   UNL     1       8.011  10.242  17.720  0.00  0.00    +0.000 OA
ATOM     20  N   UNL     1       8.573   8.247  18.688  0.00  0.00    +0.000 N 
ATOM     21  H   UNL     1       9.102   7.784  19.416  0.00  0.00    +0.000 HD
BRANCH  18  22
ATOM     22  C   UNL     1       9.459  10.319  19.640  0.00  0.00    +0.000 C 
BRANCH  22  24
ATOM     23  C   UNL     1      10.731  11.390  17.712  0.00  0.00    +0.000 C 
ATOM     24  C   UNL     1      10.188  11.589  19.138  0.00  0.00    +0.000 C 
ATOM     25  C   UNL     1      11.344  11.968  20.076  0.00  0.00    +0.000 C 
ATOM     26  C   UNL     1       9.178  12.754  19.108  0.00  0.00    +0.000 C 
ENDBRANCH  22  24
ENDBRANCH  18  22
ENDBRANCH  17  20
ENDBRANCH  16  17
ENDBRANCH   1  16
TORSDOF 6
ENDMDL
MODEL 3
REMARK VINA RESULT:      -7.9      0.663      1.279
REMARK  Name = 
REMARK  9 active torsions:
REMARK  status: ('A' for Active; 'I' for Inactive)
REMARK    1  A    between atoms: C_1  and  C_2
REMARK    2  A    between atoms: C_2  and  C_3
REMARK    3  A    between atoms: C_2  and  C_4
REMARK    4  A    between atoms: C_2  and  C_5
REMARK    5  A    between atoms: C_5  and  C_6
REMARK    6  A    between atoms: N_8  and  C_9
REMARK    7  A    between atoms: C_9  and  C_10
REMARK    8  A    between atoms: C_10  and  N_11
REMARK    9  A    between atoms: C_13  and  C_14
REMARK                            x       y       z     vdW  Elec       q    Type
REMARK                         _______ _______ _______ _____ _____    ______ ____
ROOT
ATOM      1  N   UNL     1       6.796   5.389  18.033  0.00  0.00    +0.000 N 
ATOM      2  N   UNL     1       5.782   4.876  18.774  0.00  0.00    +0.000 NA
ATOM      3  C   UNL     1       5.018   4.233  17.877  0.00  0.00    +0.000 A 
ATOM      4  C   UNL     1       5.539   4.351  16.560  0.00  0.00    +0.000 A 
ATOM      5  C   UNL     1       5.191   3.895  15.279  0.00  0.00    +0.000 A 
ATOM      6  C   UNL     1       6.048   4.226  14.232  0.00  0.00    +0.000 A 
ATOM      7  C   UNL     1       7.187   4.976  14.502  0.00  0.00    +0.000 A 
ATOM      8  N   UNL     1       7.566   5.439  15.720  0.00  0.00    +0.000 NA
ATOM      9  C   UNL     1       6.701   5.096  16.697  0.00  0.00    +0.000 A 
ENDROOT
BRANCH   3  10
ATOM     10  C   UNL     1       3.816   3.422  18.269  0.00  0.00    +0.000 C 
ATOM     11  C   UNL     1       2.612   3.487  17.334  0.00  0.00    +0.000 C 
ATOM     12  C   UNL     1       1.593   4.318  18.090  0.00  0.00    +0.000 C 
ATOM     13  N   UNL     1       1.801   3.952  19.497  0.00  0.00    +0.000 NA
ATOM     14  C   UNL     1       3.263   3.868  19.633  0.00  0.00    +0.000 C 
ATOM     15  H   UNL     1       1.399   3.028  19.658  0.00  0.00    +0.000 HD
ENDBRANCH   3  10
BRANCH   1  16
ATOM     16  C   UNL     1       7.863   6.143  18.669  0.00  0.00    +0.000 C 
BRANCH  16  17
ATOM     17  C   UNL     1       8.000   7.543  18.073  0.00  0.00    +0.000 C 
BRANCH  17  20
ATOM     18  C   UNL     1       8.693   9.823  18.742  0.00  0.00    +0.000 C 
ATOM     19  O   UNL     1       8.047  10.347  17.840  0.00  0.00    +0.000 OA
ATOM     20  N   UNL     1       8.755   8.460  18.921  0.00  0.00    +0.000 N 
ATOM     21  H   UNL     1       9.320   8.081  19.671  0.00  0.00    +0.000 HD
BRANCH  18  22
ATOM     22  C   UNL     1       9.498  10.644  19.735  0.00  0.00    +0.000 C 
BRANCH  22  24
ATOM     23  C   UNL     1      11.678  11.947  19.904  0.00  0.00    +0.000 C 
ATOM     24  C   UNL     1      10.384  11.742  19.098  0.00  0.00    +0.000 C 
ATOM     25  C   UNL     1       9.625  13.075  19.002  0.00  0.00    +0.000 C 
ATOM     26  C   UNL     1      10.771  11.294  17.674  0.00  0.00    +0.000 C 
ENDBRANCH  22  24
ENDBRANCH  18  22
ENDBRANCH  17  20
ENDBRANCH  16  17
ENDBRANCH   1  16
TORSDOF 6
ENDMDL
MODEL 4
REMARK VINA RESULT:      -7.8      1.007      1.312
REMARK  Name = 
REMARK  9 active torsions:
REMARK  status: ('A' for Active; 'I' for Inactive)
REMARK    1  A    between atoms: C_1  and  C_2
REMARK    2  A    between atoms: C_2  and  C_3
REMARK    3  A    between atoms: C_2  and  C_4
REMARK    4  A    between atoms: C_2  and  C_5
REMARK    5  A    between atoms: C_5  and  C_6
REMARK    6  A    between atoms: N_8  and  C_9
REMARK    7  A    between atoms: C_9  and  C_10
REMARK    8  A    between atoms: C_10  and  N_11
REMARK    9  A    between atoms: C_13  and  C_14
REMARK                            x       y       z     vdW  Elec       q    Type
REMARK                         _______ _______ _______ _____ _____    ______ ____
ROOT
ATOM      1  N   UNL     1       6.813   6.262  17.646  0.00  0.00    +0.000 N 
ATOM      2  N   UNL     1       5.832   5.982  18.540  0.00  0.00    +0.000 NA
ATOM      3  C   UNL     1       5.045   5.106  17.895  0.00  0.00    +0.000 A 
ATOM      4  C   UNL     1       5.519   4.840  16.582  0.00  0.00    +0.000 A 
ATOM      5  C   UNL     1       5.133   4.033  15.500  0.00  0.00    +0.000 A 
ATOM      6  C   UNL     1       5.949   4.049  14.371  0.00  0.00    +0.000 A 
ATOM      7  C   UNL     1       7.087   4.847  14.372  0.00  0.00    +0.000 A 
ATOM      8  N   UNL     1       7.502   5.643  15.390  0.00  0.00    +0.000 NA
ATOM      9  C   UNL     1       6.675   5.595  16.456  0.00  0.00    +0.000 A 
ENDROOT
BRANCH   3  10
ATOM     10  C   UNL     1       3.867   4.441  18.548  0.00  0.00    +0.000 C 
ATOM     11  C   UNL     1       3.945   2.926  18.720  0.00  0.00    +0.000 C 
ATOM     12  C   UNL     1       2.967   2.382  17.696  0.00  0.00    +0.000 C 
ATOM     13  N   UNL     1       1.883   3.373  17.669  0.00  0.00    +0.000 NA
ATOM     14  C   UNL     1       2.580   4.667  17.739  0.00  0.00    +0.000 C 
ATOM     15  H   UNL     1       1.313   3.258  18.508  0.00  0.00    +0.000 HD
ENDBRANCH   3  10
BRANCH   1  16
ATOM     16  C   UNL     1       7.892   7.169  17.998  0.00  0.00    +0.000 C 
BRANCH  16  17
ATOM     17  C   UNL     1       7.448   8.629  17.931  0.00  0.00    +0.000 C 
BRANCH  17  20
ATOM     18  C   UNL     1       9.244  10.227  18.522  0.00  0.00    +0.000 C 
ATOM     19  O   UNL     1       8.998  10.149  19.722  0.00  0.00    +0.000 OA
ATOM     20  N   UNL     1       8.525   9.544  17.567  0.00  0.00    +0.000 N 
ATOM     21  H   UNL     1       8.759   9.661  16.589  0.00  0.00    +0.000 HD
BRANCH  18  22
ATOM     22  C   UNL     1      10.363  11.103  17.986  0.00  0.00    +0.000 C 
BRANCH  22  24
ATOM     23  C   UNL     1      10.392  13.220  19.400  0.00  0.00    +0.000 C 
ATOM     24  C   UNL     1      10.067  12.622  18.020  0.00  0.00    +0.000 C 
ATOM     25  C   UNL     1       8.596  12.904  17.675  0.00  0.00    +0.000 C 
ATOM     26  C   UNL     1      10.959  13.319  16.973  0.00  0.00    +0.000 C 
ENDBRANCH  22  24
ENDBRANCH  18  22
ENDBRANCH  17  20
ENDBRANCH  16  17
ENDBRANCH   1  16
TORSDOF 6
ENDMDL
MODEL 5
REMARK VINA RESULT:      -7.8      1.528      2.043
REMARK  Name = 
REMARK  9 active torsions:
REMARK  status: ('A' for Active; 'I' for Inactive)
REMARK    1  A    between atoms: C_1  and  C_2
REMARK    2  A    between atoms: C_2  and  C_3
REMARK    3  A    between atoms: C_2  and  C_4
REMARK    4  A    between atoms: C_2  and  C_5
REMARK    5  A    between atoms: C_5  and  C_6
REMARK    6  A    between atoms: N_8  and  C_9
REMARK    7  A    between atoms: C_9  and  C_10
REMARK    8  A    between atoms: C_10  and  N_11
REMARK    9  A    between atoms: C_13  and  C_14
REMARK                            x       y       z     vdW  Elec       q    Type
REMARK                         _______ _______ _______ _____ _____    ______ ____
ROOT
ATOM      1  N   UNL     1       6.796   6.496  17.404  0.00  0.00    +0.000 N 
ATOM      2  N   UNL     1       5.728   6.400  18.234  0.00  0.00    +0.000 NA
ATOM      3  C   UNL     1       4.902   5.549  17.604  0.00  0.00    +0.000 A 
ATOM      4  C   UNL     1       5.439   5.115  16.362  0.00  0.00    +0.000 A 
ATOM      5  C   UNL     1       5.050   4.253  15.326  0.00  0.00    +0.000 A 
ATOM      6  C   UNL     1       5.944   4.083  14.270  0.00  0.00    +0.000 A 
ATOM      7  C   UNL     1       7.158   4.760  14.297  0.00  0.00    +0.000 A 
ATOM      8  N   UNL     1       7.579   5.603  15.274  0.00  0.00    +0.000 NA
ATOM      9  C   UNL     1       6.676   5.737  16.268  0.00  0.00    +0.000 A 
ENDROOT
BRANCH   3  10
ATOM     10  C   UNL     1       3.615   5.068  18.212  0.00  0.00    +0.000 C 
ATOM     11  C   UNL     1       2.462   6.067  18.253  0.00  0.00    +0.000 C 
ATOM     12  C   UNL     1       2.352   6.452  19.717  0.00  0.00    +0.000 C 
ATOM     13  N   UNL     1       2.689   5.219  20.441  0.00  0.00    +0.000 NA
ATOM     14  C   UNL     1       3.813   4.653  19.679  0.00  0.00    +0.000 C 
ATOM     15  H   UNL     1       1.896   4.580  20.387  0.00  0.00    +0.000 HD
ENDBRANCH   3  10
BRANCH   1  16
ATOM     16  C   UNL     1       7.936   7.320  17.765  0.00  0.00    +0.000 C 
BRANCH  16  17
ATOM     17  C   UNL     1       7.552   8.794  17.890  0.00  0.00    +0.000 C 
BRANCH  17  20
ATOM     18  C   UNL     1       9.340  10.393  18.498  0.00  0.00    +0.000 C 
ATOM     19  O   UNL     1       9.076  10.324  19.694  0.00  0.00    +0.000 OA
ATOM     20  N   UNL     1       8.636   9.705  17.536  0.00  0.00    +0.000 N 
ATOM     21  H   UNL     1       8.885   9.815  16.561  0.00  0.00    +0.000 HD
BRANCH  18  22
ATOM     22  C   UNL     1      10.469  11.265  17.973  0.00  0.00    +0.000 C 
BRANCH  22  24
ATOM     23  C   UNL     1      10.554  13.388  19.376  0.00  0.00    +0.000 C 
ATOM     24  C   UNL     1      10.182  12.785  18.011  0.00  0.00    +0.000 C 
ATOM     25  C   UNL     1       8.702  13.074  17.712  0.00  0.00    +0.000 C 
ATOM     26  C   UNL     1      11.043  13.474  16.932  0.00  0.00    +0.000 C 
ENDBRANCH  22  24
ENDBRANCH  18  22
ENDBRANCH  17  20
ENDBRANCH  16  17
ENDBRANCH   1  16
TORSDOF 6
ENDMDL
MODEL 6
REMARK VINA RESULT:      -7.8      0.663      1.080
REMARK  Name = 
REMARK  9 active torsions:
REMARK  status: ('A' for Active; 'I' for Inactive)
REMARK    1  A    between atoms: C_1  and  C_2
REMARK    2  A    between atoms: C_2  and  C_3
REMARK    3  A    between atoms: C_2  and  C_4
REMARK    4  A    between atoms: C_2  and  C_5
REMARK    5  A    between atoms: C_5  and  C_6
REMARK    6  A    between atoms: N_8  and  C_9
REMARK    7  A    between atoms: C_9  and  C_10
REMARK    8  A    between atoms: C_10  and  N_11
REMARK    9  A    between atoms: C_13  and  C_14
REMARK                            x       y       z     vdW  Elec       q    Type
REMARK                         _______ _______ _______ _____ _____    ______ ____
ROOT
ATOM      1  N   UNL     1       6.797   6.004  17.875  0.00  0.00    +0.000 N 
ATOM      2  N   UNL     1       5.780   5.731  18.730  0.00  0.00    +0.000 NA
ATOM      3  C   UNL     1       4.951   4.956  18.013  0.00  0.00    +0.000 A 
ATOM      4  C   UNL     1       5.435   4.748  16.693  0.00  0.00    +0.000 A 
ATOM      5  C   UNL     1       5.021   4.044  15.552  0.00  0.00    +0.000 A 
ATOM      6  C   UNL     1       5.861   4.082  14.441  0.00  0.00    +0.000 A 
ATOM      7  C   UNL     1       7.049   4.799  14.517  0.00  0.00    +0.000 A 
ATOM      8  N   UNL     1       7.493   5.494  15.594  0.00  0.00    +0.000 NA
ATOM      9  C   UNL     1       6.642   5.430  16.640  0.00  0.00    +0.000 A 
ENDROOT
BRANCH   3  10
ATOM     10  C   UNL     1       3.718   4.329  18.597  0.00  0.00    +0.000 C 
ATOM     11  C   UNL     1       3.680   2.804  18.639  0.00  0.00    +0.000 C 
ATOM     12  C   UNL     1       2.678   2.423  17.566  0.00  0.00    +0.000 C 
ATOM     13  N   UNL     1       1.671   3.493  17.616  0.00  0.00    +0.000 NA
ATOM     14  C   UNL     1       2.462   4.719  17.801  0.00  0.00    +0.000 C 
ATOM     15  H   UNL     1       1.083   3.350  18.437  0.00  0.00    +0.000 HD
ENDBRANCH   3  10
BRANCH   1  16
ATOM     16  C   UNL     1       7.924   6.811  18.308  0.00  0.00    +0.000 C 
BRANCH  16  17
ATOM     17  C   UNL     1       7.764   8.274  17.899  0.00  0.00    +0.000 C 
BRANCH  17  20
ATOM     18  C   UNL     1       8.887  10.472  18.092  0.00  0.00    +0.000 C 
ATOM     19  O   UNL     1       7.958  11.060  17.548  0.00  0.00    +0.000 OA
ATOM     20  N   UNL     1       8.898   9.108  18.284  0.00  0.00    +0.000 N 
ATOM     21  H   UNL     1       9.701   8.673  18.720  0.00  0.00    +0.000 HD
BRANCH  18  22
ATOM     22  C   UNL     1      10.122  11.205  18.588  0.00  0.00    +0.000 C 
BRANCH  22  24
ATOM     23  C   UNL     1       9.256  11.140  20.981  0.00  0.00    +0.000 C 
ATOM     24  C   UNL     1       9.915  12.007  19.895  0.00  0.00    +0.000 C 
ATOM     25  C   UNL     1       9.052  13.255  19.645  0.00  0.00    +0.000 C 
ATOM     26  C   UNL     1      11.294  12.461  20.415  0.00  0.00    +0.000 C 
ENDBRANCH  22  24
ENDBRANCH  18  22
ENDBRANCH  17  20
ENDBRANCH  16  17
ENDBRANCH   1  16
TORSDOF 6
ENDMDL
MODEL 7
REMARK VINA RESULT:      -7.7      1.086      1.767
REMARK  Name = 
REMARK  9 active torsions:
REMARK  status: ('A' for Active; 'I' for Inactive)
REMARK    1  A    between atoms: C_1  and  C_2
REMARK    2  A    between atoms: C_2  and  C_3
REMARK    3  A    between atoms: C_2  and  C_4
REMARK    4  A    between atoms: C_2  and  C_5
REMARK    5  A    between atoms: C_5  and  C_6
REMARK    6  A    between atoms: N_8  and  C_9
REMARK    7  A    between atoms: C_9  and  C_10
REMARK    8  A    between atoms: C_10  and  N_11
REMARK    9  A    between atoms: C_13  and  C_14
REMARK                            x       y       z     vdW  Elec       q    Type
REMARK                         _______ _______ _______ _____ _____    ______ ____
ROOT
ATOM      1  N   UNL     1       6.576   6.290  17.386  0.00  0.00    +0.000 N 
ATOM      2  N   UNL     1       5.401   6.203  18.057  0.00  0.00    +0.000 NA
ATOM      3  C   UNL     1       4.623   5.457  17.256  0.00  0.00    +0.000 A 
ATOM      4  C   UNL     1       5.301   5.082  16.065  0.00  0.00    +0.000 A 
ATOM      5  C   UNL     1       5.010   4.326  14.919  0.00  0.00    +0.000 A 
ATOM      6  C   UNL     1       6.029   4.176  13.980  0.00  0.00    +0.000 A 
ATOM      7  C   UNL     1       7.264   4.769  14.222  0.00  0.00    +0.000 A 
ATOM      8  N   UNL     1       7.593   5.507  15.312  0.00  0.00    +0.000 NA
ATOM      9  C   UNL     1       6.571   5.627  16.186  0.00  0.00    +0.000 A 
ENDROOT
BRANCH   3  10
ATOM     10  C   UNL     1       3.241   5.018  17.647  0.00  0.00    +0.000 C 
ATOM     11  C   UNL     1       2.529   5.858  18.703  0.00  0.00    +0.000 C 
ATOM     12  C   UNL     1       2.544   4.990  19.947  0.00  0.00    +0.000 C 
ATOM     13  N   UNL     1       2.401   3.621  19.433  0.00  0.00    +0.000 NA
ATOM     14  C   UNL     1       3.253   3.598  18.235  0.00  0.00    +0.000 C 
ATOM     15  H   UNL     1       1.430   3.476  19.154  0.00  0.00    +0.000 HD
ENDBRANCH   3  10
BRANCH   1  16
ATOM     16  C   UNL     1       7.700   7.009  17.961  0.00  0.00    +0.000 C 
BRANCH  16  17
ATOM     17  C   UNL     1       7.563   8.518  17.770  0.00  0.00    +0.000 C 
BRANCH  17  20
ATOM     18  C   UNL     1       8.852  10.622  17.967  0.00  0.00    +0.000 C 
ATOM     19  O   UNL     1       7.937  11.295  17.503  0.00  0.00    +0.000 OA
ATOM     20  N   UNL     1       8.776   9.255  18.111  0.00  0.00    +0.000 N 
ATOM     21  H   UNL     1       9.569   8.748  18.481  0.00  0.00    +0.000 HD
BRANCH  18  22
ATOM     22  C   UNL     1      10.165  11.247  18.410  0.00  0.00    +0.000 C 
BRANCH  22  24
ATOM     23  C   UNL     1      11.542  12.137  20.357  0.00  0.00    +0.000 C 
ATOM     24  C   UNL     1      10.123  11.917  19.804  0.00  0.00    +0.000 C 
ATOM     25  C   UNL     1       9.314  11.069  20.799  0.00  0.00    +0.000 C 
ATOM     26  C   UNL     1       9.443  13.294  19.668  0.00  0.00    +0.000 C 
ENDBRANCH  22  24
ENDBRANCH  18  22
ENDBRANCH  17  20
ENDBRANCH  16  17
ENDBRANCH   1  16
TORSDOF 6
ENDMDL
MODEL 8
REMARK VINA RESULT:      -7.7      4.907      6.478
REMARK  Name = 
REMARK  9 active torsions:
REMARK  status: ('A' for Active; 'I' for Inactive)
REMARK    1  A    between atoms: C_1  and  C_2
REMARK    2  A    between atoms: C_2  and  C_3
REMARK    3  A    between atoms: C_2  and  C_4
REMARK    4  A    between atoms: C_2  and  C_5
REMARK    5  A    between atoms: C_5  and  C_6
REMARK    6  A    between atoms: N_8  and  C_9
REMARK    7  A    between atoms: C_9  and  C_10
REMARK    8  A    between atoms: C_10  and  N_11
REMARK    9  A    between atoms: C_13  and  C_14
REMARK                            x       y       z     vdW  Elec       q    Type
REMARK                         _______ _______ _______ _____ _____    ______ ____
ROOT
ATOM      1  N   UNL     1       3.276   6.701  17.743  0.00  0.00    +0.000 N 
ATOM      2  N   UNL     1       2.496   5.943  18.554  0.00  0.00    +0.000 NA
ATOM      3  C   UNL     1       2.897   4.685  18.308  0.00  0.00    +0.000 A 
ATOM      4  C   UNL     1       3.923   4.642  17.326  0.00  0.00    +0.000 A 
ATOM      5  C   UNL     1       4.703   3.654  16.706  0.00  0.00    +0.000 A 
ATOM      6  C   UNL     1       5.664   4.082  15.792  0.00  0.00    +0.000 A 
ATOM      7  C   UNL     1       5.802   5.444  15.545  0.00  0.00    +0.000 A 
ATOM      8  N   UNL     1       5.074   6.435  16.118  0.00  0.00    +0.000 NA
ATOM      9  C   UNL     1       4.156   5.968  16.989  0.00  0.00    +0.000 A 
ENDROOT
BRANCH   3  10
ATOM     10  C   UNL     1       2.364   3.502  19.064  0.00  0.00    +0.000 C 
ATOM     11  C   UNL     1       1.156   3.750  19.962  0.00  0.00    +0.000 C 
ATOM     12  C   UNL     1       1.714   3.684  21.371  0.00  0.00    +0.000 C 
ATOM     13  N   UNL     1       2.763   2.658  21.296  0.00  0.00    +0.000 NA
ATOM     14  C   UNL     1       3.428   2.920  20.010  0.00  0.00    +0.000 C 
ATOM     15  H   UNL     1       2.321   1.740  21.259  0.00  0.00    +0.000 HD
ENDBRANCH   3  10
BRANCH   1  16
ATOM     16  C   UNL     1       3.154   8.148  17.749  0.00  0.00    +0.000 C 
BRANCH  16  17
ATOM     17  C   UNL     1       1.705   8.593  17.941  0.00  0.00    +0.000 C 
BRANCH  17  20
ATOM     18  C   UNL     1       0.309   9.977  19.446  0.00  0.00    +0.000 C 
ATOM     19  O   UNL     1      -0.585  10.085  18.613  0.00  0.00    +0.000 OA
ATOM     20  N   UNL     1       1.478   9.292  19.202  0.00  0.00    +0.000 N 
ATOM     21  H   UNL     1       2.191   9.252  19.919  0.00  0.00    +0.000 HD
BRANCH  18  22
ATOM     22  C   UNL     1       0.206  10.611  20.823  0.00  0.00    +0.000 C 
BRANCH  22  24
ATOM     23  C   UNL     1       1.486   9.269  22.567  0.00  0.00    +0.000 C 
ATOM     24  C   UNL     1       0.099   9.603  21.992  0.00  0.00    +0.000 C 
ATOM     25  C   UNL     1      -0.592   8.306  21.540  0.00  0.00    +0.000 C 
ATOM     26  C   UNL     1      -0.744  10.242  23.115  0.00  0.00    +0.000 C 
ENDBRANCH  22  24
ENDBRANCH  18  22
ENDBRANCH  17  20
ENDBRANCH  16  17
ENDBRANCH   1  16
TORSDOF 6
ENDMDL
MODEL 9
REMARK VINA RESULT:      -7.6      4.185      6.307
REMARK  Name = 
REMARK  9 active torsions:
REMARK  status: ('A' for Active; 'I' for Inactive)
REMARK    1  A    between atoms: C_1  and  C_2
REMARK    2  A    between atoms: C_2  and  C_3
REMARK    3  A    between atoms: C_2  and  C_4
REMARK    4  A    between atoms: C_2  and  C_5
REMARK    5  A    between atoms: C_5  and  C_6
REMARK    6  A    between atoms: N_8  and  C_9
REMARK    7  A    between atoms: C_9  and  C_10
REMARK    8  A    between atoms: C_10  and  N_11
REMARK    9  A    between atoms: C_13  and  C_14
REMARK                            x       y       z     vdW  Elec       q    Type
REMARK                         _______ _______ _______ _____ _____    ______ ____
ROOT
ATOM      1  N   UNL     1       5.776   4.964  18.604  0.00  0.00    +0.000 N 
ATOM      2  N   UNL     1       5.403   3.834  19.256  0.00  0.00    +0.000 NA
ATOM      3  C   UNL     1       4.072   3.954  19.379  0.00  0.00    +0.000 A 
ATOM      4  C   UNL     1       3.599   5.171  18.817  0.00  0.00    +0.000 A 
ATOM      5  C   UNL     1       2.358   5.804  18.647  0.00  0.00    +0.000 A 
ATOM      6  C   UNL     1       2.352   7.024  17.974  0.00  0.00    +0.000 A 
ATOM      7  C   UNL     1       3.555   7.544  17.509  0.00  0.00    +0.000 A 
ATOM      8  N   UNL     1       4.777   6.972  17.648  0.00  0.00    +0.000 NA
ATOM      9  C   UNL     1       4.728   5.798  18.311  0.00  0.00    +0.000 A 
ENDROOT
BRANCH   3  10
ATOM     10  C   UNL     1       3.210   2.871  19.963  0.00  0.00    +0.000 C 
ATOM     11  C   UNL     1       2.209   2.210  19.019  0.00  0.00    +0.000 C 
ATOM     12  C   UNL     1       0.861   2.743  19.469  0.00  0.00    +0.000 C 
ATOM     13  N   UNL     1       0.991   2.872  20.927  0.00  0.00    +0.000 NA
ATOM     14  C   UNL     1       2.348   3.407  21.118  0.00  0.00    +0.000 C 
ATOM     15  H   UNL     1       0.939   1.942  21.343  0.00  0.00    +0.000 HD
ENDBRANCH   3  10
BRANCH   1  16
ATOM     16  C   UNL     1       7.169   5.186  18.257  0.00  0.00    +0.000 C 
BRANCH  16  17
ATOM     17  C   UNL     1       7.609   4.304  17.089  0.00  0.00    +0.000 C 
BRANCH  17  20
ATOM     18  C   UNL     1       6.631   4.517  14.825  0.00  0.00    +0.000 C 
ATOM     19  O   UNL     1       7.570   5.196  14.420  0.00  0.00    +0.000 OA
ATOM     20  N   UNL     1       6.547   4.057  16.120  0.00  0.00    +0.000 N 
ATOM     21  H   UNL     1       5.739   3.518  16.406  0.00  0.00    +0.000 HD
BRANCH  18  22
ATOM     22  C   UNL     1       5.467   4.137  13.926  0.00  0.00    +0.000 C 
BRANCH  22  24
ATOM     23  C   UNL     1       6.923   4.663  11.905  0.00  0.00    +0.000 C 
ATOM     24  C   UNL     1       5.870   3.709  12.494  0.00  0.00    +0.000 C 
ATOM     25  C   UNL     1       4.644   3.666  11.567  0.00  0.00    +0.000 C 
ATOM     26  C   UNL     1       6.485   2.297  12.559  0.00  0.00    +0.000 C 
ENDBRANCH  22  24
ENDBRANCH  18  22
ENDBRANCH  17  20
ENDBRANCH  16  17
ENDBRANCH   1  16
TORSDOF 6
ENDMDL
