MODEL 1
REMARK VINA RESULT:      -8.7      0.000      0.000
REMARK  Name = 
REMARK  6 active torsions:
REMARK  status: ('A' for Active; 'I' for Inactive)
REMARK    1  A    between atoms: C_1  and  C_2
REMARK    2  A    between atoms: C_5  and  S_6
REMARK    3  A    between atoms: S_6  and  N_9
REMARK    4  A    between atoms: N_9  and  C_10
REMARK    5  A    between atoms: N_9  and  C_17
REMARK    6  A    between atoms: N_20  and  C_21
REMARK                            x       y       z     vdW  Elec       q    Type
REMARK                         _______ _______ _______ _____ _____    ______ ____
ROOT
ATOM      1  N   UNL     1       3.472   5.295  19.016  0.00  0.00    +0.000 N 
ENDROOT
BRANCH   1   2
ATOM      2  C   UNL     1       2.469   4.332  19.386  0.00  0.00    +0.000 A 
ATOM      3  C   UNL     1       1.668   3.771  18.383  0.00  0.00    +0.000 A 
ATOM      4  C   UNL     1       0.772   2.741  18.689  0.00  0.00    +0.000 A 
ATOM      5  C   UNL     1       0.686   2.263  19.993  0.00  0.00    +0.000 A 
ATOM      6  C   UNL     1       1.453   2.855  20.988  0.00  0.00    +0.000 A 
ATOM      7  F   UNL     1       1.384   2.388  22.241  0.00  0.00    +0.000 F 
ATOM      8  C   UNL     1       2.317   3.905  20.701  0.00  0.00    +0.000 A 
ENDBRANCH   1   2
BRANCH   1   9
ATOM      9  C   UNL     1       3.202   6.775  19.108  0.00  0.00    +0.000 C 
ATOM     10  C   UNL     1       2.059   7.068  20.076  0.00  0.00    +0.000 C 
ATOM     11  C   UNL     1       1.634   8.525  20.087  0.00  0.00    +0.000 C 
ATOM     12  N   UNL     1       1.291   8.960  18.737  0.00  0.00    +0.000 NA
ATOM     13  C   UNL     1       0.736  10.312  18.773  0.00  0.00    +0.000 C 
ATOM     14  C   UNL     1       2.463   8.882  17.859  0.00  0.00    +0.000 C 
ATOM     15  C   UNL     1       2.944   7.431  17.735  0.00  0.00    +0.000 C 
ENDBRANCH   1   9
BRANCH   1  16
ATOM     16  S   UNL     1       5.096   4.714  18.923  0.00  0.00    +0.000 S 
ATOM     17  O   UNL     1       5.009   3.273  19.109  0.00  0.00    +0.000 OA
ATOM     18  O   UNL     1       5.961   5.495  19.774  0.00  0.00    +0.000 OA
BRANCH  16  23
ATOM     19  C   UNL     1       7.486   4.897  13.344  0.00  0.00    +0.000 C 
ATOM     20  C   UNL     1       6.831   4.998  14.686  0.00  0.00    +0.000 A 
ATOM     21  C   UNL     1       7.440   5.677  15.750  0.00  0.00    +0.000 A 
ATOM     22  C   UNL     1       6.867   5.647  17.025  0.00  0.00    +0.000 A 
ATOM     23  C   UNL     1       5.671   4.945  17.254  0.00  0.00    +0.000 A 
ATOM     24  C   UNL     1       4.996   4.399  16.177  0.00  0.00    +0.000 A 
ATOM     25  F   UNL     1       3.767   3.894  16.302  0.00  0.00    +0.000 F 
ATOM     26  C   UNL     1       5.598   4.378  14.917  0.00  0.00    +0.000 A 
ATOM     27  F   UNL     1       4.995   3.724  13.912  0.00  0.00    +0.000 F 
ENDBRANCH  16  23
ENDBRANCH   1  16
TORSDOF 4
ENDMDL
MODEL 2
REMARK VINA RESULT:      -8.7      0.831      1.242
REMARK  Name = 
REMARK  6 active torsions:
REMARK  status: ('A' for Active; 'I' for Inactive)
REMARK    1  A    between atoms: C_1  and  C_2
REMARK    2  A    between atoms: C_5  and  S_6
REMARK    3  A    between atoms: S_6  and  N_9
REMARK    4  A    between atoms: N_9  and  C_10
REMARK    5  A    between atoms: N_9  and  C_17
REMARK    6  A    between atoms: N_20  and  C_21
REMARK                            x       y       z     vdW  Elec       q    Type
REMARK                         _______ _______ _______ _____ _____    ______ ____
ROOT
ATOM      1  N   UNL     1       3.726   5.229  19.130  0.00  0.00    +0.000 N 
ENDROOT
BRANCH   1   2
ATOM      2  C   UNL     1       2.810   4.252  19.654  0.00  0.00    +0.000 A 
ATOM      3  C   UNL     1       2.762   4.044  21.037  0.00  0.00    +0.000 A 
ATOM      4  C   UNL     1       1.797   3.195  21.592  0.00  0.00    +0.000 A 
ATOM      5  C   UNL     1       0.872   2.567  20.763  0.00  0.00    +0.000 A 
ATOM      6  C   UNL     1       0.955   2.745  19.389  0.00  0.00    +0.000 A 
ATOM      7  F   UNL     1       0.057   2.154  18.590  0.00  0.00    +0.000 F 
ATOM      8  C   UNL     1       1.934   3.556  18.827  0.00  0.00    +0.000 A 
ENDBRANCH   1   2
BRANCH   1   9
ATOM      9  C   UNL     1       3.383   6.698  19.132  0.00  0.00    +0.000 C 
ATOM     10  C   UNL     1       2.184   6.983  20.032  0.00  0.00    +0.000 C 
ATOM     11  C   UNL     1       1.692   8.416  19.948  0.00  0.00    +0.000 C 
ATOM     12  N   UNL     1       1.393   8.766  18.563  0.00  0.00    +0.000 NA
ATOM     13  C   UNL     1       0.775  10.089  18.504  0.00  0.00    +0.000 C 
ATOM     14  C   UNL     1       2.607   8.700  17.743  0.00  0.00    +0.000 C 
ATOM     15  C   UNL     1       3.159   7.270  17.717  0.00  0.00    +0.000 C 
ENDBRANCH   1   9
BRANCH   1  16
ATOM     16  S   UNL     1       5.367   4.722  18.947  0.00  0.00    +0.000 S 
ATOM     17  O   UNL     1       5.360   3.284  19.169  0.00  0.00    +0.000 OA
ATOM     18  O   UNL     1       6.246   5.564  19.723  0.00  0.00    +0.000 OA
BRANCH  16  23
ATOM     19  C   UNL     1       7.351   4.843  13.208  0.00  0.00    +0.000 C 
ATOM     20  C   UNL     1       6.796   4.961  14.594  0.00  0.00    +0.000 A 
ATOM     21  C   UNL     1       7.494   5.629  15.609  0.00  0.00    +0.000 A 
ATOM     22  C   UNL     1       7.015   5.614  16.922  0.00  0.00    +0.000 A 
ATOM     23  C   UNL     1       5.824   4.938  17.239  0.00  0.00    +0.000 A 
ATOM     24  C   UNL     1       5.062   4.404  16.216  0.00  0.00    +0.000 A 
ATOM     25  F   UNL     1       3.836   3.925  16.431  0.00  0.00    +0.000 F 
ATOM     26  C   UNL     1       5.571   4.367  14.916  0.00  0.00    +0.000 A 
ATOM     27  F   UNL     1       4.884   3.724  13.959  0.00  0.00    +0.000 F 
ENDBRANCH  16  23
ENDBRANCH   1  16
TORSDOF 4
ENDMDL
MODEL 3
REMARK VINA RESULT:      -8.4      1.222      1.537
REMARK  Name = 
REMARK  6 active torsions:
REMARK  status: ('A' for Active; 'I' for Inactive)
REMARK    1  A    between atoms: C_1  and  C_2
REMARK    2  A    between atoms: C_5  and  S_6
REMARK    3  A    between atoms: S_6  and  N_9
REMARK    4  A    between atoms: N_9  and  C_10
REMARK    5  A    between atoms: N_9  and  C_17
REMARK    6  A    between atoms: N_20  and  C_21
REMARK                            x       y       z     vdW  Elec       q    Type
REMARK                         _______ _______ _______ _____ _____    ______ ____
ROOT
ATOM      1  N   UNL     1       3.542   5.249  19.046  0.00  0.00    +0.000 N 
ENDROOT
BRANCH   1   2
ATOM      2  C   UNL     1       2.520   4.289  19.365  0.00  0.00    +0.000 A 
ATOM      3  C   UNL     1       1.817   3.678  18.320  0.00  0.00    +0.000 A 
ATOM      4  C   UNL     1       0.907   2.650  18.586  0.00  0.00    +0.000 A 
ATOM      5  C   UNL     1       0.710   2.223  19.897  0.00  0.00    +0.000 A 
ATOM      6  C   UNL     1       1.380   2.864  20.930  0.00  0.00    +0.000 A 
ATOM      7  F   UNL     1       1.204   2.447  22.191  0.00  0.00    +0.000 F 
ATOM      8  C   UNL     1       2.256   3.913  20.678  0.00  0.00    +0.000 A 
ENDBRANCH   1   2
BRANCH   1   9
ATOM      9  C   UNL     1       3.269   6.731  19.115  0.00  0.00    +0.000 C 
ATOM     10  C   UNL     1       2.091   7.031  20.039  0.00  0.00    +0.000 C 
ATOM     11  C   UNL     1       1.665   8.488  20.021  0.00  0.00    +0.000 C 
ATOM     12  N   UNL     1       1.372   8.911  18.656  0.00  0.00    +0.000 NA
ATOM     13  C   UNL     1       0.816  10.262  18.659  0.00  0.00    +0.000 C 
ATOM     14  C   UNL     1       2.575   8.825  17.821  0.00  0.00    +0.000 C 
ATOM     15  C   UNL     1       3.061   7.374  17.728  0.00  0.00    +0.000 C 
ENDBRANCH   1   9
BRANCH   1  16
ATOM     16  S   UNL     1       5.169   4.668  19.047  0.00  0.00    +0.000 S 
ATOM     17  O   UNL     1       5.119   3.364  19.692  0.00  0.00    +0.000 OA
ATOM     18  O   UNL     1       6.068   5.680  19.547  0.00  0.00    +0.000 OA
BRANCH  16  23
ATOM     19  C   UNL     1       6.389   4.193  13.117  0.00  0.00    +0.000 C 
ATOM     20  C   UNL     1       6.155   4.162  14.596  0.00  0.00    +0.000 A 
ATOM     21  C   UNL     1       5.018   3.554  15.145  0.00  0.00    +0.000 A 
ATOM     22  C   UNL     1       4.760   3.650  16.516  0.00  0.00    +0.000 A 
ATOM     23  C   UNL     1       5.642   4.347  17.361  0.00  0.00    +0.000 A 
ATOM     24  C   UNL     1       6.835   4.820  16.844  0.00  0.00    +0.000 A 
ATOM     25  F   UNL     1       7.793   5.314  17.629  0.00  0.00    +0.000 F 
ATOM     26  C   UNL     1       7.061   4.776  15.466  0.00  0.00    +0.000 A 
ATOM     27  F   UNL     1       8.159   5.361  14.963  0.00  0.00    +0.000 F 
ENDBRANCH  16  23
ENDBRANCH   1  16
TORSDOF 4
ENDMDL
MODEL 4
REMARK VINA RESULT:      -8.3      1.477      1.977
REMARK  Name = 
REMARK  6 active torsions:
REMARK  status: ('A' for Active; 'I' for Inactive)
REMARK    1  A    between atoms: C_1  and  C_2
REMARK    2  A    between atoms: C_5  and  S_6
REMARK    3  A    between atoms: S_6  and  N_9
REMARK    4  A    between atoms: N_9  and  C_10
REMARK    5  A    between atoms: N_9  and  C_17
REMARK    6  A    between atoms: N_20  and  C_21
REMARK                            x       y       z     vdW  Elec       q    Type
REMARK                         _______ _______ _______ _____ _____    ______ ____
ROOT
ATOM      1  N   UNL     1       3.739   5.249  19.148  0.00  0.00    +0.000 N 
ENDROOT
BRANCH   1   2
ATOM      2  C   UNL     1       2.814   4.273  19.659  0.00  0.00    +0.000 A 
ATOM      3  C   UNL     1       2.719   4.092  21.044  0.00  0.00    +0.000 A 
ATOM      4  C   UNL     1       1.744   3.245  21.581  0.00  0.00    +0.000 A 
ATOM      5  C   UNL     1       0.855   2.590  20.734  0.00  0.00    +0.000 A 
ATOM      6  C   UNL     1       0.985   2.742  19.360  0.00  0.00    +0.000 A 
ATOM      7  F   UNL     1       0.123   2.124  18.542  0.00  0.00    +0.000 F 
ATOM      8  C   UNL     1       1.976   3.550  18.816  0.00  0.00    +0.000 A 
ENDBRANCH   1   2
BRANCH   1   9
ATOM      9  C   UNL     1       3.390   6.716  19.125  0.00  0.00    +0.000 C 
ATOM     10  C   UNL     1       2.178   7.007  20.006  0.00  0.00    +0.000 C 
ATOM     11  C   UNL     1       1.680   8.437  19.896  0.00  0.00    +0.000 C 
ATOM     12  N   UNL     1       1.397   8.766  18.503  0.00  0.00    +0.000 NA
ATOM     13  C   UNL     1       0.774  10.085  18.417  0.00  0.00    +0.000 C 
ATOM     14  C   UNL     1       2.622   8.695  17.699  0.00  0.00    +0.000 C 
ATOM     15  C   UNL     1       3.181   7.268  17.699  0.00  0.00    +0.000 C 
ENDBRANCH   1   9
BRANCH   1  16
ATOM     16  S   UNL     1       5.387   4.748  19.012  0.00  0.00    +0.000 S 
ATOM     17  O   UNL     1       5.467   3.472  19.707  0.00  0.00    +0.000 OA
ATOM     18  O   UNL     1       6.274   5.824  19.383  0.00  0.00    +0.000 OA
BRANCH  16  23
ATOM     19  C   UNL     1       6.121   4.124  13.016  0.00  0.00    +0.000 C 
ATOM     20  C   UNL     1       6.001   4.126  14.508  0.00  0.00    +0.000 A 
ATOM     21  C   UNL     1       4.881   3.585  15.154  0.00  0.00    +0.000 A 
ATOM     22  C   UNL     1       4.735   3.714  16.539  0.00  0.00    +0.000 A 
ATOM     23  C   UNL     1       5.712   4.379  17.300  0.00  0.00    +0.000 A 
ATOM     24  C   UNL     1       6.883   4.784  16.685  0.00  0.00    +0.000 A 
ATOM     25  F   UNL     1       7.921   5.242  17.386  0.00  0.00    +0.000 F 
ATOM     26  C   UNL     1       7.000   4.709  15.295  0.00  0.00    +0.000 A 
ATOM     27  F   UNL     1       8.083   5.231  14.698  0.00  0.00    +0.000 F 
ENDBRANCH  16  23
ENDBRANCH   1  16
TORSDOF 4
ENDMDL
MODEL 5
REMARK VINA RESULT:      -7.7      1.226      1.359
REMARK  Name = 
REMARK  6 active torsions:
REMARK  status: ('A' for Active; 'I' for Inactive)
REMARK    1  A    between atoms: C_1  and  C_2
REMARK    2  A    between atoms: C_5  and  S_6
REMARK    3  A    between atoms: S_6  and  N_9
REMARK    4  A    between atoms: N_9  and  C_10
REMARK    5  A    between atoms: N_9  and  C_17
REMARK    6  A    between atoms: N_20  and  C_21
REMARK                            x       y       z     vdW  Elec       q    Type
REMARK                         _______ _______ _______ _____ _____    ______ ____
ROOT
ATOM      1  N   UNL     1       3.296   5.458  19.165  0.00  0.00    +0.000 N 
ENDROOT
BRANCH   1   2
ATOM      2  C   UNL     1       2.329   4.431  19.445  0.00  0.00    +0.000 A 
ATOM      3  C   UNL     1       1.681   3.804  18.373  0.00  0.00    +0.000 A 
ATOM      4  C   UNL     1       0.830   2.717  18.601  0.00  0.00    +0.000 A 
ATOM      5  C   UNL     1       0.638   2.249  19.898  0.00  0.00    +0.000 A 
ATOM      6  C   UNL     1       1.250   2.905  20.957  0.00  0.00    +0.000 A 
ATOM      7  F   UNL     1       1.079   2.449  22.205  0.00  0.00    +0.000 F 
ATOM      8  C   UNL     1       2.066   4.010  20.744  0.00  0.00    +0.000 A 
ENDBRANCH   1   2
BRANCH   1   9
ATOM      9  C   UNL     1       2.963   6.916  19.358  0.00  0.00    +0.000 C 
ATOM     10  C   UNL     1       1.949   7.105  20.483  0.00  0.00    +0.000 C 
ATOM     11  C   UNL     1       1.453   8.534  20.616  0.00  0.00    +0.000 C 
ATOM     12  N   UNL     1       0.906   8.997  19.345  0.00  0.00    +0.000 NA
ATOM     13  C   UNL     1       0.291  10.312  19.515  0.00  0.00    +0.000 C 
ATOM     14  C   UNL     1       1.950   9.020  18.314  0.00  0.00    +0.000 C 
ATOM     15  C   UNL     1       2.486   7.606  18.063  0.00  0.00    +0.000 C 
ENDBRANCH   1   9
BRANCH   1  16
ATOM     16  S   UNL     1       4.945   4.952  19.064  0.00  0.00    +0.000 S 
ATOM     17  O   UNL     1       4.974   3.600  19.603  0.00  0.00    +0.000 OA
ATOM     18  O   UNL     1       5.818   5.962  19.612  0.00  0.00    +0.000 OA
BRANCH  16  23
ATOM     19  C   UNL     1       5.663   4.198  13.081  0.00  0.00    +0.000 C 
ATOM     20  C   UNL     1       5.649   4.398  14.565  0.00  0.00    +0.000 A 
ATOM     21  C   UNL     1       5.833   3.327  15.450  0.00  0.00    +0.000 A 
ATOM     22  C   UNL     1       5.689   3.518  16.827  0.00  0.00    +0.000 A 
ATOM     23  C   UNL     1       5.367   4.786  17.342  0.00  0.00    +0.000 A 
ATOM     24  C   UNL     1       5.328   5.870  16.483  0.00  0.00    +0.000 A 
ATOM     25  F   UNL     1       5.222   7.120  16.935  0.00  0.00    +0.000 F 
ATOM     26  C   UNL     1       5.413   5.667  15.104  0.00  0.00    +0.000 A 
ATOM     27  F   UNL     1       5.236   6.708  14.274  0.00  0.00    +0.000 F 
ENDBRANCH  16  23
ENDBRANCH   1  16
TORSDOF 4
ENDMDL
MODEL 6
REMARK VINA RESULT:      -7.4      4.400      7.309
REMARK  Name = 
REMARK  6 active torsions:
REMARK  status: ('A' for Active; 'I' for Inactive)
REMARK    1  A    between atoms: C_1  and  C_2
REMARK    2  A    between atoms: C_5  and  S_6
REMARK    3  A    between atoms: S_6  and  N_9
REMARK    4  A    between atoms: N_9  and  C_10
REMARK    5  A    between atoms: N_9  and  C_17
REMARK    6  A    between atoms: N_20  and  C_21
REMARK                            x       y       z     vdW  Elec       q    Type
REMARK                         _______ _______ _______ _____ _____    ______ ____
ROOT
ATOM      1  N   UNL     1      -0.054  11.330  19.021  0.00  0.00    +0.000 N 
ENDROOT
BRANCH   1   2
ATOM      2  C   UNL     1      -1.361  11.069  18.480  0.00  0.00    +0.000 A 
ATOM      3  C   UNL     1      -2.455  11.787  18.979  0.00  0.00    +0.000 A 
ATOM      4  C   UNL     1      -3.717  11.652  18.390  0.00  0.00    +0.000 A 
ATOM      5  C   UNL     1      -3.881  10.809  17.294  0.00  0.00    +0.000 A 
ATOM      6  C   UNL     1      -2.801  10.069  16.835  0.00  0.00    +0.000 A 
ATOM      7  F   UNL     1      -2.952   9.269  15.772  0.00  0.00    +0.000 F 
ATOM      8  C   UNL     1      -1.553  10.168  17.438  0.00  0.00    +0.000 A 
ENDBRANCH   1   2
BRANCH   1   9
ATOM      9  C   UNL     1       0.608  12.674  18.846  0.00  0.00    +0.000 C 
ATOM     10  C   UNL     1       2.065  12.519  18.419  0.00  0.00    +0.000 C 
ATOM     11  C   UNL     1       2.827  13.831  18.385  0.00  0.00    +0.000 C 
ATOM     12  N   UNL     1       2.737  14.500  19.679  0.00  0.00    +0.000 NA
ATOM     13  C   UNL     1       3.597  15.681  19.692  0.00  0.00    +0.000 C 
ATOM     14  C   UNL     1       1.344  14.843  19.984  0.00  0.00    +0.000 C 
ATOM     15  C   UNL     1       0.491  13.574  20.094  0.00  0.00    +0.000 C 
ENDBRANCH   1   9
BRANCH   1  16
ATOM     16  S   UNL     1       0.501  10.243  20.244  0.00  0.00    +0.000 S 
ATOM     17  O   UNL     1      -0.699   9.641  20.808  0.00  0.00    +0.000 OA
ATOM     18  O   UNL     1       1.449  10.900  21.112  0.00  0.00    +0.000 OA
BRANCH  16  23
ATOM     19  C   UNL     1       4.102   6.065  17.703  0.00  0.00    +0.000 C 
ATOM     20  C   UNL     1       3.089   7.017  18.260  0.00  0.00    +0.000 A 
ATOM     21  C   UNL     1       2.629   8.114  17.519  0.00  0.00    +0.000 A 
ATOM     22  C   UNL     1       1.781   9.057  18.108  0.00  0.00    +0.000 A 
ATOM     23  C   UNL     1       1.372   8.911  19.445  0.00  0.00    +0.000 A 
ATOM     24  C   UNL     1       1.706   7.756  20.128  0.00  0.00    +0.000 A 
ATOM     25  F   UNL     1       1.188   7.473  21.324  0.00  0.00    +0.000 F 
ATOM     26  C   UNL     1       2.601   6.847  19.560  0.00  0.00    +0.000 A 
ATOM     27  F   UNL     1       3.025   5.801  20.286  0.00  0.00    +0.000 F 
ENDBRANCH  16  23
ENDBRANCH   1  16
TORSDOF 4
ENDMDL
MODEL 7
REMARK VINA RESULT:      -7.2      4.862      7.615
REMARK  Name = 
REMARK  6 active torsions:
REMARK  status: ('A' for Active; 'I' for Inactive)
REMARK    1  A    between atoms: C_1  and  C_2
REMARK    2  A    between atoms: C_5  and  S_6
REMARK    3  A    between atoms: S_6  and  N_9
REMARK    4  A    between atoms: N_9  and  C_10
REMARK    5  A    between atoms: N_9  and  C_17
REMARK    6  A    between atoms: N_20  and  C_21
REMARK                            x       y       z     vdW  Elec       q    Type
REMARK                         _______ _______ _______ _____ _____    ______ ____
ROOT
ATOM      1  N   UNL     1      -0.141  11.674  18.968  0.00  0.00    +0.000 N 
ENDROOT
BRANCH   1   2
ATOM      2  C   UNL     1      -1.459  11.370  18.480  0.00  0.00    +0.000 A 
ATOM      3  C   UNL     1      -1.618  10.312  17.577  0.00  0.00    +0.000 A 
ATOM      4  C   UNL     1      -2.897   9.906  17.180  0.00  0.00    +0.000 A 
ATOM      5  C   UNL     1      -4.017  10.551  17.698  0.00  0.00    +0.000 A 
ATOM      6  C   UNL     1      -3.848  11.627  18.558  0.00  0.00    +0.000 A 
ATOM      7  F   UNL     1      -4.924  12.239  19.070  0.00  0.00    +0.000 F 
ATOM      8  C   UNL     1      -2.581  12.060  18.928  0.00  0.00    +0.000 A 
ENDBRANCH   1   2
BRANCH   1   9
ATOM      9  C   UNL     1       0.503  13.009  18.690  0.00  0.00    +0.000 C 
ATOM     10  C   UNL     1       1.977  12.845  18.326  0.00  0.00    +0.000 C 
ATOM     11  C   UNL     1       2.718  14.163  18.195  0.00  0.00    +0.000 C 
ATOM     12  N   UNL     1       2.572  14.947  19.417  0.00  0.00    +0.000 NA
ATOM     13  C   UNL     1       3.410  16.142  19.348  0.00  0.00    +0.000 C 
ATOM     14  C   UNL     1       1.163  15.289  19.644  0.00  0.00    +0.000 C 
ATOM     15  C   UNL     1       0.329  14.019  19.844  0.00  0.00    +0.000 C 
ENDBRANCH   1   9
BRANCH   1  16
ATOM     16  S   UNL     1       0.458  10.671  20.241  0.00  0.00    +0.000 S 
ATOM     17  O   UNL     1      -0.722  10.160  20.924  0.00  0.00    +0.000 OA
ATOM     18  O   UNL     1       1.478  11.363  20.992  0.00  0.00    +0.000 OA
BRANCH  16  23
ATOM     19  C   UNL     1       3.765   6.147  17.901  0.00  0.00    +0.000 C 
ATOM     20  C   UNL     1       2.819   7.191  18.411  0.00  0.00    +0.000 A 
ATOM     21  C   UNL     1       2.441   8.285  17.622  0.00  0.00    +0.000 A 
ATOM     22  C   UNL     1       1.659   9.309  18.165  0.00  0.00    +0.000 A 
ATOM     23  C   UNL     1       1.235   9.249  19.504  0.00  0.00    +0.000 A 
ATOM     24  C   UNL     1       1.484   8.103  20.237  0.00  0.00    +0.000 A 
ATOM     25  F   UNL     1       0.942   7.908  21.440  0.00  0.00    +0.000 F 
ATOM     26  C   UNL     1       2.315   7.110  19.713  0.00  0.00    +0.000 A 
ATOM     27  F   UNL     1       2.662   6.068  20.486  0.00  0.00    +0.000 F 
ENDBRANCH  16  23
ENDBRANCH   1  16
TORSDOF 4
ENDMDL
MODEL 8
REMARK VINA RESULT:      -7.2      4.336      7.259
REMARK  Name = 
REMARK  6 active torsions:
REMARK  status: ('A' for Active; 'I' for Inactive)
REMARK    1  A    between atoms: C_1  and  C_2
REMARK    2  A    between atoms: C_5  and  S_6
REMARK    3  A    between atoms: S_6  and  N_9
REMARK    4  A    between atoms: N_9  and  C_10
REMARK    5  A    between atoms: N_9  and  C_17
REMARK    6  A    between atoms: N_20  and  C_21
REMARK                            x       y       z     vdW  Elec       q    Type
REMARK                         _______ _______ _______ _____ _____    ______ ____
ROOT
ATOM      1  N   UNL     1       0.029  11.255  19.544  0.00  0.00    +0.000 N 
ENDROOT
BRANCH   1   2
ATOM      2  C   UNL     1      -1.219  11.102  18.846  0.00  0.00    +0.000 A 
ATOM      3  C   UNL     1      -2.356  11.748  19.346  0.00  0.00    +0.000 A 
ATOM      4  C   UNL     1      -3.555  11.727  18.625  0.00  0.00    +0.000 A 
ATOM      5  C   UNL     1      -3.612  11.071  17.398  0.00  0.00    +0.000 A 
ATOM      6  C   UNL     1      -2.492  10.398  16.932  0.00  0.00    +0.000 A 
ATOM      7  F   UNL     1      -2.539   9.779  15.745  0.00  0.00    +0.000 F 
ATOM      8  C   UNL     1      -1.308  10.381  17.660  0.00  0.00    +0.000 A 
ENDBRANCH   1   2
BRANCH   1   9
ATOM      9  C   UNL     1       0.677  12.608  19.697  0.00  0.00    +0.000 C 
ATOM     10  C   UNL     1      -0.158  13.697  19.028  0.00  0.00    +0.000 C 
ATOM     11  C   UNL     1       0.523  15.053  19.008  0.00  0.00    +0.000 C 
ATOM     12  N   UNL     1       1.835  14.949  18.379  0.00  0.00    +0.000 NA
ATOM     13  C   UNL     1       2.421  16.279  18.221  0.00  0.00    +0.000 C 
ATOM     14  C   UNL     1       2.709  14.064  19.156  0.00  0.00    +0.000 C 
ATOM     15  C   UNL     1       2.135  12.643  19.194  0.00  0.00    +0.000 C 
ENDBRANCH   1   9
BRANCH   1  16
ATOM     16  S   UNL     1       0.496   9.949  20.575  0.00  0.00    +0.000 S 
ATOM     17  O   UNL     1      -0.742   9.274  20.937  0.00  0.00    +0.000 OA
ATOM     18  O   UNL     1       1.387  10.416  21.610  0.00  0.00    +0.000 OA
BRANCH  16  23
ATOM     19  C   UNL     1       4.235   6.317  17.459  0.00  0.00    +0.000 C 
ATOM     20  C   UNL     1       3.190   7.137  18.151  0.00  0.00    +0.000 A 
ATOM     21  C   UNL     1       2.653   8.289  17.562  0.00  0.00    +0.000 A 
ATOM     22  C   UNL     1       1.774   9.105  18.281  0.00  0.00    +0.000 A 
ATOM     23  C   UNL     1       1.411   8.775  19.599  0.00  0.00    +0.000 A 
ATOM     24  C   UNL     1       1.825   7.565  20.127  0.00  0.00    +0.000 A 
ATOM     25  F   UNL     1       1.356   7.110  21.289  0.00  0.00    +0.000 F 
ATOM     26  C   UNL     1       2.749   6.782  19.431  0.00  0.00    +0.000 A 
ATOM     27  F   UNL     1       3.247   5.681  20.013  0.00  0.00    +0.000 F 
ENDBRANCH  16  23
ENDBRANCH   1  16
TORSDOF 4
ENDMDL
MODEL 9
REMARK VINA RESULT:      -7.1      4.617      7.301
REMARK  Name = 
REMARK  6 active torsions:
REMARK  status: ('A' for Active; 'I' for Inactive)
REMARK    1  A    between atoms: C_1  and  C_2
REMARK    2  A    between atoms: C_5  and  S_6
REMARK    3  A    between atoms: S_6  and  N_9
REMARK    4  A    between atoms: N_9  and  C_10
REMARK    5  A    between atoms: N_9  and  C_17
REMARK    6  A    between atoms: N_20  and  C_21
REMARK                            x       y       z     vdW  Elec       q    Type
REMARK                         _______ _______ _______ _____ _____    ______ ____
ROOT
ATOM      1  N   UNL     1       0.230  11.320  19.493  0.00  0.00    +0.000 N 
ENDROOT
BRANCH   1   2
ATOM      2  C   UNL     1      -1.068  11.347  18.875  0.00  0.00    +0.000 A 
ATOM      3  C   UNL     1      -1.266  10.633  17.687  0.00  0.00    +0.000 A 
ATOM      4  C   UNL     1      -2.544  10.533  17.126  0.00  0.00    +0.000 A 
ATOM      5  C   UNL     1      -3.626  11.137  17.760  0.00  0.00    +0.000 A 
ATOM      6  C   UNL     1      -3.412  11.879  18.914  0.00  0.00    +0.000 A 
ATOM      7  F   UNL     1      -4.453  12.448  19.535  0.00  0.00    +0.000 F 
ATOM      8  C   UNL     1      -2.141  12.015  19.457  0.00  0.00    +0.000 A 
ENDBRANCH   1   2
BRANCH   1   9
ATOM      9  C   UNL     1       1.082  12.561  19.572  0.00  0.00    +0.000 C 
ATOM     10  C   UNL     1       0.242  13.820  19.376  0.00  0.00    +0.000 C 
ATOM     11  C   UNL     1       1.068  15.090  19.282  0.00  0.00    +0.000 C 
ATOM     12  N   UNL     1       2.065  14.966  18.225  0.00  0.00    +0.000 NA
ATOM     13  C   UNL     1       2.753  16.240  18.034  0.00  0.00    +0.000 C 
ATOM     14  C   UNL     1       3.008  13.885  18.532  0.00  0.00    +0.000 C 
ATOM     15  C   UNL     1       2.278  12.538  18.597  0.00  0.00    +0.000 C 
ENDBRANCH   1   9
BRANCH   1  16
ATOM     16  S   UNL     1       0.558   9.976  20.529  0.00  0.00    +0.000 S 
ATOM     17  O   UNL     1      -0.738   9.384  20.825  0.00  0.00    +0.000 OA
ATOM     18  O   UNL     1       1.429  10.372  21.609  0.00  0.00    +0.000 OA
BRANCH  16  23
ATOM     19  C   UNL     1       4.182   6.162  17.497  0.00  0.00    +0.000 C 
ATOM     20  C   UNL     1       3.163   7.027  18.172  0.00  0.00    +0.000 A 
ATOM     21  C   UNL     1       2.651   8.175  17.552  0.00  0.00    +0.000 A 
ATOM     22  C   UNL     1       1.798   9.033  18.253  0.00  0.00    +0.000 A 
ATOM     23  C   UNL     1       1.436   8.751  19.582  0.00  0.00    +0.000 A 
ATOM     24  C   UNL     1       1.823   7.547  20.142  0.00  0.00    +0.000 A 
ATOM     25  F   UNL     1       1.352   7.138  21.321  0.00  0.00    +0.000 F 
ATOM     26  C   UNL     1       2.723   6.722  19.464  0.00  0.00    +0.000 A 
ATOM     27  F   UNL     1       3.198   5.625  20.075  0.00  0.00    +0.000 F 
ENDBRANCH  16  23
ENDBRANCH   1  16
TORSDOF 4
ENDMDL
