MODEL 1
REMARK VINA RESULT:      -6.7      0.000      0.000
REMARK  Name = 
REMARK  8 active torsions:
REMARK  status: ('A' for Active; 'I' for Inactive)
REMARK    1  A    between atoms: C_1  and  O_2
REMARK    2  A    between atoms: O_2  and  C_3
REMARK    3  A    between atoms: C_3  and  C_5
REMARK    4  A    between atoms: C_5  and  S_6
REMARK    5  A    between atoms: S_6  and  C_7
REMARK    6  A    between atoms: C_9  and  C_10
REMARK    7  A    between atoms: C_14  and  O_15
REMARK    8  A    between atoms: O_15  and  C_16
REMARK                            x       y       z     vdW  Elec       q    Type
REMARK                         _______ _______ _______ _____ _____    ______ ____
ROOT
ATOM      1  C   UNL     1       4.147   5.289  18.939  0.00  0.00    +0.000 A 
ATOM      2  N   UNL     1       5.359   5.585  19.432  0.00  0.00    +0.000 NA
ATOM      3  C   UNL     1       6.404   5.471  18.587  0.00  0.00    +0.000 A 
ATOM      4  C   UNL     1       7.757   5.742  19.182  0.00  0.00    +0.000 C 
ATOM      5  C   UNL     1       6.258   5.079  17.251  0.00  0.00    +0.000 A 
ATOM      6  C   UNL     1       7.328   4.919  16.342  0.00  0.00    +0.000 A 
ATOM      7  C   UNL     1       7.097   4.514  15.029  0.00  0.00    +0.000 A 
ATOM      8  C   UNL     1       5.797   4.263  14.610  0.00  0.00    +0.000 A 
ATOM      9  C   UNL     1       4.742   4.421  15.519  0.00  0.00    +0.000 A 
ATOM     10  C   UNL     1       4.947   4.822  16.839  0.00  0.00    +0.000 A 
ATOM     11  N   UNL     1       3.901   4.925  17.672  0.00  0.00    +0.000 NA
ENDROOT
BRANCH   8  12
ATOM     12  O   UNL     1       5.434   3.861  13.352  0.00  0.00    +0.000 OA
ATOM     13  C   UNL     1       6.491   3.621  12.428  0.00  0.00    +0.000 C 
ENDBRANCH   8  12
BRANCH   1  14
ATOM     14  S   UNL     1       2.794   5.176  20.088  0.00  0.00    +0.000 S 
BRANCH  14  15
ATOM     15  C   UNL     1       2.871   3.399  20.484  0.00  0.00    +0.000 C 
BRANCH  15  16
ATOM     16  C   UNL     1       1.552   2.907  21.038  0.00  0.00    +0.000 C 
ATOM     17  O   UNL     1       1.368   2.479  22.173  0.00  0.00    +0.000 OA
BRANCH  16  19
ATOM     18  C   UNL     1       0.777   2.311  18.920  0.00  0.00    +0.000 C 
ATOM     19  O   UNL     1       0.558   3.064  20.116  0.00  0.00    +0.000 OA
ENDBRANCH  16  19
ENDBRANCH  15  16
ENDBRANCH  14  15
ENDBRANCH   1  14
TORSDOF 5
ENDMDL
MODEL 2
REMARK VINA RESULT:      -6.7      1.380      1.537
REMARK  Name = 
REMARK  8 active torsions:
REMARK  status: ('A' for Active; 'I' for Inactive)
REMARK    1  A    between atoms: C_1  and  O_2
REMARK    2  A    between atoms: O_2  and  C_3
REMARK    3  A    between atoms: C_3  and  C_5
REMARK    4  A    between atoms: C_5  and  S_6
REMARK    5  A    between atoms: S_6  and  C_7
REMARK    6  A    between atoms: C_9  and  C_10
REMARK    7  A    between atoms: C_14  and  O_15
REMARK    8  A    between atoms: O_15  and  C_16
REMARK                            x       y       z     vdW  Elec       q    Type
REMARK                         _______ _______ _______ _____ _____    ______ ____
ROOT
ATOM      1  C   UNL     1       4.823   3.580  18.846  0.00  0.00    +0.000 A 
ATOM      2  N   UNL     1       5.781   4.411  19.286  0.00  0.00    +0.000 NA
ATOM      3  C   UNL     1       6.570   4.980  18.352  0.00  0.00    +0.000 A 
ATOM      4  C   UNL     1       7.677   5.850  18.874  0.00  0.00    +0.000 C 
ATOM      5  C   UNL     1       6.410   4.745  16.981  0.00  0.00    +0.000 A 
ATOM      6  C   UNL     1       7.231   5.297  15.972  0.00  0.00    +0.000 A 
ATOM      7  C   UNL     1       7.010   5.003  14.629  0.00  0.00    +0.000 A 
ATOM      8  C   UNL     1       5.969   4.155  14.277  0.00  0.00    +0.000 A 
ATOM      9  C   UNL     1       5.160   3.609  15.284  0.00  0.00    +0.000 A 
ATOM     10  C   UNL     1       5.363   3.885  16.636  0.00  0.00    +0.000 A 
ATOM     11  N   UNL     1       4.577   3.307  17.557  0.00  0.00    +0.000 NA
ENDROOT
BRANCH   8  12
ATOM     12  O   UNL     1       5.645   3.786  12.998  0.00  0.00    +0.000 OA
ATOM     13  C   UNL     1       6.731   3.506  12.121  0.00  0.00    +0.000 C 
ENDBRANCH   8  12
BRANCH   1  14
ATOM     14  S   UNL     1       3.944   2.619  20.057  0.00  0.00    +0.000 S 
BRANCH  14  15
ATOM     15  C   UNL     1       2.630   1.922  19.005  0.00  0.00    +0.000 C 
BRANCH  15  16
ATOM     16  C   UNL     1       1.358   2.733  19.113  0.00  0.00    +0.000 C 
ATOM     17  O   UNL     1       0.747   2.970  20.150  0.00  0.00    +0.000 OA
BRANCH  16  19
ATOM     18  C   UNL     1       1.433   4.583  17.694  0.00  0.00    +0.000 C 
ATOM     19  O   UNL     1       1.005   3.233  17.894  0.00  0.00    +0.000 OA
ENDBRANCH  16  19
ENDBRANCH  15  16
ENDBRANCH  14  15
ENDBRANCH   1  14
TORSDOF 5
ENDMDL
MODEL 3
REMARK VINA RESULT:      -6.7      1.276      1.444
REMARK  Name = 
REMARK  8 active torsions:
REMARK  status: ('A' for Active; 'I' for Inactive)
REMARK    1  A    between atoms: C_1  and  O_2
REMARK    2  A    between atoms: O_2  and  C_3
REMARK    3  A    between atoms: C_3  and  C_5
REMARK    4  A    between atoms: C_5  and  S_6
REMARK    5  A    between atoms: S_6  and  C_7
REMARK    6  A    between atoms: C_9  and  C_10
REMARK    7  A    between atoms: C_14  and  O_15
REMARK    8  A    between atoms: O_15  and  C_16
REMARK                            x       y       z     vdW  Elec       q    Type
REMARK                         _______ _______ _______ _____ _____    ______ ____
ROOT
ATOM      1  C   UNL     1       4.893   3.516  18.957  0.00  0.00    +0.000 A 
ATOM      2  N   UNL     1       5.817   4.393  19.376  0.00  0.00    +0.000 NA
ATOM      3  C   UNL     1       6.565   4.991  18.427  0.00  0.00    +0.000 A 
ATOM      4  C   UNL     1       7.638   5.916  18.927  0.00  0.00    +0.000 C 
ATOM      5  C   UNL     1       6.397   4.738  17.060  0.00  0.00    +0.000 A 
ATOM      6  C   UNL     1       7.177   5.319  16.036  0.00  0.00    +0.000 A 
ATOM      7  C   UNL     1       6.952   5.003  14.698  0.00  0.00    +0.000 A 
ATOM      8  C   UNL     1       5.946   4.105  14.367  0.00  0.00    +0.000 A 
ATOM      9  C   UNL     1       5.178   3.530  15.390  0.00  0.00    +0.000 A 
ATOM     10  C   UNL     1       5.387   3.827  16.737  0.00  0.00    +0.000 A 
ATOM     11  N   UNL     1       4.642   3.220  17.673  0.00  0.00    +0.000 NA
ENDROOT
BRANCH   8  12
ATOM     12  O   UNL     1       5.622   3.711  13.097  0.00  0.00    +0.000 OA
ATOM     13  C   UNL     1       6.690   3.644  12.157  0.00  0.00    +0.000 C 
ENDBRANCH   8  12
BRANCH   1  14
ATOM     14  S   UNL     1       4.078   2.524  20.188  0.00  0.00    +0.000 S 
BRANCH  14  15
ATOM     15  C   UNL     1       2.342   2.804  19.710  0.00  0.00    +0.000 C 
BRANCH  15  16
ATOM     16  C   UNL     1       1.521   3.274  20.891  0.00  0.00    +0.000 C 
ATOM     17  O   UNL     1       1.453   2.718  21.982  0.00  0.00    +0.000 OA
BRANCH  16  19
ATOM     18  C   UNL     1       1.792   5.576  20.632  0.00  0.00    +0.000 C 
ATOM     19  O   UNL     1       0.904   4.457  20.602  0.00  0.00    +0.000 OA
ENDBRANCH  16  19
ENDBRANCH  15  16
ENDBRANCH  14  15
ENDBRANCH   1  14
TORSDOF 5
ENDMDL
MODEL 4
REMARK VINA RESULT:      -6.6      3.066      6.372
REMARK  Name = 
REMARK  8 active torsions:
REMARK  status: ('A' for Active; 'I' for Inactive)
REMARK    1  A    between atoms: C_1  and  O_2
REMARK    2  A    between atoms: O_2  and  C_3
REMARK    3  A    between atoms: C_3  and  C_5
REMARK    4  A    between atoms: C_5  and  S_6
REMARK    5  A    between atoms: S_6  and  C_7
REMARK    6  A    between atoms: C_9  and  C_10
REMARK    7  A    between atoms: C_14  and  O_15
REMARK    8  A    between atoms: O_15  and  C_16
REMARK                            x       y       z     vdW  Elec       q    Type
REMARK                         _______ _______ _______ _____ _____    ______ ____
ROOT
ATOM      1  C   UNL     1       4.482   4.513  16.571  0.00  0.00    +0.000 A 
ATOM      2  N   UNL     1       4.323   3.347  17.216  0.00  0.00    +0.000 NA
ATOM      3  C   UNL     1       3.642   3.382  18.379  0.00  0.00    +0.000 A 
ATOM      4  C   UNL     1       3.539   2.076  19.115  0.00  0.00    +0.000 C 
ATOM      5  C   UNL     1       3.102   4.562  18.905  0.00  0.00    +0.000 A 
ATOM      6  C   UNL     1       2.408   4.648  20.133  0.00  0.00    +0.000 A 
ATOM      7  C   UNL     1       1.912   5.866  20.590  0.00  0.00    +0.000 A 
ATOM      8  C   UNL     1       2.102   7.011  19.829  0.00  0.00    +0.000 A 
ATOM      9  C   UNL     1       2.795   6.918  18.613  0.00  0.00    +0.000 A 
ATOM     10  C   UNL     1       3.304   5.711  18.135  0.00  0.00    +0.000 A 
ATOM     11  N   UNL     1       3.987   5.690  16.980  0.00  0.00    +0.000 NA
ENDROOT
BRANCH   8  12
ATOM     12  O   UNL     1       1.666   8.266  20.162  0.00  0.00    +0.000 OA
ATOM     13  C   UNL     1       1.140   8.432  21.475  0.00  0.00    +0.000 C 
ENDBRANCH   8  12
BRANCH   1  14
ATOM     14  S   UNL     1       5.590   4.543  15.181  0.00  0.00    +0.000 S 
BRANCH  14  15
ATOM     15  C   UNL     1       7.168   4.228  16.036  0.00  0.00    +0.000 C 
BRANCH  15  16
ATOM     16  C   UNL     1       7.445   5.289  17.077  0.00  0.00    +0.000 C 
ATOM     17  O   UNL     1       7.561   6.491  16.860  0.00  0.00    +0.000 OA
BRANCH  16  19
ATOM     18  C   UNL     1       6.868   5.552  19.321  0.00  0.00    +0.000 C 
ATOM     19  O   UNL     1       7.486   4.736  18.324  0.00  0.00    +0.000 OA
ENDBRANCH  16  19
ENDBRANCH  15  16
ENDBRANCH  14  15
ENDBRANCH   1  14
TORSDOF 5
ENDMDL
MODEL 5
REMARK VINA RESULT:      -6.5      3.076      6.487
REMARK  Name = 
REMARK  8 active torsions:
REMARK  status: ('A' for Active; 'I' for Inactive)
REMARK    1  A    between atoms: C_1  and  O_2
REMARK    2  A    between atoms: O_2  and  C_3
REMARK    3  A    between atoms: C_3  and  C_5
REMARK    4  A    between atoms: C_5  and  S_6
REMARK    5  A    between atoms: S_6  and  C_7
REMARK    6  A    between atoms: C_9  and  C_10
REMARK    7  A    between atoms: C_14  and  O_15
REMARK    8  A    between atoms: O_15  and  C_16
REMARK                            x       y       z     vdW  Elec       q    Type
REMARK                         _______ _______ _______ _____ _____    ______ ____
ROOT
ATOM      1  C   UNL     1       4.477   4.851  16.733  0.00  0.00    +0.000 A 
ATOM      2  N   UNL     1       4.216   3.551  16.932  0.00  0.00    +0.000 NA
ATOM      3  C   UNL     1       3.400   3.244  17.962  0.00  0.00    +0.000 A 
ATOM      4  C   UNL     1       3.179   1.779  18.206  0.00  0.00    +0.000 C 
ATOM      5  C   UNL     1       2.829   4.218  18.790  0.00  0.00    +0.000 A 
ATOM      6  C   UNL     1       1.994   3.939  19.896  0.00  0.00    +0.000 A 
ATOM      7  C   UNL     1       1.474   4.969  20.677  0.00  0.00    +0.000 A 
ATOM      8  C   UNL     1       1.781   6.286  20.365  0.00  0.00    +0.000 A 
ATOM      9  C   UNL     1       2.613   6.554  19.268  0.00  0.00    +0.000 A 
ATOM     10  C   UNL     1       3.148   5.541  18.473  0.00  0.00    +0.000 A 
ATOM     11  N   UNL     1       3.965   5.858  17.456  0.00  0.00    +0.000 NA
ENDROOT
BRANCH   8  12
ATOM     12  O   UNL     1       1.338   7.387  21.049  0.00  0.00    +0.000 OA
ATOM     13  C   UNL     1       1.323   8.619  20.335  0.00  0.00    +0.000 C 
ENDBRANCH   8  12
BRANCH   1  14
ATOM     14  S   UNL     1       5.746   5.267  15.558  0.00  0.00    +0.000 S 
BRANCH  14  15
ATOM     15  C   UNL     1       7.201   4.585  16.418  0.00  0.00    +0.000 C 
BRANCH  15  16
ATOM     16  C   UNL     1       7.472   5.332  17.705  0.00  0.00    +0.000 C 
ATOM     17  O   UNL     1       7.911   4.840  18.739  0.00  0.00    +0.000 OA
BRANCH  16  19
ATOM     18  C   UNL     1       8.139   7.497  18.259  0.00  0.00    +0.000 C 
ATOM     19  O   UNL     1       7.223   6.665  17.545  0.00  0.00    +0.000 OA
ENDBRANCH  16  19
ENDBRANCH  15  16
ENDBRANCH  14  15
ENDBRANCH   1  14
TORSDOF 5
ENDMDL
MODEL 6
REMARK VINA RESULT:      -6.5      3.253      6.580
REMARK  Name = 
REMARK  8 active torsions:
REMARK  status: ('A' for Active; 'I' for Inactive)
REMARK    1  A    between atoms: C_1  and  O_2
REMARK    2  A    between atoms: O_2  and  C_3
REMARK    3  A    between atoms: C_3  and  C_5
REMARK    4  A    between atoms: C_5  and  S_6
REMARK    5  A    between atoms: S_6  and  C_7
REMARK    6  A    between atoms: C_9  and  C_10
REMARK    7  A    between atoms: C_14  and  O_15
REMARK    8  A    between atoms: O_15  and  C_16
REMARK                            x       y       z     vdW  Elec       q    Type
REMARK                         _______ _______ _______ _____ _____    ______ ____
ROOT
ATOM      1  C   UNL     1       3.919   4.399  17.547  0.00  0.00    +0.000 A 
ATOM      2  N   UNL     1       3.643   3.540  18.540  0.00  0.00    +0.000 NA
ATOM      3  C   UNL     1       2.955   4.027  19.592  0.00  0.00    +0.000 A 
ATOM      4  C   UNL     1       2.718   3.064  20.721  0.00  0.00    +0.000 C 
ATOM      5  C   UNL     1       2.524   5.357  19.665  0.00  0.00    +0.000 A 
ATOM      6  C   UNL     1       1.827   5.915  20.760  0.00  0.00    +0.000 A 
ATOM      7  C   UNL     1       1.443   7.254  20.757  0.00  0.00    +0.000 A 
ATOM      8  C   UNL     1       1.751   8.051  19.663  0.00  0.00    +0.000 A 
ATOM      9  C   UNL     1       2.446   7.491  18.582  0.00  0.00    +0.000 A 
ATOM     10  C   UNL     1       2.844   6.154  18.562  0.00  0.00    +0.000 A 
ATOM     11  N   UNL     1       3.535   5.683  17.513  0.00  0.00    +0.000 NA
ENDROOT
BRANCH   8  12
ATOM     12  O   UNL     1       1.433   9.377  19.534  0.00  0.00    +0.000 OA
ATOM     13  C   UNL     1       0.983   9.804  18.252  0.00  0.00    +0.000 C 
ENDBRANCH   8  12
BRANCH   1  14
ATOM     14  S   UNL     1       5.042   3.859  16.278  0.00  0.00    +0.000 S 
BRANCH  14  15
ATOM     15  C   UNL     1       5.844   5.446  15.878  0.00  0.00    +0.000 C 
BRANCH  15  16
ATOM     16  C   UNL     1       7.201   5.551  16.538  0.00  0.00    +0.000 C 
ATOM     17  O   UNL     1       7.811   4.630  17.072  0.00  0.00    +0.000 OA
BRANCH  16  19
ATOM     18  C   UNL     1       7.580   7.595  17.596  0.00  0.00    +0.000 C 
ATOM     19  O   UNL     1       7.701   6.814  16.404  0.00  0.00    +0.000 OA
ENDBRANCH  16  19
ENDBRANCH  15  16
ENDBRANCH  14  15
ENDBRANCH   1  14
TORSDOF 5
ENDMDL
MODEL 7
REMARK VINA RESULT:      -6.4      2.625      6.351
REMARK  Name = 
REMARK  8 active torsions:
REMARK  status: ('A' for Active; 'I' for Inactive)
REMARK    1  A    between atoms: C_1  and  O_2
REMARK    2  A    between atoms: O_2  and  C_3
REMARK    3  A    between atoms: C_3  and  C_5
REMARK    4  A    between atoms: C_5  and  S_6
REMARK    5  A    between atoms: S_6  and  C_7
REMARK    6  A    between atoms: C_9  and  C_10
REMARK    7  A    between atoms: C_14  and  O_15
REMARK    8  A    between atoms: O_15  and  C_16
REMARK                            x       y       z     vdW  Elec       q    Type
REMARK                         _______ _______ _______ _____ _____    ______ ____
ROOT
ATOM      1  C   UNL     1       6.652   4.850  15.311  0.00  0.00    +0.000 A 
ATOM      2  N   UNL     1       7.383   5.682  16.068  0.00  0.00    +0.000 NA
ATOM      3  C   UNL     1       6.938   5.919  17.319  0.00  0.00    +0.000 A 
ATOM      4  C   UNL     1       7.736   6.907  18.121  0.00  0.00    +0.000 C 
ATOM      5  C   UNL     1       5.778   5.327  17.833  0.00  0.00    +0.000 A 
ATOM      6  C   UNL     1       5.260   5.570  19.126  0.00  0.00    +0.000 A 
ATOM      7  C   UNL     1       4.091   4.947  19.557  0.00  0.00    +0.000 A 
ATOM      8  C   UNL     1       3.426   4.075  18.705  0.00  0.00    +0.000 A 
ATOM      9  C   UNL     1       3.945   3.842  17.423  0.00  0.00    +0.000 A 
ATOM     10  C   UNL     1       5.111   4.456  16.966  0.00  0.00    +0.000 A 
ATOM     11  N   UNL     1       5.541   4.219  15.718  0.00  0.00    +0.000 NA
ENDROOT
BRANCH   8  12
ATOM     12  O   UNL     1       2.272   3.401  19.003  0.00  0.00    +0.000 OA
ATOM     13  C   UNL     1       2.238   2.016  18.673  0.00  0.00    +0.000 C 
ENDBRANCH   8  12
BRANCH   1  14
ATOM     14  S   UNL     1       7.066   4.725  13.586  0.00  0.00    +0.000 S 
BRANCH  14  15
ATOM     15  C   UNL     1       5.686   3.682  13.012  0.00  0.00    +0.000 C 
BRANCH  15  16
ATOM     16  C   UNL     1       6.115   2.795  11.864  0.00  0.00    +0.000 C 
ATOM     17  O   UNL     1       7.274   2.566  11.531  0.00  0.00    +0.000 OA
BRANCH  16  19
ATOM     18  C   UNL     1       3.927   3.115  11.124  0.00  0.00    +0.000 C 
ATOM     19  O   UNL     1       5.028   2.217  11.275  0.00  0.00    +0.000 OA
ENDBRANCH  16  19
ENDBRANCH  15  16
ENDBRANCH  14  15
ENDBRANCH   1  14
TORSDOF 5
ENDMDL
MODEL 8
REMARK VINA RESULT:      -6.4      1.587      1.985
REMARK  Name = 
REMARK  8 active torsions:
REMARK  status: ('A' for Active; 'I' for Inactive)
REMARK    1  A    between atoms: C_1  and  O_2
REMARK    2  A    between atoms: O_2  and  C_3
REMARK    3  A    between atoms: C_3  and  C_5
REMARK    4  A    between atoms: C_5  and  S_6
REMARK    5  A    between atoms: S_6  and  C_7
REMARK    6  A    between atoms: C_9  and  C_10
REMARK    7  A    between atoms: C_14  and  O_15
REMARK    8  A    between atoms: O_15  and  C_16
REMARK                            x       y       z     vdW  Elec       q    Type
REMARK                         _______ _______ _______ _____ _____    ______ ____
ROOT
ATOM      1  C   UNL     1       4.693   3.636  18.873  0.00  0.00    +0.000 A 
ATOM      2  N   UNL     1       5.690   4.410  19.329  0.00  0.00    +0.000 NA
ATOM      3  C   UNL     1       6.528   4.930  18.409  0.00  0.00    +0.000 A 
ATOM      4  C   UNL     1       7.675   5.735  18.951  0.00  0.00    +0.000 C 
ATOM      5  C   UNL     1       6.379   4.701  17.036  0.00  0.00    +0.000 A 
ATOM      6  C   UNL     1       7.250   5.202  16.042  0.00  0.00    +0.000 A 
ATOM      7  C   UNL     1       7.037   4.918  14.695  0.00  0.00    +0.000 A 
ATOM      8  C   UNL     1       5.953   4.132  14.325  0.00  0.00    +0.000 A 
ATOM      9  C   UNL     1       5.096   3.636  15.318  0.00  0.00    +0.000 A 
ATOM     10  C   UNL     1       5.290   3.903  16.673  0.00  0.00    +0.000 A 
ATOM     11  N   UNL     1       4.455   3.375  17.580  0.00  0.00    +0.000 NA
ENDROOT
BRANCH   8  12
ATOM     12  O   UNL     1       5.632   3.779  13.041  0.00  0.00    +0.000 OA
ATOM     13  C   UNL     1       6.717   3.615  12.134  0.00  0.00    +0.000 C 
ENDBRANCH   8  12
BRANCH   1  14
ATOM     14  S   UNL     1       3.738   2.731  20.069  0.00  0.00    +0.000 S 
BRANCH  14  15
ATOM     15  C   UNL     1       2.681   4.073  20.701  0.00  0.00    +0.000 C 
BRANCH  15  16
ATOM     16  C   UNL     1       1.982   4.795  19.570  0.00  0.00    +0.000 C 
ATOM     17  O   UNL     1       1.281   4.269  18.711  0.00  0.00    +0.000 OA
BRANCH  16  19
ATOM     18  C   UNL     1       2.799   6.703  18.508  0.00  0.00    +0.000 C 
ATOM     19  O   UNL     1       2.180   6.141  19.668  0.00  0.00    +0.000 OA
ENDBRANCH  16  19
ENDBRANCH  15  16
ENDBRANCH  14  15
ENDBRANCH   1  14
TORSDOF 5
ENDMDL
MODEL 9
REMARK VINA RESULT:      -6.4      2.403      6.449
REMARK  Name = 
REMARK  8 active torsions:
REMARK  status: ('A' for Active; 'I' for Inactive)
REMARK    1  A    between atoms: C_1  and  O_2
REMARK    2  A    between atoms: O_2  and  C_3
REMARK    3  A    between atoms: C_3  and  C_5
REMARK    4  A    between atoms: C_5  and  S_6
REMARK    5  A    between atoms: S_6  and  C_7
REMARK    6  A    between atoms: C_9  and  C_10
REMARK    7  A    between atoms: C_14  and  O_15
REMARK    8  A    between atoms: O_15  and  C_16
REMARK                            x       y       z     vdW  Elec       q    Type
REMARK                         _______ _______ _______ _____ _____    ______ ____
ROOT
ATOM      1  C   UNL     1       6.422   4.692  15.870  0.00  0.00    +0.000 A 
ATOM      2  N   UNL     1       7.236   5.125  16.844  0.00  0.00    +0.000 NA
ATOM      3  C   UNL     1       6.694   5.280  18.069  0.00  0.00    +0.000 A 
ATOM      4  C   UNL     1       7.609   5.832  19.124  0.00  0.00    +0.000 C 
ATOM      5  C   UNL     1       5.350   4.995  18.342  0.00  0.00    +0.000 A 
ATOM      6  C   UNL     1       4.734   5.171  19.602  0.00  0.00    +0.000 A 
ATOM      7  C   UNL     1       3.386   4.874  19.787  0.00  0.00    +0.000 A 
ATOM      8  C   UNL     1       2.638   4.399  18.718  0.00  0.00    +0.000 A 
ATOM      9  C   UNL     1       3.255   4.231  17.471  0.00  0.00    +0.000 A 
ATOM     10  C   UNL     1       4.602   4.524  17.259  0.00  0.00    +0.000 A 
ATOM     11  N   UNL     1       5.130   4.373  16.035  0.00  0.00    +0.000 NA
ENDROOT
BRANCH   8  12
ATOM     12  O   UNL     1       1.309   4.071  18.765  0.00  0.00    +0.000 OA
ATOM     13  C   UNL     1       0.995   2.682  18.801  0.00  0.00    +0.000 C 
ENDBRANCH   8  12
BRANCH   1  14
ATOM     14  S   UNL     1       7.038   4.728  14.202  0.00  0.00    +0.000 S 
BRANCH  14  15
ATOM     15  C   UNL     1       5.772   3.705  13.382  0.00  0.00    +0.000 C 
BRANCH  15  16
ATOM     16  C   UNL     1       6.275   3.173  12.059  0.00  0.00    +0.000 C 
ATOM     17  O   UNL     1       7.318   3.504  11.505  0.00  0.00    +0.000 OA
BRANCH  16  19
ATOM     18  C   UNL     1       6.119   1.021  11.174  0.00  0.00    +0.000 C 
ATOM     19  O   UNL     1       5.436   2.208  11.582  0.00  0.00    +0.000 OA
ENDBRANCH  16  19
ENDBRANCH  15  16
ENDBRANCH  14  15
ENDBRANCH   1  14
TORSDOF 5
ENDMDL
