MODEL 1
REMARK VINA RESULT:      -8.1      0.000      0.000
REMARK  Name = 
REMARK  7 active torsions:
REMARK  status: ('A' for Active; 'I' for Inactive)
REMARK    1  A    between atoms: N_1  and  C_2
REMARK    2  A    between atoms: C_4  and  S_5
REMARK    3  A    between atoms: S_5  and  C_6
REMARK    4  A    between atoms: C_6  and  C_7
REMARK    5  A    between atoms: C_16  and  O_17
REMARK    6  A    between atoms: C_18  and  N_19
REMARK    7  A    between atoms: C_20  and  C_22
REMARK                            x       y       z     vdW  Elec       q    Type
REMARK                         _______ _______ _______ _____ _____    ______ ____
ROOT
ATOM      1  C   UNL     1       1.823   8.050  20.067  0.00  0.00    +0.000 A 
ATOM      2  N   UNL     1       2.762   7.448  19.315  0.00  0.00    +0.000 NA
ATOM      3  C   UNL     1       2.946   7.898  18.058  0.00  0.00    +0.000 A 
ATOM      4  N   UNL     1       2.210   8.852  17.467  0.00  0.00    +0.000 NA
ATOM      5  C   UNL     1       1.278   9.397  18.262  0.00  0.00    +0.000 A 
ATOM      6  C   UNL     1       1.034   9.088  19.596  0.00  0.00    +0.000 A 
ENDROOT
BRANCH   6   7
ATOM      7  N   UNL     1       0.003   9.746  20.299  0.00  0.00    +0.000 N 
ATOM      8  C   UNL     1       0.202  10.877  21.079  0.00  0.00    +0.000 C 
ATOM      9  O   UNL     1       1.302  11.347  21.338  0.00  0.00    +0.000 OA
ATOM     10  H   UNL     1      -0.920   9.631  19.892  0.00  0.00    +0.000 HD
BRANCH   8  11
ATOM     11  C   UNL     1      -1.040  11.572  21.574  0.00  0.00    +0.000 A 
ATOM     12  C   UNL     1      -1.712  12.480  20.737  0.00  0.00    +0.000 A 
ATOM     13  C   UNL     1      -2.864  13.151  21.182  0.00  0.00    +0.000 A 
ATOM     14  C   UNL     1      -3.358  12.917  22.465  0.00  0.00    +0.000 A 
ATOM     15  C   UNL     1      -2.708  12.014  23.300  0.00  0.00    +0.000 A 
ATOM     16  C   UNL     1      -1.563  11.352  22.853  0.00  0.00    +0.000 A 
ATOM     17  F   UNL     1      -0.987  10.480  23.695  0.00  0.00    +0.000 F 
ENDBRANCH   8  11
ENDBRANCH   6   7
BRANCH   1  18
ATOM     18  N   UNL     1       1.557   7.427  21.291  0.00  0.00    +0.000 N 
ATOM     19  H   UNL     1       2.373   6.869  21.529  0.00  0.00    +0.000 HD
ATOM     20  H   UNL     1       1.327   8.122  21.998  0.00  0.00    +0.000 HD
ENDBRANCH   1  18
BRANCH   5  21
ATOM     21  O   UNL     1       0.529  10.370  17.655  0.00  0.00    +0.000 OA
ATOM     22  H   UNL     1       1.019  11.165  17.921  0.00  0.00    +0.000 HD
ENDBRANCH   5  21
BRANCH   3  23
ATOM     23  S   UNL     1       4.115   6.955  17.092  0.00  0.00    +0.000 S 
BRANCH  23  24
ATOM     24  C   UNL     1       4.525   5.584  18.214  0.00  0.00    +0.000 C 
BRANCH  24  25
ATOM     25  C   UNL     1       3.891   4.247  17.846  0.00  0.00    +0.000 C 
ATOM     26  O   UNL     1       4.003   3.754  16.723  0.00  0.00    +0.000 OA
ATOM     27  N   UNL     1       3.203   3.578  18.859  0.00  0.00    +0.000 N 
ATOM     28  C   UNL     1       2.669   2.243  18.592  0.00  0.00    +0.000 C 
ATOM     29  C   UNL     1       1.149   2.233  18.717  0.00  0.00    +0.000 C 
ATOM     30  C   UNL     1       0.706   2.789  20.070  0.00  0.00    +0.000 C 
ATOM     31  C   UNL     1       1.326   4.163  20.330  0.00  0.00    +0.000 C 
ATOM     32  C   UNL     1       2.846   4.128  20.169  0.00  0.00    +0.000 C 
ENDBRANCH  24  25
ENDBRANCH  23  24
ENDBRANCH   3  23
TORSDOF 7
ENDMDL
MODEL 2
REMARK VINA RESULT:      -8.0      0.910      1.282
REMARK  Name = 
REMARK  7 active torsions:
REMARK  status: ('A' for Active; 'I' for Inactive)
REMARK    1  A    between atoms: N_1  and  C_2
REMARK    2  A    between atoms: C_4  and  S_5
REMARK    3  A    between atoms: S_5  and  C_6
REMARK    4  A    between atoms: C_6  and  C_7
REMARK    5  A    between atoms: C_16  and  O_17
REMARK    6  A    between atoms: C_18  and  N_19
REMARK    7  A    between atoms: C_20  and  C_22
REMARK                            x       y       z     vdW  Elec       q    Type
REMARK                         _______ _______ _______ _____ _____    ______ ____
ROOT
ATOM      1  C   UNL     1       1.761   8.129  20.108  0.00  0.00    +0.000 A 
ATOM      2  N   UNL     1       2.710   7.537  19.362  0.00  0.00    +0.000 NA
ATOM      3  C   UNL     1       2.880   7.972  18.098  0.00  0.00    +0.000 A 
ATOM      4  N   UNL     1       2.120   8.901  17.495  0.00  0.00    +0.000 NA
ATOM      5  C   UNL     1       1.179   9.436  18.285  0.00  0.00    +0.000 A 
ATOM      6  C   UNL     1       0.947   9.142  19.625  0.00  0.00    +0.000 A 
ENDROOT
BRANCH   6   7
ATOM      7  N   UNL     1      -0.098   9.787  20.321  0.00  0.00    +0.000 N 
ATOM      8  C   UNL     1       0.083  10.917  21.106  0.00  0.00    +0.000 C 
ATOM      9  O   UNL     1       1.176  11.399  21.374  0.00  0.00    +0.000 OA
ATOM     10  H   UNL     1      -1.016   9.663  19.907  0.00  0.00    +0.000 HD
BRANCH   8  11
ATOM     11  C   UNL     1      -1.170  11.598  21.592  0.00  0.00    +0.000 A 
ATOM     12  C   UNL     1      -1.549  11.482  22.941  0.00  0.00    +0.000 A 
ATOM     13  C   UNL     1      -2.721  12.097  23.413  0.00  0.00    +0.000 A 
ATOM     14  C   UNL     1      -3.523  12.837  22.545  0.00  0.00    +0.000 A 
ATOM     15  C   UNL     1      -3.154  12.967  21.210  0.00  0.00    +0.000 A 
ATOM     16  C   UNL     1      -1.989  12.353  20.745  0.00  0.00    +0.000 A 
ATOM     17  F   UNL     1      -1.675  12.526  19.452  0.00  0.00    +0.000 F 
ENDBRANCH   8  11
ENDBRANCH   6   7
BRANCH   1  18
ATOM     18  N   UNL     1       1.512   7.518  21.342  0.00  0.00    +0.000 N 
ATOM     19  H   UNL     1       0.697   7.974  21.745  0.00  0.00    +0.000 HD
ATOM     20  H   UNL     1       1.391   6.514  21.221  0.00  0.00    +0.000 HD
ENDBRANCH   1  18
BRANCH   5  21
ATOM     21  O   UNL     1       0.406  10.383  17.667  0.00  0.00    +0.000 OA
ATOM     22  H   UNL     1      -0.356  10.411  18.267  0.00  0.00    +0.000 HD
ENDBRANCH   5  21
BRANCH   3  23
ATOM     23  S   UNL     1       4.068   7.042  17.143  0.00  0.00    +0.000 S 
BRANCH  23  24
ATOM     24  C   UNL     1       4.472   5.669  18.263  0.00  0.00    +0.000 C 
BRANCH  24  25
ATOM     25  C   UNL     1       3.856   4.328  17.878  0.00  0.00    +0.000 C 
ATOM     26  O   UNL     1       3.970   3.853  16.747  0.00  0.00    +0.000 OA
ATOM     27  N   UNL     1       3.182   3.634  18.884  0.00  0.00    +0.000 N 
ATOM     28  C   UNL     1       2.667   2.296  18.599  0.00  0.00    +0.000 C 
ATOM     29  C   UNL     1       1.147   2.262  18.731  0.00  0.00    +0.000 C 
ATOM     30  C   UNL     1       0.703   2.791  20.094  0.00  0.00    +0.000 C 
ATOM     31  C   UNL     1       1.304   4.170  20.372  0.00  0.00    +0.000 C 
ATOM     32  C   UNL     1       2.824   4.159  20.204  0.00  0.00    +0.000 C 
ENDBRANCH  24  25
ENDBRANCH  23  24
ENDBRANCH   3  23
TORSDOF 7
ENDMDL
MODEL 3
REMARK VINA RESULT:      -8.0      0.868      1.572
REMARK  Name = 
REMARK  7 active torsions:
REMARK  status: ('A' for Active; 'I' for Inactive)
REMARK    1  A    between atoms: N_1  and  C_2
REMARK    2  A    between atoms: C_4  and  S_5
REMARK    3  A    between atoms: S_5  and  C_6
REMARK    4  A    between atoms: C_6  and  C_7
REMARK    5  A    between atoms: C_16  and  O_17
REMARK    6  A    between atoms: C_18  and  N_19
REMARK    7  A    between atoms: C_20  and  C_22
REMARK                            x       y       z     vdW  Elec       q    Type
REMARK                         _______ _______ _______ _____ _____    ______ ____
ROOT
ATOM      1  C   UNL     1       1.498   9.493  18.343  0.00  0.00    +0.000 A 
ATOM      2  N   UNL     1       2.444   8.823  17.661  0.00  0.00    +0.000 NA
ATOM      3  C   UNL     1       2.955   7.710  18.222  0.00  0.00    +0.000 A 
ATOM      4  N   UNL     1       2.650   7.257  19.449  0.00  0.00    +0.000 NA
ATOM      5  C   UNL     1       1.718   7.980  20.085  0.00  0.00    +0.000 A 
ATOM      6  C   UNL     1       1.050   9.098  19.595  0.00  0.00    +0.000 A 
ENDROOT
BRANCH   6   7
ATOM      7  N   UNL     1       0.097   9.762  20.395  0.00  0.00    +0.000 N 
ATOM      8  C   UNL     1       0.331  10.978  21.021  0.00  0.00    +0.000 C 
ATOM      9  O   UNL     1       1.419  11.540  21.046  0.00  0.00    +0.000 OA
ATOM     10  H   UNL     1      -0.867   9.548  20.162  0.00  0.00    +0.000 HD
BRANCH   8  11
ATOM     11  C   UNL     1      -0.866  11.645  21.650  0.00  0.00    +0.000 A 
ATOM     12  C   UNL     1      -1.511  12.699  20.979  0.00  0.00    +0.000 A 
ATOM     13  C   UNL     1      -2.619  13.344  21.552  0.00  0.00    +0.000 A 
ATOM     14  C   UNL     1      -3.098  12.940  22.799  0.00  0.00    +0.000 A 
ATOM     15  C   UNL     1      -2.474  11.893  23.469  0.00  0.00    +0.000 A 
ATOM     16  C   UNL     1      -1.372  11.256  22.895  0.00  0.00    +0.000 A 
ATOM     17  F   UNL     1      -0.821  10.242  23.580  0.00  0.00    +0.000 F 
ENDBRANCH   8  11
ENDBRANCH   6   7
BRANCH   1  18
ATOM     18  N   UNL     1       1.137  10.728  17.795  0.00  0.00    +0.000 N 
ATOM     19  H   UNL     1       1.794  11.418  18.149  0.00  0.00    +0.000 HD
ATOM     20  H   UNL     1       1.123  10.673  16.778  0.00  0.00    +0.000 HD
ENDBRANCH   1  18
BRANCH   5  21
ATOM     21  O   UNL     1       1.411   7.516  21.336  0.00  0.00    +0.000 OA
ATOM     22  H   UNL     1       1.445   8.340  21.846  0.00  0.00    +0.000 HD
ENDBRANCH   5  21
BRANCH   3  23
ATOM     23  S   UNL     1       4.295   6.962  17.309  0.00  0.00    +0.000 S 
BRANCH  23  24
ATOM     24  C   UNL     1       4.639   5.467  18.284  0.00  0.00    +0.000 C 
BRANCH  24  25
ATOM     25  C   UNL     1       3.881   4.223  17.832  0.00  0.00    +0.000 C 
ATOM     26  O   UNL     1       3.886   3.840  16.661  0.00  0.00    +0.000 OA
ATOM     27  N   UNL     1       3.206   3.505  18.820  0.00  0.00    +0.000 N 
ATOM     28  C   UNL     1       2.555   2.245  18.462  0.00  0.00    +0.000 C 
ATOM     29  C   UNL     1       1.048   2.331  18.690  0.00  0.00    +0.000 C 
ATOM     30  C   UNL     1       0.734   2.776  20.117  0.00  0.00    +0.000 C 
ATOM     31  C   UNL     1       1.474   4.069  20.466  0.00  0.00    +0.000 C 
ATOM     32  C   UNL     1       2.974   3.942  20.199  0.00  0.00    +0.000 C 
ENDBRANCH  24  25
ENDBRANCH  23  24
ENDBRANCH   3  23
TORSDOF 7
ENDMDL
MODEL 4
REMARK VINA RESULT:      -7.8      1.187      1.357
REMARK  Name = 
REMARK  7 active torsions:
REMARK  status: ('A' for Active; 'I' for Inactive)
REMARK    1  A    between atoms: N_1  and  C_2
REMARK    2  A    between atoms: C_4  and  S_5
REMARK    3  A    between atoms: S_5  and  C_6
REMARK    4  A    between atoms: C_6  and  C_7
REMARK    5  A    between atoms: C_16  and  O_17
REMARK    6  A    between atoms: C_18  and  N_19
REMARK    7  A    between atoms: C_20  and  C_22
REMARK                            x       y       z     vdW  Elec       q    Type
REMARK                         _______ _______ _______ _____ _____    ______ ____
ROOT
ATOM      1  C   UNL     1       2.319   7.070  19.662  0.00  0.00    +0.000 A 
ATOM      2  N   UNL     1       3.248   6.373  18.984  0.00  0.00    +0.000 NA
ATOM      3  C   UNL     1       3.691   6.882  17.818  0.00  0.00    +0.000 A 
ATOM      4  N   UNL     1       3.220   7.996  17.237  0.00  0.00    +0.000 NA
ATOM      5  C   UNL     1       2.282   8.633  17.951  0.00  0.00    +0.000 A 
ATOM      6  C   UNL     1       1.792   8.267  19.201  0.00  0.00    +0.000 A 
ENDROOT
BRANCH   6   7
ATOM      7  N   UNL     1       0.790   9.040  19.823  0.00  0.00    +0.000 N 
ATOM      8  C   UNL     1       0.885   9.525  21.120  0.00  0.00    +0.000 C 
ATOM      9  O   UNL     1       1.785   9.235  21.898  0.00  0.00    +0.000 OA
ATOM     10  H   UNL     1       0.212   9.572  19.180  0.00  0.00    +0.000 HD
BRANCH   8  11
ATOM     11  C   UNL     1      -0.173  10.512  21.542  0.00  0.00    +0.000 A 
ATOM     12  C   UNL     1      -0.649  11.462  20.621  0.00  0.00    +0.000 A 
ATOM     13  C   UNL     1      -1.625  12.400  20.997  0.00  0.00    +0.000 A 
ATOM     14  C   UNL     1      -2.138  12.396  22.294  0.00  0.00    +0.000 A 
ATOM     15  C   UNL     1      -1.682  11.456  23.212  0.00  0.00    +0.000 A 
ATOM     16  C   UNL     1      -0.711  10.526  22.834  0.00  0.00    +0.000 A 
ATOM     17  F   UNL     1      -0.321   9.633  23.756  0.00  0.00    +0.000 F 
ENDBRANCH   8  11
ENDBRANCH   6   7
BRANCH   1  18
ATOM     18  N   UNL     1       1.773   6.409  20.767  0.00  0.00    +0.000 N 
ATOM     19  H   UNL     1       2.036   6.937  21.595  0.00  0.00    +0.000 HD
ATOM     20  H   UNL     1       0.765   6.313  20.658  0.00  0.00    +0.000 HD
ENDBRANCH   1  18
BRANCH   5  21
ATOM     21  O   UNL     1       1.804   9.769  17.355  0.00  0.00    +0.000 OA
ATOM     22  H   UNL     1       1.920  10.411  18.074  0.00  0.00    +0.000 HD
ENDBRANCH   5  21
BRANCH   3  23
ATOM     23  S   UNL     1       4.821   5.826  16.925  0.00  0.00    +0.000 S 
BRANCH  23  24
ATOM     24  C   UNL     1       4.646   4.244  17.804  0.00  0.00    +0.000 C 
BRANCH  24  25
ATOM     25  C   UNL     1       3.246   3.642  17.762  0.00  0.00    +0.000 C 
ATOM     26  O   UNL     1       2.503   3.772  16.788  0.00  0.00    +0.000 OA
ATOM     27  N   UNL     1       2.849   2.895  18.873  0.00  0.00    +0.000 N 
ATOM     28  C   UNL     1       1.560   2.206  18.840  0.00  0.00    +0.000 C 
ATOM     29  C   UNL     1       0.635   2.737  19.931  0.00  0.00    +0.000 C 
ATOM     30  C   UNL     1       1.308   2.672  21.301  0.00  0.00    +0.000 C 
ATOM     31  C   UNL     1       2.673   3.362  21.277  0.00  0.00    +0.000 C 
ATOM     32  C   UNL     1       3.555   2.813  20.154  0.00  0.00    +0.000 C 
ENDBRANCH  24  25
ENDBRANCH  23  24
ENDBRANCH   3  23
TORSDOF 7
ENDMDL
MODEL 5
REMARK VINA RESULT:      -7.6      1.329      2.073
REMARK  Name = 
REMARK  7 active torsions:
REMARK  status: ('A' for Active; 'I' for Inactive)
REMARK    1  A    between atoms: N_1  and  C_2
REMARK    2  A    between atoms: C_4  and  S_5
REMARK    3  A    between atoms: S_5  and  C_6
REMARK    4  A    between atoms: C_6  and  C_7
REMARK    5  A    between atoms: C_16  and  O_17
REMARK    6  A    between atoms: C_18  and  N_19
REMARK    7  A    between atoms: C_20  and  C_22
REMARK                            x       y       z     vdW  Elec       q    Type
REMARK                         _______ _______ _______ _____ _____    ______ ____
ROOT
ATOM      1  C   UNL     1       1.612   9.221  18.247  0.00  0.00    +0.000 A 
ATOM      2  N   UNL     1       2.570   8.556  17.576  0.00  0.00    +0.000 NA
ATOM      3  C   UNL     1       3.118   7.476  18.166  0.00  0.00    +0.000 A 
ATOM      4  N   UNL     1       2.839   7.054  19.409  0.00  0.00    +0.000 NA
ATOM      5  C   UNL     1       1.893   7.770  20.032  0.00  0.00    +0.000 A 
ATOM      6  C   UNL     1       1.189   8.853  19.515  0.00  0.00    +0.000 A 
ENDROOT
BRANCH   6   7
ATOM      7  N   UNL     1       0.225   9.514  20.305  0.00  0.00    +0.000 N 
ATOM      8  C   UNL     1       0.373  10.812  20.773  0.00  0.00    +0.000 C 
ATOM      9  O   UNL     1       1.398  11.472  20.656  0.00  0.00    +0.000 OA
ATOM     10  H   UNL     1      -0.725   9.186  20.167  0.00  0.00    +0.000 HD
BRANCH   8  11
ATOM     11  C   UNL     1      -0.843  11.434  21.410  0.00  0.00    +0.000 A 
ATOM     12  C   UNL     1      -1.105  11.217  22.775  0.00  0.00    +0.000 A 
ATOM     13  C   UNL     1      -2.240  11.776  23.386  0.00  0.00    +0.000 A 
ATOM     14  C   UNL     1      -3.122  12.559  22.642  0.00  0.00    +0.000 A 
ATOM     15  C   UNL     1      -2.870  12.788  21.293  0.00  0.00    +0.000 A 
ATOM     16  C   UNL     1      -1.741  12.230  20.690  0.00  0.00    +0.000 A 
ATOM     17  F   UNL     1      -1.540  12.497  19.391  0.00  0.00    +0.000 F 
ENDBRANCH   8  11
ENDBRANCH   6   7
BRANCH   1  18
ATOM     18  N   UNL     1       1.211  10.428  17.664  0.00  0.00    +0.000 N 
ATOM     19  H   UNL     1       1.869  11.141  17.967  0.00  0.00    +0.000 HD
ATOM     20  H   UNL     1       1.162  10.332  16.652  0.00  0.00    +0.000 HD
ENDBRANCH   1  18
BRANCH   5  21
ATOM     21  O   UNL     1       1.612   7.336  21.300  0.00  0.00    +0.000 OA
ATOM     22  H   UNL     1       0.686   7.616  21.383  0.00  0.00    +0.000 HD
ENDBRANCH   5  21
BRANCH   3  23
ATOM     23  S   UNL     1       4.470   6.739  17.261  0.00  0.00    +0.000 S 
BRANCH  23  24
ATOM     24  C   UNL     1       4.687   5.151  18.120  0.00  0.00    +0.000 C 
BRANCH  24  25
ATOM     25  C   UNL     1       3.625   4.104  17.802  0.00  0.00    +0.000 C 
ATOM     26  O   UNL     1       3.233   3.893  16.653  0.00  0.00    +0.000 OA
ATOM     27  N   UNL     1       3.137   3.357  18.875  0.00  0.00    +0.000 N 
ATOM     28  C   UNL     1       2.199   2.267  18.613  0.00  0.00    +0.000 C 
ATOM     29  C   UNL     1       0.857   2.534  19.289  0.00  0.00    +0.000 C 
ATOM     30  C   UNL     1       1.039   2.813  20.780  0.00  0.00    +0.000 C 
ATOM     31  C   UNL     1       2.064   3.925  21.010  0.00  0.00    +0.000 C 
ATOM     32  C   UNL     1       3.382   3.625  20.295  0.00  0.00    +0.000 C 
ENDBRANCH  24  25
ENDBRANCH  23  24
ENDBRANCH   3  23
TORSDOF 7
ENDMDL
MODEL 6
REMARK VINA RESULT:      -7.6      1.283      1.628
REMARK  Name = 
REMARK  7 active torsions:
REMARK  status: ('A' for Active; 'I' for Inactive)
REMARK    1  A    between atoms: N_1  and  C_2
REMARK    2  A    between atoms: C_4  and  S_5
REMARK    3  A    between atoms: S_5  and  C_6
REMARK    4  A    between atoms: C_6  and  C_7
REMARK    5  A    between atoms: C_16  and  O_17
REMARK    6  A    between atoms: C_18  and  N_19
REMARK    7  A    between atoms: C_20  and  C_22
REMARK                            x       y       z     vdW  Elec       q    Type
REMARK                         _______ _______ _______ _____ _____    ______ ____
ROOT
ATOM      1  C   UNL     1       2.204   7.369  19.783  0.00  0.00    +0.000 A 
ATOM      2  N   UNL     1       3.142   6.690  19.100  0.00  0.00    +0.000 NA
ATOM      3  C   UNL     1       3.544   7.188  17.915  0.00  0.00    +0.000 A 
ATOM      4  N   UNL     1       3.022   8.273  17.320  0.00  0.00    +0.000 NA
ATOM      5  C   UNL     1       2.077   8.892  18.041  0.00  0.00    +0.000 A 
ATOM      6  C   UNL     1       1.626   8.537  19.308  0.00  0.00    +0.000 A 
ENDROOT
BRANCH   6   7
ATOM      7  N   UNL     1       0.610   9.288  19.935  0.00  0.00    +0.000 N 
ATOM      8  C   UNL     1       0.751   9.889  21.178  0.00  0.00    +0.000 C 
ATOM      9  O   UNL     1       1.720   9.730  21.910  0.00  0.00    +0.000 OA
ATOM     10  H   UNL     1      -0.047   9.720  19.293  0.00  0.00    +0.000 HD
BRANCH   8  11
ATOM     11  C   UNL     1      -0.349  10.831  21.592  0.00  0.00    +0.000 A 
ATOM     12  C   UNL     1      -0.925  10.714  22.869  0.00  0.00    +0.000 A 
ATOM     13  C   UNL     1      -1.962  11.573  23.271  0.00  0.00    +0.000 A 
ATOM     14  C   UNL     1      -2.430  12.560  22.404  0.00  0.00    +0.000 A 
ATOM     15  C   UNL     1      -1.862  12.693  21.141  0.00  0.00    +0.000 A 
ATOM     16  C   UNL     1      -0.833  11.835  20.746  0.00  0.00    +0.000 A 
ATOM     17  F   UNL     1      -0.313  12.020  19.523  0.00  0.00    +0.000 F 
ENDBRANCH   8  11
ENDBRANCH   6   7
BRANCH   1  18
ATOM     18  N   UNL     1       1.703   6.714  20.912  0.00  0.00    +0.000 N 
ATOM     19  H   UNL     1       2.334   6.916  21.683  0.00  0.00    +0.000 HD
ATOM     20  H   UNL     1       0.744   7.004  21.093  0.00  0.00    +0.000 HD
ENDBRANCH   1  18
BRANCH   5  21
ATOM     21  O   UNL     1       1.548   9.998  17.431  0.00  0.00    +0.000 OA
ATOM     22  H   UNL     1       2.357  10.488  17.214  0.00  0.00    +0.000 HD
ENDBRANCH   5  21
BRANCH   3  23
ATOM     23  S   UNL     1       4.692   6.153  17.020  0.00  0.00    +0.000 S 
BRANCH  23  24
ATOM     24  C   UNL     1       4.645   4.609  17.979  0.00  0.00    +0.000 C 
BRANCH  24  25
ATOM     25  C   UNL     1       3.350   3.814  17.845  0.00  0.00    +0.000 C 
ATOM     26  O   UNL     1       2.688   3.806  16.806  0.00  0.00    +0.000 OA
ATOM     27  N   UNL     1       2.962   3.054  18.949  0.00  0.00    +0.000 N 
ATOM     28  C   UNL     1       1.788   2.189  18.838  0.00  0.00    +0.000 C 
ATOM     29  C   UNL     1       0.704   2.619  19.822  0.00  0.00    +0.000 C 
ATOM     30  C   UNL     1       1.253   2.694  21.246  0.00  0.00    +0.000 C 
ATOM     31  C   UNL     1       2.506   3.568  21.307  0.00  0.00    +0.000 C 
ATOM     32  C   UNL     1       3.553   3.114  20.289  0.00  0.00    +0.000 C 
ENDBRANCH  24  25
ENDBRANCH  23  24
ENDBRANCH   3  23
TORSDOF 7
ENDMDL
MODEL 7
REMARK VINA RESULT:      -7.4      1.261      1.905
REMARK  Name = 
REMARK  7 active torsions:
REMARK  status: ('A' for Active; 'I' for Inactive)
REMARK    1  A    between atoms: N_1  and  C_2
REMARK    2  A    between atoms: C_4  and  S_5
REMARK    3  A    between atoms: S_5  and  C_6
REMARK    4  A    between atoms: C_6  and  C_7
REMARK    5  A    between atoms: C_16  and  O_17
REMARK    6  A    between atoms: C_18  and  N_19
REMARK    7  A    between atoms: C_20  and  C_22
REMARK                            x       y       z     vdW  Elec       q    Type
REMARK                         _______ _______ _______ _____ _____    ______ ____
ROOT
ATOM      1  C   UNL     1       1.034   9.501  18.618  0.00  0.00    +0.000 A 
ATOM      2  N   UNL     1       1.917   8.714  17.978  0.00  0.00    +0.000 NA
ATOM      3  C   UNL     1       2.484   7.709  18.673  0.00  0.00    +0.000 A 
ATOM      4  N   UNL     1       2.296   7.476  19.982  0.00  0.00    +0.000 NA
ATOM      5  C   UNL     1       1.421   8.307  20.566  0.00  0.00    +0.000 A 
ATOM      6  C   UNL     1       0.705   9.330  19.954  0.00  0.00    +0.000 A 
ENDROOT
BRANCH   6   7
ATOM      7  N   UNL     1      -0.175  10.131  20.713  0.00  0.00    +0.000 N 
ATOM      8  C   UNL     1       0.192  11.332  21.303  0.00  0.00    +0.000 C 
ATOM      9  O   UNL     1       1.339  11.760  21.332  0.00  0.00    +0.000 OA
ATOM     10  H   UNL     1      -1.154  10.026  20.466  0.00  0.00    +0.000 HD
BRANCH   8  11
ATOM     11  C   UNL     1      -0.926  12.159  21.884  0.00  0.00    +0.000 A 
ATOM     12  C   UNL     1      -1.204  13.430  21.352  0.00  0.00    +0.000 A 
ATOM     13  C   UNL     1      -2.233  14.224  21.888  0.00  0.00    +0.000 A 
ATOM     14  C   UNL     1      -2.997  13.753  22.955  0.00  0.00    +0.000 A 
ATOM     15  C   UNL     1      -2.739  12.493  23.484  0.00  0.00    +0.000 A 
ATOM     16  C   UNL     1      -1.714  11.709  22.949  0.00  0.00    +0.000 A 
ATOM     17  F   UNL     1      -1.521  10.496  23.490  0.00  0.00    +0.000 F 
ENDBRANCH   8  11
ENDBRANCH   6   7
BRANCH   1  18
ATOM     18  N   UNL     1       0.617  10.627  17.901  0.00  0.00    +0.000 N 
ATOM     19  H   UNL     1       1.396  11.281  17.888  0.00  0.00    +0.000 HD
ATOM     20  H   UNL     1       0.305  10.358  16.970  0.00  0.00    +0.000 HD
ENDBRANCH   1  18
BRANCH   5  21
ATOM     21  O   UNL     1       1.232   8.066  21.901  0.00  0.00    +0.000 OA
ATOM     22  H   UNL     1       1.925   7.406  22.064  0.00  0.00    +0.000 HD
ENDBRANCH   5  21
BRANCH   3  23
ATOM     23  S   UNL     1       3.740   6.803  17.783  0.00  0.00    +0.000 S 
BRANCH  23  24
ATOM     24  C   UNL     1       4.678   6.021  19.130  0.00  0.00    +0.000 C 
BRANCH  24  25
ATOM     25  C   UNL     1       4.883   4.518  18.976  0.00  0.00    +0.000 C 
ATOM     26  O   UNL     1       5.919   4.040  18.511  0.00  0.00    +0.000 OA
ATOM     27  N   UNL     1       3.850   3.693  19.424  0.00  0.00    +0.000 N 
ATOM     28  C   UNL     1       4.039   2.243  19.401  0.00  0.00    +0.000 C 
ATOM     29  C   UNL     1       3.023   1.581  18.475  0.00  0.00    +0.000 C 
ATOM     30  C   UNL     1       1.597   1.987  18.845  0.00  0.00    +0.000 C 
ATOM     31  C   UNL     1       1.457   3.509  18.906  0.00  0.00    +0.000 C 
ATOM     32  C   UNL     1       2.510   4.129  19.826  0.00  0.00    +0.000 C 
ENDBRANCH  24  25
ENDBRANCH  23  24
ENDBRANCH   3  23
TORSDOF 7
ENDMDL
MODEL 8
REMARK VINA RESULT:      -7.3      1.749      2.460
REMARK  Name = 
REMARK  7 active torsions:
REMARK  status: ('A' for Active; 'I' for Inactive)
REMARK    1  A    between atoms: N_1  and  C_2
REMARK    2  A    between atoms: C_4  and  S_5
REMARK    3  A    between atoms: S_5  and  C_6
REMARK    4  A    between atoms: C_6  and  C_7
REMARK    5  A    between atoms: C_16  and  O_17
REMARK    6  A    between atoms: C_18  and  N_19
REMARK    7  A    between atoms: C_20  and  C_22
REMARK                            x       y       z     vdW  Elec       q    Type
REMARK                         _______ _______ _______ _____ _____    ______ ____
ROOT
ATOM      1  C   UNL     1       2.047   8.625  18.337  0.00  0.00    +0.000 A 
ATOM      2  N   UNL     1       2.945   7.771  17.814  0.00  0.00    +0.000 NA
ATOM      3  C   UNL     1       3.242   6.661  18.518  0.00  0.00    +0.000 A 
ATOM      4  N   UNL     1       2.769   6.376  19.741  0.00  0.00    +0.000 NA
ATOM      5  C   UNL     1       1.896   7.275  20.215  0.00  0.00    +0.000 A 
ATOM      6  C   UNL     1       1.438   8.418  19.566  0.00  0.00    +0.000 A 
ENDROOT
BRANCH   6   7
ATOM      7  N   UNL     1       0.521   9.277  20.206  0.00  0.00    +0.000 N 
ATOM      8  C   UNL     1       0.798   9.960  21.382  0.00  0.00    +0.000 C 
ATOM      9  O   UNL     1       1.812   9.796  22.048  0.00  0.00    +0.000 OA
ATOM     10  H   UNL     1      -0.160   9.700  19.583  0.00  0.00    +0.000 HD
BRANCH   8  11
ATOM     11  C   UNL     1      -0.209  11.000  21.802  0.00  0.00    +0.000 A 
ATOM     12  C   UNL     1      -1.029  10.767  22.920  0.00  0.00    +0.000 A 
ATOM     13  C   UNL     1      -1.984  11.717  23.321  0.00  0.00    +0.000 A 
ATOM     14  C   UNL     1      -2.126  12.909  22.612  0.00  0.00    +0.000 A 
ATOM     15  C   UNL     1      -1.315  13.156  21.509  0.00  0.00    +0.000 A 
ATOM     16  C   UNL     1      -0.369  12.208  21.114  0.00  0.00    +0.000 A 
ATOM     17  F   UNL     1       0.396  12.507  20.053  0.00  0.00    +0.000 F 
ENDBRANCH   8  11
ENDBRANCH   6   7
BRANCH   1  18
ATOM     18  N   UNL     1       1.914   9.837  17.651  0.00  0.00    +0.000 N 
ATOM     19  H   UNL     1       1.431  10.482  18.271  0.00  0.00    +0.000 HD
ATOM     20  H   UNL     1       2.827  10.176  17.353  0.00  0.00    +0.000 HD
ENDBRANCH   1  18
BRANCH   5  21
ATOM     21  O   UNL     1       1.416   6.981  21.463  0.00  0.00    +0.000 OA
ATOM     22  H   UNL     1       1.605   6.030  21.508  0.00  0.00    +0.000 HD
ENDBRANCH   5  21
BRANCH   3  23
ATOM     23  S   UNL     1       4.539   5.657  17.812  0.00  0.00    +0.000 S 
BRANCH  23  24
ATOM     24  C   UNL     1       3.599   4.333  16.994  0.00  0.00    +0.000 C 
BRANCH  24  25
ATOM     25  C   UNL     1       2.257   4.010  17.642  0.00  0.00    +0.000 C 
ATOM     26  O   UNL     1       1.200   4.500  17.243  0.00  0.00    +0.000 OA
ATOM     27  N   UNL     1       2.272   3.092  18.693  0.00  0.00    +0.000 N 
ATOM     28  C   UNL     1       1.003   2.663  19.279  0.00  0.00    +0.000 C 
ATOM     29  C   UNL     1       0.923   3.062  20.750  0.00  0.00    +0.000 C 
ATOM     30  C   UNL     1       2.136   2.548  21.523  0.00  0.00    +0.000 C 
ATOM     31  C   UNL     1       3.441   2.978  20.850  0.00  0.00    +0.000 C 
ATOM     32  C   UNL     1       3.464   2.579  19.374  0.00  0.00    +0.000 C 
ENDBRANCH  24  25
ENDBRANCH  23  24
ENDBRANCH   3  23
TORSDOF 7
ENDMDL
MODEL 9
REMARK VINA RESULT:      -7.2      1.492      2.151
REMARK  Name = 
REMARK  7 active torsions:
REMARK  status: ('A' for Active; 'I' for Inactive)
REMARK    1  A    between atoms: N_1  and  C_2
REMARK    2  A    between atoms: C_4  and  S_5
REMARK    3  A    between atoms: S_5  and  C_6
REMARK    4  A    between atoms: C_6  and  C_7
REMARK    5  A    between atoms: C_16  and  O_17
REMARK    6  A    between atoms: C_18  and  N_19
REMARK    7  A    between atoms: C_20  and  C_22
REMARK                            x       y       z     vdW  Elec       q    Type
REMARK                         _______ _______ _______ _____ _____    ______ ____
ROOT
ATOM      1  C   UNL     1       0.652   9.972  18.599  0.00  0.00    +0.000 A 
ATOM      2  N   UNL     1       1.515   9.275  17.840  0.00  0.00    +0.000 NA
ATOM      3  C   UNL     1       2.162   8.239  18.409  0.00  0.00    +0.000 A 
ATOM      4  N   UNL     1       2.071   7.894  19.704  0.00  0.00    +0.000 NA
ATOM      5  C   UNL     1       1.211   8.640  20.411  0.00  0.00    +0.000 A 
ATOM      6  C   UNL     1       0.421   9.681  19.935  0.00  0.00    +0.000 A 
ENDROOT
BRANCH   6   7
ATOM      7  N   UNL     1      -0.431  10.383  20.814  0.00  0.00    +0.000 N 
ATOM      8  C   UNL     1      -0.036  11.494  21.546  0.00  0.00    +0.000 C 
ATOM      9  O   UNL     1       1.116  11.906  21.601  0.00  0.00    +0.000 OA
ATOM     10  H   UNL     1      -1.417  10.319  20.580  0.00  0.00    +0.000 HD
BRANCH   8  11
ATOM     11  C   UNL     1      -1.131  12.247  22.258  0.00  0.00    +0.000 A 
ATOM     12  C   UNL     1      -2.018  11.556  23.102  0.00  0.00    +0.000 A 
ATOM     13  C   UNL     1      -3.054  12.236  23.765  0.00  0.00    +0.000 A 
ATOM     14  C   UNL     1      -3.211  13.611  23.595  0.00  0.00    +0.000 A 
ATOM     15  C   UNL     1      -2.334  14.307  22.770  0.00  0.00    +0.000 A 
ATOM     16  C   UNL     1      -1.306  13.627  22.113  0.00  0.00    +0.000 A 
ATOM     17  F   UNL     1      -0.481  14.353  21.343  0.00  0.00    +0.000 F 
ENDBRANCH   8  11
ENDBRANCH   6   7
BRANCH   1  18
ATOM     18  N   UNL     1       0.150  11.136  18.008  0.00  0.00    +0.000 N 
ATOM     19  H   UNL     1      -0.604  10.857  17.386  0.00  0.00    +0.000 HD
ATOM     20  H   UNL     1      -0.146  11.797  18.724  0.00  0.00    +0.000 HD
ENDBRANCH   1  18
BRANCH   5  21
ATOM     21  O   UNL     1       1.122   8.285  21.731  0.00  0.00    +0.000 OA
ATOM     22  H   UNL     1       2.062   8.217  21.962  0.00  0.00    +0.000 HD
ENDBRANCH   5  21
BRANCH   3  23
ATOM     23  S   UNL     1       3.383   7.458  17.367  0.00  0.00    +0.000 S 
BRANCH  23  24
ATOM     24  C   UNL     1       4.080   6.193  18.472  0.00  0.00    +0.000 C 
BRANCH  24  25
ATOM     25  C   UNL     1       3.694   4.759  18.124  0.00  0.00    +0.000 C 
ATOM     26  O   UNL     1       3.836   4.297  16.991  0.00  0.00    +0.000 OA
ATOM     27  N   UNL     1       3.204   3.970  19.166  0.00  0.00    +0.000 N 
ATOM     28  C   UNL     1       2.922   2.558  18.913  0.00  0.00    +0.000 C 
ATOM     29  C   UNL     1       1.441   2.256  19.122  0.00  0.00    +0.000 C 
ATOM     30  C   UNL     1       0.976   2.716  20.503  0.00  0.00    +0.000 C 
ATOM     31  C   UNL     1       1.335   4.184  20.743  0.00  0.00    +0.000 C 
ATOM     32  C   UNL     1       2.823   4.441  20.500  0.00  0.00    +0.000 C 
ENDBRANCH  24  25
ENDBRANCH  23  24
ENDBRANCH   3  23
TORSDOF 7
ENDMDL
