MODEL 1
REMARK VINA RESULT:      -8.0      0.000      0.000
REMARK  Name = 
REMARK  7 active torsions:
REMARK  status: ('A' for Active; 'I' for Inactive)
REMARK    1  A    between atoms: C_1  and  C_2
REMARK    2  A    between atoms: C_2  and  N_3
REMARK    3  A    between atoms: C_7  and  C_9
REMARK    4  A    between atoms: C_13  and  C_14
REMARK    5  A    between atoms: C_18  and  O_19
REMARK    6  A    between atoms: O_19  and  C_20
REMARK    7  A    between atoms: C_21  and  C_22
REMARK                            x       y       z     vdW  Elec       q    Type
REMARK                         _______ _______ _______ _____ _____    ______ ____
ROOT
ATOM      1  C   UNL     1       2.352   7.285  18.730  0.00  0.00    +0.000 A 
ATOM      2  C   UNL     1       2.589   8.114  17.631  0.00  0.00    +0.000 A 
ATOM      3  C   UNL     1       2.214   9.449  17.680  0.00  0.00    +0.000 A 
ATOM      4  C   UNL     1       1.501   9.932  18.779  0.00  0.00    +0.000 A 
ATOM      5  C   UNL     1       1.197   9.119  19.887  0.00  0.00    +0.000 A 
ATOM      6  C   UNL     1       1.626   7.776  19.826  0.00  0.00    +0.000 A 
ENDROOT
BRANCH   1  11
ATOM      7  N   UNL     1       5.991   4.738  16.288  0.00  0.00    +0.000 N 
ATOM      8  C   UNL     1       4.969   3.804  16.763  0.00  0.00    +0.000 C 
ATOM      9  C   UNL     1       4.453   4.139  18.162  0.00  0.00    +0.000 C 
ATOM     10  N   UNL     1       4.051   5.537  18.198  0.00  0.00    +0.000 N 
ATOM     11  C   UNL     1       2.809   5.875  18.734  0.00  0.00    +0.000 C 
ATOM     12  O   UNL     1       2.047   5.034  19.223  0.00  0.00    +0.000 OA
ATOM     13  C   UNL     1       5.160   6.462  17.917  0.00  0.00    +0.000 C 
ATOM     14  C   UNL     1       6.100   6.035  16.774  0.00  0.00    +0.000 C 
ATOM     15  O   UNL     1       6.958   6.823  16.360  0.00  0.00    +0.000 OA
BRANCH   7  17
ATOM     16  C   UNL     1       5.992   4.094  13.910  0.00  0.00    +0.000 C 
ATOM     17  C   UNL     1       6.821   4.326  15.161  0.00  0.00    +0.000 C 
ENDBRANCH   7  17
ENDBRANCH   1  11
BRANCH   5  18
ATOM     18  C   UNL     1       0.470   9.648  21.078  0.00  0.00    +0.000 A 
ATOM     19  C   UNL     1       0.731   9.089  22.345  0.00  0.00    +0.000 A 
ATOM     20  C   UNL     1       0.092   9.587  23.470  0.00  0.00    +0.000 A 
ATOM     21  N   UNL     1      -0.803  10.586  23.432  0.00  0.00    +0.000 NA
ATOM     22  C   UNL     1      -1.070  11.126  22.221  0.00  0.00    +0.000 A 
ATOM     23  C   UNL     1      -0.467  10.710  21.033  0.00  0.00    +0.000 A 
BRANCH  22  24
ATOM     24  O   UNL     1      -1.993  12.154  22.156  0.00  0.00    +0.000 OA
ATOM     25  C   UNL     1      -1.765  13.180  23.119  0.00  0.00    +0.000 C 
ENDBRANCH  22  24
BRANCH  23  26
ATOM     26  C   UNL     1      -0.810  11.397  19.821  0.00  0.00    +0.000 C 
ATOM     27  N   UNL     1      -1.119  11.972  18.860  0.00  0.00    +0.000 NA
ENDBRANCH  23  26
ENDBRANCH   5  18
TORSDOF 5
ENDMDL
MODEL 2
REMARK VINA RESULT:      -8.0      1.879      9.147
REMARK  Name = 
REMARK  7 active torsions:
REMARK  status: ('A' for Active; 'I' for Inactive)
REMARK    1  A    between atoms: C_1  and  C_2
REMARK    2  A    between atoms: C_2  and  N_3
REMARK    3  A    between atoms: C_7  and  C_9
REMARK    4  A    between atoms: C_13  and  C_14
REMARK    5  A    between atoms: C_18  and  O_19
REMARK    6  A    between atoms: O_19  and  C_20
REMARK    7  A    between atoms: C_21  and  C_22
REMARK                            x       y       z     vdW  Elec       q    Type
REMARK                         _______ _______ _______ _____ _____    ______ ____
ROOT
ATOM      1  C   UNL     1       1.997   7.858  19.307  0.00  0.00    +0.000 A 
ATOM      2  C   UNL     1       1.521   6.968  20.273  0.00  0.00    +0.000 A 
ATOM      3  C   UNL     1       2.170   5.758  20.476  0.00  0.00    +0.000 A 
ATOM      4  C   UNL     1       3.223   5.385  19.640  0.00  0.00    +0.000 A 
ATOM      5  C   UNL     1       3.703   6.228  18.621  0.00  0.00    +0.000 A 
ATOM      6  C   UNL     1       3.049   7.469  18.464  0.00  0.00    +0.000 A 
ENDROOT
BRANCH   1  11
ATOM      7  N   UNL     1      -0.849  10.869  22.228  0.00  0.00    +0.000 N 
ATOM      8  C   UNL     1      -1.043  11.220  20.820  0.00  0.00    +0.000 C 
ATOM      9  C   UNL     1       0.252  11.189  20.009  0.00  0.00    +0.000 C 
ATOM     10  N   UNL     1       0.916   9.912  20.223  0.00  0.00    +0.000 N 
ATOM     11  C   UNL     1       1.370   9.188  19.120  0.00  0.00    +0.000 C 
ATOM     12  O   UNL     1       1.269   9.610  17.964  0.00  0.00    +0.000 OA
ATOM     13  C   UNL     1       1.284   9.682  21.628  0.00  0.00    +0.000 C 
ATOM     14  C   UNL     1       0.223  10.099  22.663  0.00  0.00    +0.000 C 
ATOM     15  O   UNL     1       0.374   9.796  23.852  0.00  0.00    +0.000 OA
BRANCH   7  17
ATOM     16  C   UNL     1      -2.424  12.628  22.930  0.00  0.00    +0.000 C 
ATOM     17  C   UNL     1      -1.904  11.222  23.171  0.00  0.00    +0.000 C 
ENDBRANCH   7  17
ENDBRANCH   1  11
BRANCH   5  18
ATOM     18  C   UNL     1       4.856   5.843  17.755  0.00  0.00    +0.000 A 
ATOM     19  C   UNL     1       6.041   6.604  17.812  0.00  0.00    +0.000 A 
ATOM     20  C   UNL     1       7.135   6.245  17.041  0.00  0.00    +0.000 A 
ATOM     21  N   UNL     1       7.137   5.199  16.200  0.00  0.00    +0.000 NA
ATOM     22  C   UNL     1       6.004   4.466  16.128  0.00  0.00    +0.000 A 
ATOM     23  C   UNL     1       4.855   4.732  16.876  0.00  0.00    +0.000 A 
BRANCH  22  24
ATOM     24  O   UNL     1       5.980   3.386  15.265  0.00  0.00    +0.000 OA
ATOM     25  C   UNL     1       6.121   3.755  13.895  0.00  0.00    +0.000 C 
ENDBRANCH  22  24
BRANCH  23  26
ATOM     26  C   UNL     1       3.734   3.849  16.735  0.00  0.00    +0.000 C 
ATOM     27  N   UNL     1       2.843   3.109  16.649  0.00  0.00    +0.000 NA
ENDBRANCH  23  26
ENDBRANCH   5  18
TORSDOF 5
ENDMDL
MODEL 3
REMARK VINA RESULT:      -7.9      2.105      3.149
REMARK  Name = 
REMARK  7 active torsions:
REMARK  status: ('A' for Active; 'I' for Inactive)
REMARK    1  A    between atoms: C_1  and  C_2
REMARK    2  A    between atoms: C_2  and  N_3
REMARK    3  A    between atoms: C_7  and  C_9
REMARK    4  A    between atoms: C_13  and  C_14
REMARK    5  A    between atoms: C_18  and  O_19
REMARK    6  A    between atoms: O_19  and  C_20
REMARK    7  A    between atoms: C_21  and  C_22
REMARK                            x       y       z     vdW  Elec       q    Type
REMARK                         _______ _______ _______ _____ _____    ______ ____
ROOT
ATOM      1  C   UNL     1       3.650   4.884  19.656  0.00  0.00    +0.000 A 
ATOM      2  C   UNL     1       2.722   3.840  19.660  0.00  0.00    +0.000 A 
ATOM      3  C   UNL     1       1.376   4.113  19.859  0.00  0.00    +0.000 A 
ATOM      4  C   UNL     1       0.968   5.412  20.168  0.00  0.00    +0.000 A 
ATOM      5  C   UNL     1       1.875   6.487  20.224  0.00  0.00    +0.000 A 
ATOM      6  C   UNL     1       3.232   6.185  19.978  0.00  0.00    +0.000 A 
ENDROOT
BRANCH   1  11
ATOM      7  N   UNL     1       6.543   5.214  15.507  0.00  0.00    +0.000 N 
ATOM      8  C   UNL     1       7.172   4.317  16.478  0.00  0.00    +0.000 C 
ATOM      9  C   UNL     1       7.056   4.814  17.918  0.00  0.00    +0.000 C 
ATOM     10  N   UNL     1       5.664   5.124  18.203  0.00  0.00    +0.000 N 
ATOM     11  C   UNL     1       5.082   4.631  19.371  0.00  0.00    +0.000 C 
ATOM     12  O   UNL     1       5.717   3.973  20.201  0.00  0.00    +0.000 OA
ATOM     13  C   UNL     1       5.121   6.183  17.339  0.00  0.00    +0.000 C 
ATOM     14  C   UNL     1       5.527   6.096  15.856  0.00  0.00    +0.000 C 
ATOM     15  O   UNL     1       4.992   6.842  15.029  0.00  0.00    +0.000 OA
BRANCH   7  17
ATOM     16  C   UNL     1       6.217   3.858  13.477  0.00  0.00    +0.000 C 
ATOM     17  C   UNL     1       6.903   5.060  14.102  0.00  0.00    +0.000 C 
ENDBRANCH   7  17
ENDBRANCH   1  11
BRANCH   5  18
ATOM     18  C   UNL     1       1.430   7.881  20.514  0.00  0.00    +0.000 A 
ATOM     19  C   UNL     1       0.951   8.195  21.802  0.00  0.00    +0.000 A 
ATOM     20  C   UNL     1       0.564   9.491  22.102  0.00  0.00    +0.000 A 
ATOM     21  N   UNL     1       0.595  10.498  21.215  0.00  0.00    +0.000 NA
ATOM     22  C   UNL     1       1.042  10.209  19.973  0.00  0.00    +0.000 A 
ATOM     23  C   UNL     1       1.474   8.942  19.576  0.00  0.00    +0.000 A 
BRANCH  22  24
ATOM     24  O   UNL     1       1.079  11.229  19.040  0.00  0.00    +0.000 OA
ATOM     25  C   UNL     1       1.326  12.511  19.614  0.00  0.00    +0.000 C 
ENDBRANCH  22  24
BRANCH  23  26
ATOM     26  C   UNL     1       1.965   8.781  18.238  0.00  0.00    +0.000 C 
ATOM     27  N   UNL     1       2.390   8.623  17.168  0.00  0.00    +0.000 NA
ENDBRANCH  23  26
ENDBRANCH   5  18
TORSDOF 5
ENDMDL
MODEL 4
REMARK VINA RESULT:      -7.8      2.598      8.635
REMARK  Name = 
REMARK  7 active torsions:
REMARK  status: ('A' for Active; 'I' for Inactive)
REMARK    1  A    between atoms: C_1  and  C_2
REMARK    2  A    between atoms: C_2  and  N_3
REMARK    3  A    between atoms: C_7  and  C_9
REMARK    4  A    between atoms: C_13  and  C_14
REMARK    5  A    between atoms: C_18  and  O_19
REMARK    6  A    between atoms: O_19  and  C_20
REMARK    7  A    between atoms: C_21  and  C_22
REMARK                            x       y       z     vdW  Elec       q    Type
REMARK                         _______ _______ _______ _____ _____    ______ ____
ROOT
ATOM      1  C   UNL     1       1.463   8.723  20.260  0.00  0.00    +0.000 A 
ATOM      2  C   UNL     1       1.727   9.245  18.992  0.00  0.00    +0.000 A 
ATOM      3  C   UNL     1       2.098   8.395  17.959  0.00  0.00    +0.000 A 
ATOM      4  C   UNL     1       2.317   7.041  18.217  0.00  0.00    +0.000 A 
ATOM      5  C   UNL     1       2.110   6.480  19.491  0.00  0.00    +0.000 A 
ATOM      6  C   UNL     1       1.695   7.362  20.512  0.00  0.00    +0.000 A 
ENDROOT
BRANCH   1  11
ATOM      7  N   UNL     1      -1.143  13.066  20.465  0.00  0.00    +0.000 N 
ATOM      8  C   UNL     1      -0.385  12.886  21.704  0.00  0.00    +0.000 C 
ATOM      9  C   UNL     1      -0.391  11.443  22.208  0.00  0.00    +0.000 C 
ATOM     10  N   UNL     1       0.013  10.560  21.125  0.00  0.00    +0.000 N 
ATOM     11  C   UNL     1       0.993   9.596  21.361  0.00  0.00    +0.000 C 
ATOM     12  O   UNL     1       1.505   9.431  22.473  0.00  0.00    +0.000 OA
ATOM     13  C   UNL     1      -0.895  10.615  19.969  0.00  0.00    +0.000 C 
ATOM     14  C   UNL     1      -1.379  12.023  19.577  0.00  0.00    +0.000 C 
ATOM     15  O   UNL     1      -2.009  12.185  18.526  0.00  0.00    +0.000 OA
BRANCH   7  17
ATOM     16  C   UNL     1      -0.385  15.167  19.427  0.00  0.00    +0.000 C 
ATOM     17  C   UNL     1      -1.529  14.422  20.092  0.00  0.00    +0.000 C 
ENDBRANCH   7  17
ENDBRANCH   1  11
BRANCH   5  18
ATOM     18  C   UNL     1       2.305   5.025  19.754  0.00  0.00    +0.000 A 
ATOM     19  C   UNL     1       1.187   4.232  20.083  0.00  0.00    +0.000 A 
ATOM     20  C   UNL     1       1.340   2.872  20.299  0.00  0.00    +0.000 A 
ATOM     21  N   UNL     1       2.522   2.239  20.234  0.00  0.00    +0.000 NA
ATOM     22  C   UNL     1       3.604   2.989  19.928  0.00  0.00    +0.000 A 
ATOM     23  C   UNL     1       3.554   4.361  19.674  0.00  0.00    +0.000 A 
BRANCH  22  24
ATOM     24  O   UNL     1       4.834   2.361  19.860  0.00  0.00    +0.000 OA
ATOM     25  C   UNL     1       5.048   1.422  20.911  0.00  0.00    +0.000 C 
ENDBRANCH  22  24
BRANCH  23  26
ATOM     26  C   UNL     1       4.772   5.030  19.319  0.00  0.00    +0.000 C 
ATOM     27  N   UNL     1       5.768   5.541  19.005  0.00  0.00    +0.000 NA
ENDBRANCH  23  26
ENDBRANCH   5  18
TORSDOF 5
ENDMDL
MODEL 5
REMARK VINA RESULT:      -7.5      2.878      8.480
REMARK  Name = 
REMARK  7 active torsions:
REMARK  status: ('A' for Active; 'I' for Inactive)
REMARK    1  A    between atoms: C_1  and  C_2
REMARK    2  A    between atoms: C_2  and  N_3
REMARK    3  A    between atoms: C_7  and  C_9
REMARK    4  A    between atoms: C_13  and  C_14
REMARK    5  A    between atoms: C_18  and  O_19
REMARK    6  A    between atoms: O_19  and  C_20
REMARK    7  A    between atoms: C_21  and  C_22
REMARK                            x       y       z     vdW  Elec       q    Type
REMARK                         _______ _______ _______ _____ _____    ______ ____
ROOT
ATOM      1  C   UNL     1       0.437   9.904  19.664  0.00  0.00    +0.000 A 
ATOM      2  C   UNL     1       0.323   9.746  21.047  0.00  0.00    +0.000 A 
ATOM      3  C   UNL     1       1.033   8.741  21.689  0.00  0.00    +0.000 A 
ATOM      4  C   UNL     1       1.767   7.821  20.939  0.00  0.00    +0.000 A 
ATOM      5  C   UNL     1       1.871   7.911  19.538  0.00  0.00    +0.000 A 
ATOM      6  C   UNL     1       1.170   8.968  18.918  0.00  0.00    +0.000 A 
ENDROOT
BRANCH   1  11
ATOM      7  N   UNL     1       1.207  14.904  19.352  0.00  0.00    +0.000 N 
ATOM      8  C   UNL     1      -0.183  14.596  19.013  0.00  0.00    +0.000 C 
ATOM      9  C   UNL     1      -0.329  13.336  18.161  0.00  0.00    +0.000 C 
ATOM     10  N   UNL     1       0.387  12.244  18.801  0.00  0.00    +0.000 N 
ATOM     11  C   UNL     1      -0.250  11.014  18.963  0.00  0.00    +0.000 C 
ATOM     12  O   UNL     1      -1.392  10.799  18.544  0.00  0.00    +0.000 OA
ATOM     13  C   UNL     1       1.828  12.503  18.940  0.00  0.00    +0.000 C 
ATOM     14  C   UNL     1       2.201  13.933  19.375  0.00  0.00    +0.000 C 
ATOM     15  O   UNL     1       3.371  14.197  19.674  0.00  0.00    +0.000 OA
BRANCH   7  17
ATOM     16  C   UNL     1       1.697  17.219  18.669  0.00  0.00    +0.000 C 
ATOM     17  C   UNL     1       1.513  16.250  19.824  0.00  0.00    +0.000 C 
ENDBRANCH   7  17
ENDBRANCH   1  11
BRANCH   5  18
ATOM     18  C   UNL     1       2.690   6.951  18.743  0.00  0.00    +0.000 A 
ATOM     19  C   UNL     1       3.575   7.450  17.766  0.00  0.00    +0.000 A 
ATOM     20  C   UNL     1       4.370   6.578  17.039  0.00  0.00    +0.000 A 
ATOM     21  N   UNL     1       4.340   5.245  17.192  0.00  0.00    +0.000 NA
ATOM     22  C   UNL     1       3.489   4.752  18.120  0.00  0.00    +0.000 A 
ATOM     23  C   UNL     1       2.661   5.545  18.917  0.00  0.00    +0.000 A 
BRANCH  22  24
ATOM     24  O   UNL     1       3.437   3.381  18.293  0.00  0.00    +0.000 OA
ATOM     25  C   UNL     1       2.690   2.712  17.280  0.00  0.00    +0.000 C 
ENDBRANCH  22  24
BRANCH  23  26
ATOM     26  C   UNL     1       1.835   4.896  19.893  0.00  0.00    +0.000 C 
ATOM     27  N   UNL     1       1.133   4.375  20.659  0.00  0.00    +0.000 NA
ENDBRANCH  23  26
ENDBRANCH   5  18
TORSDOF 5
ENDMDL
MODEL 6
REMARK VINA RESULT:      -7.4      2.741      8.370
REMARK  Name = 
REMARK  7 active torsions:
REMARK  status: ('A' for Active; 'I' for Inactive)
REMARK    1  A    between atoms: C_1  and  C_2
REMARK    2  A    between atoms: C_2  and  N_3
REMARK    3  A    between atoms: C_7  and  C_9
REMARK    4  A    between atoms: C_13  and  C_14
REMARK    5  A    between atoms: C_18  and  O_19
REMARK    6  A    between atoms: O_19  and  C_20
REMARK    7  A    between atoms: C_21  and  C_22
REMARK                            x       y       z     vdW  Elec       q    Type
REMARK                         _______ _______ _______ _____ _____    ______ ____
ROOT
ATOM      1  C   UNL     1       1.102   9.502  19.687  0.00  0.00    +0.000 A 
ATOM      2  C   UNL     1       0.884   9.177  21.028  0.00  0.00    +0.000 A 
ATOM      3  C   UNL     1       1.381   7.986  21.539  0.00  0.00    +0.000 A 
ATOM      4  C   UNL     1       1.996   7.067  20.689  0.00  0.00    +0.000 A 
ATOM      5  C   UNL     1       2.194   7.331  19.321  0.00  0.00    +0.000 A 
ATOM      6  C   UNL     1       1.713   8.567  18.837  0.00  0.00    +0.000 A 
ENDROOT
BRANCH   1  11
ATOM      7  N   UNL     1      -2.814  10.944  16.809  0.00  0.00    +0.000 N 
ATOM      8  C   UNL     1      -1.741  11.935  16.716  0.00  0.00    +0.000 C 
ATOM      9  C   UNL     1      -1.055  12.206  18.054  0.00  0.00    +0.000 C 
ATOM     10  N   UNL     1      -0.651  10.940  18.646  0.00  0.00    +0.000 N 
ATOM     11  C   UNL     1       0.649  10.799  19.132  0.00  0.00    +0.000 C 
ATOM     12  O   UNL     1       1.465  11.727  19.120  0.00  0.00    +0.000 OA
ATOM     13  C   UNL     1      -1.785  10.044  18.919  0.00  0.00    +0.000 C 
ATOM     14  C   UNL     1      -2.860   9.988  17.818  0.00  0.00    +0.000 C 
ATOM     15  O   UNL     1      -3.762   9.146  17.884  0.00  0.00    +0.000 OA
BRANCH   7  17
ATOM     16  C   UNL     1      -3.222  10.110  14.528  0.00  0.00    +0.000 C 
ATOM     17  C   UNL     1      -3.777  10.875  15.716  0.00  0.00    +0.000 C 
ENDBRANCH   7  17
ENDBRANCH   1  11
BRANCH   5  18
ATOM     18  C   UNL     1       2.889   6.363  18.422  0.00  0.00    +0.000 A 
ATOM     19  C   UNL     1       3.944   6.821  17.606  0.00  0.00    +0.000 A 
ATOM     20  C   UNL     1       4.625   5.933  16.789  0.00  0.00    +0.000 A 
ATOM     21  N   UNL     1       4.327   4.627  16.702  0.00  0.00    +0.000 NA
ATOM     22  C   UNL     1       3.311   4.177  17.472  0.00  0.00    +0.000 A 
ATOM     23  C   UNL     1       2.576   4.984  18.343  0.00  0.00    +0.000 A 
BRANCH  22  24
ATOM     24  O   UNL     1       2.983   2.836  17.397  0.00  0.00    +0.000 OA
ATOM     25  C   UNL     1       3.785   2.009  18.237  0.00  0.00    +0.000 C 
ENDBRANCH  22  24
BRANCH  23  26
ATOM     26  C   UNL     1       1.551   4.369  19.135  0.00  0.00    +0.000 C 
ATOM     27  N   UNL     1       0.736   3.889  19.810  0.00  0.00    +0.000 NA
ENDBRANCH  23  26
ENDBRANCH   5  18
TORSDOF 5
ENDMDL
MODEL 7
REMARK VINA RESULT:      -7.4      2.339      8.824
REMARK  Name = 
REMARK  7 active torsions:
REMARK  status: ('A' for Active; 'I' for Inactive)
REMARK    1  A    between atoms: C_1  and  C_2
REMARK    2  A    between atoms: C_2  and  N_3
REMARK    3  A    between atoms: C_7  and  C_9
REMARK    4  A    between atoms: C_13  and  C_14
REMARK    5  A    between atoms: C_18  and  O_19
REMARK    6  A    between atoms: O_19  and  C_20
REMARK    7  A    between atoms: C_21  and  C_22
REMARK                            x       y       z     vdW  Elec       q    Type
REMARK                         _______ _______ _______ _____ _____    ______ ____
ROOT
ATOM      1  C   UNL     1       1.375   8.763  20.058  0.00  0.00    +0.000 A 
ATOM      2  C   UNL     1       1.151   9.436  18.855  0.00  0.00    +0.000 A 
ATOM      3  C   UNL     1       1.653   8.917  17.669  0.00  0.00    +0.000 A 
ATOM      4  C   UNL     1       2.475   7.790  17.697  0.00  0.00    +0.000 A 
ATOM      5  C   UNL     1       2.769   7.108  18.893  0.00  0.00    +0.000 A 
ATOM      6  C   UNL     1       2.211   7.636  20.077  0.00  0.00    +0.000 A 
ENDROOT
BRANCH   1  11
ATOM      7  N   UNL     1      -1.634  12.650  21.294  0.00  0.00    +0.000 N 
ATOM      8  C   UNL     1      -0.905  12.195  22.479  0.00  0.00    +0.000 C 
ATOM      9  C   UNL     1      -0.792  10.673  22.566  0.00  0.00    +0.000 C 
ATOM     10  N   UNL     1      -0.270  10.162  21.307  0.00  0.00    +0.000 N 
ATOM     11  C   UNL     1       0.788   9.253  21.327  0.00  0.00    +0.000 C 
ATOM     12  O   UNL     1       1.275   8.827  22.379  0.00  0.00    +0.000 OA
ATOM     13  C   UNL     1      -1.139  10.463  20.160  0.00  0.00    +0.000 C 
ATOM     14  C   UNL     1      -1.740  11.881  20.142  0.00  0.00    +0.000 C 
ATOM     15  O   UNL     1      -2.347  12.277  19.141  0.00  0.00    +0.000 OA
BRANCH   7  17
ATOM     16  C   UNL     1      -3.369  14.172  22.154  0.00  0.00    +0.000 C 
ATOM     17  C   UNL     1      -2.133  14.021  21.286  0.00  0.00    +0.000 C 
ENDBRANCH   7  17
ENDBRANCH   1  11
BRANCH   5  18
ATOM     18  C   UNL     1       3.614   5.879  18.914  0.00  0.00    +0.000 A 
ATOM     19  C   UNL     1       4.969   5.971  18.535  0.00  0.00    +0.000 A 
ATOM     20  C   UNL     1       5.780   4.848  18.579  0.00  0.00    +0.000 A 
ATOM     21  N   UNL     1       5.346   3.634  18.950  0.00  0.00    +0.000 NA
ATOM     22  C   UNL     1       4.046   3.529  19.307  0.00  0.00    +0.000 A 
ATOM     23  C   UNL     1       3.152   4.602  19.316  0.00  0.00    +0.000 A 
BRANCH  22  24
ATOM     24  O   UNL     1       3.574   2.287  19.689  0.00  0.00    +0.000 OA
ATOM     25  C   UNL     1       3.524   1.347  18.618  0.00  0.00    +0.000 C 
ENDBRANCH  22  24
BRANCH  23  26
ATOM     26  C   UNL     1       1.808   4.360  19.757  0.00  0.00    +0.000 C 
ATOM     27  N   UNL     1       0.708   4.162  20.075  0.00  0.00    +0.000 NA
ENDBRANCH  23  26
ENDBRANCH   5  18
TORSDOF 5
ENDMDL
MODEL 8
REMARK VINA RESULT:      -7.4      1.768      8.995
REMARK  Name = 
REMARK  7 active torsions:
REMARK  status: ('A' for Active; 'I' for Inactive)
REMARK    1  A    between atoms: C_1  and  C_2
REMARK    2  A    between atoms: C_2  and  N_3
REMARK    3  A    between atoms: C_7  and  C_9
REMARK    4  A    between atoms: C_13  and  C_14
REMARK    5  A    between atoms: C_18  and  O_19
REMARK    6  A    between atoms: O_19  and  C_20
REMARK    7  A    between atoms: C_21  and  C_22
REMARK                            x       y       z     vdW  Elec       q    Type
REMARK                         _______ _______ _______ _____ _____    ______ ____
ROOT
ATOM      1  C   UNL     1       1.452   8.931  19.912  0.00  0.00    +0.000 A 
ATOM      2  C   UNL     1       1.562   9.941  18.954  0.00  0.00    +0.000 A 
ATOM      3  C   UNL     1       2.060   9.645  17.692  0.00  0.00    +0.000 A 
ATOM      4  C   UNL     1       2.556   8.368  17.422  0.00  0.00    +0.000 A 
ATOM      5  C   UNL     1       2.511   7.332  18.374  0.00  0.00    +0.000 A 
ATOM      6  C   UNL     1       1.962   7.653  19.635  0.00  0.00    +0.000 A 
ENDROOT
BRANCH   1  11
ATOM      7  N   UNL     1      -1.666  12.490  21.729  0.00  0.00    +0.000 N 
ATOM      8  C   UNL     1      -0.920  11.878  22.830  0.00  0.00    +0.000 C 
ATOM      9  C   UNL     1      -0.762  10.366  22.681  0.00  0.00    +0.000 C 
ATOM     10  N   UNL     1      -0.229  10.071  21.360  0.00  0.00    +0.000 N 
ATOM     11  C   UNL     1       0.855   9.201  21.241  0.00  0.00    +0.000 C 
ATOM     12  O   UNL     1       1.358   8.633  22.215  0.00  0.00    +0.000 OA
ATOM     13  C   UNL     1      -1.110  10.519  20.271  0.00  0.00    +0.000 C 
ATOM     14  C   UNL     1      -1.753  11.904  20.472  0.00  0.00    +0.000 C 
ATOM     15  O   UNL     1      -2.375  12.432  19.543  0.00  0.00    +0.000 OA
BRANCH   7  17
ATOM     16  C   UNL     1      -3.246  13.854  23.036  0.00  0.00    +0.000 C 
ATOM     17  C   UNL     1      -2.205  13.830  21.931  0.00  0.00    +0.000 C 
ENDBRANCH   7  17
ENDBRANCH   1  11
BRANCH   5  18
ATOM     18  C   UNL     1       3.003   5.957  18.068  0.00  0.00    +0.000 A 
ATOM     19  C   UNL     1       2.136   4.861  18.253  0.00  0.00    +0.000 A 
ATOM     20  C   UNL     1       2.561   3.579  17.945  0.00  0.00    +0.000 A 
ATOM     21  N   UNL     1       3.790   3.297  17.486  0.00  0.00    +0.000 NA
ATOM     22  C   UNL     1       4.636   4.337  17.313  0.00  0.00    +0.000 A 
ATOM     23  C   UNL     1       4.298   5.667  17.575  0.00  0.00    +0.000 A 
BRANCH  22  24
ATOM     24  O   UNL     1       5.909   4.071  16.845  0.00  0.00    +0.000 OA
ATOM     25  C   UNL     1       5.939   3.695  15.470  0.00  0.00    +0.000 C 
ENDBRANCH  22  24
BRANCH  23  26
ATOM     26  C   UNL     1       5.278   6.680  17.308  0.00  0.00    +0.000 C 
ATOM     27  N   UNL     1       6.101   7.474  17.104  0.00  0.00    +0.000 NA
ENDBRANCH  23  26
ENDBRANCH   5  18
TORSDOF 5
ENDMDL
MODEL 9
REMARK VINA RESULT:      -7.2      2.433      8.884
REMARK  Name = 
REMARK  7 active torsions:
REMARK  status: ('A' for Active; 'I' for Inactive)
REMARK    1  A    between atoms: C_1  and  C_2
REMARK    2  A    between atoms: C_2  and  N_3
REMARK    3  A    between atoms: C_7  and  C_9
REMARK    4  A    between atoms: C_13  and  C_14
REMARK    5  A    between atoms: C_18  and  O_19
REMARK    6  A    between atoms: O_19  and  C_20
REMARK    7  A    between atoms: C_21  and  C_22
REMARK                            x       y       z     vdW  Elec       q    Type
REMARK                         _______ _______ _______ _____ _____    ______ ____
ROOT
ATOM      1  C   UNL     1       0.556   9.828  19.618  0.00  0.00    +0.000 A 
ATOM      2  C   UNL     1       0.357   9.565  20.975  0.00  0.00    +0.000 A 
ATOM      3  C   UNL     1       0.986   8.478  21.567  0.00  0.00    +0.000 A 
ATOM      4  C   UNL     1       1.721   7.588  20.782  0.00  0.00    +0.000 A 
ATOM      5  C   UNL     1       1.907   7.786  19.402  0.00  0.00    +0.000 A 
ATOM      6  C   UNL     1       1.288   8.922  18.835  0.00  0.00    +0.000 A 
ENDROOT
BRANCH   1  11
ATOM      7  N   UNL     1       0.209  14.722  20.891  0.00  0.00    +0.000 N 
ATOM      8  C   UNL     1      -0.828  14.392  19.913  0.00  0.00    +0.000 C 
ATOM      9  C   UNL     1      -0.337  13.458  18.808  0.00  0.00    +0.000 C 
ATOM     10  N   UNL     1       0.306  12.302  19.413  0.00  0.00    +0.000 N 
ATOM     11  C   UNL     1      -0.041  11.024  18.977  0.00  0.00    +0.000 C 
ATOM     12  O   UNL     1      -0.848  10.832  18.061  0.00  0.00    +0.000 OA
ATOM     13  C   UNL     1       1.478  12.657  20.228  0.00  0.00    +0.000 C 
ATOM     14  C   UNL     1       1.311  13.906  21.113  0.00  0.00    +0.000 C 
ATOM     15  O   UNL     1       2.178  14.185  21.949  0.00  0.00    +0.000 OA
BRANCH   7  17
ATOM     16  C   UNL     1      -1.178  16.721  21.279  0.00  0.00    +0.000 C 
ATOM     17  C   UNL     1      -0.011  15.875  21.758  0.00  0.00    +0.000 C 
ENDBRANCH   7  17
ENDBRANCH   1  11
BRANCH   5  18
ATOM     18  C   UNL     1       2.727   6.856  18.573  0.00  0.00    +0.000 A 
ATOM     19  C   UNL     1       3.712   7.387  17.716  0.00  0.00    +0.000 A 
ATOM     20  C   UNL     1       4.508   6.539  16.963  0.00  0.00    +0.000 A 
ATOM     21  N   UNL     1       4.388   5.202  16.978  0.00  0.00    +0.000 NA
ATOM     22  C   UNL     1       3.441   4.679  17.788  0.00  0.00    +0.000 A 
ATOM     23  C   UNL     1       2.602   5.445  18.601  0.00  0.00    +0.000 A 
BRANCH  22  24
ATOM     24  O   UNL     1       3.295   3.304  17.818  0.00  0.00    +0.000 OA
ATOM     25  C   UNL     1       4.185   2.661  18.727  0.00  0.00    +0.000 C 
ENDBRANCH  22  24
BRANCH  23  26
ATOM     26  C   UNL     1       1.667   4.760  19.446  0.00  0.00    +0.000 C 
ATOM     27  N   UNL     1       0.936   4.209  20.162  0.00  0.00    +0.000 NA
ENDBRANCH  23  26
ENDBRANCH   5  18
TORSDOF 5
ENDMDL
