MODEL 1
REMARK VINA RESULT:      -8.8      0.000      0.000
REMARK  Name = 
REMARK  6 active torsions:
REMARK  status: ('A' for Active; 'I' for Inactive)
REMARK    1  A    between atoms: C_4  and  C_5
REMARK    2  A    between atoms: C_5  and  O_6
REMARK    3  A    between atoms: C_8  and  C_9
REMARK    4  A    between atoms: C_9  and  C_10
REMARK    5  A    between atoms: C_9  and  C_20
REMARK    6  A    between atoms: C_29  and  O_30
REMARK                            x       y       z     vdW  Elec       q    Type
REMARK                         _______ _______ _______ _____ _____    ______ ____
ROOT
ATOM      1  C   UNL     1       2.983   5.785  17.638  0.00  0.00    +0.000 C 
ENDROOT
BRANCH   1   2
ATOM      2  C   UNL     1       2.499   6.926  18.539  0.00  0.00    +0.000 A 
ATOM      3  C   UNL     1       2.247   6.760  19.910  0.00  0.00    +0.000 A 
ATOM      4  C   UNL     1       1.712   7.798  20.678  0.00  0.00    +0.000 A 
ATOM      5  C   UNL     1       1.388   9.024  20.090  0.00  0.00    +0.000 A 
ATOM      6  C   UNL     1       0.822  10.057  20.850  0.00  0.00    +0.000 A 
ATOM      7  C   UNL     1       0.467  11.262  20.253  0.00  0.00    +0.000 A 
ATOM      8  C   UNL     1       0.674  11.450  18.889  0.00  0.00    +0.000 A 
ATOM      9  C   UNL     1       1.246  10.435  18.120  0.00  0.00    +0.000 A 
ATOM     10  C   UNL     1       1.611   9.210  18.707  0.00  0.00    +0.000 A 
ATOM     11  C   UNL     1       2.176   8.164  17.951  0.00  0.00    +0.000 A 
ENDBRANCH   1   2
BRANCH   1  12
ATOM     12  C   UNL     1       4.466   5.982  17.384  0.00  0.00    +0.000 A 
ATOM     13  C   UNL     1       5.361   6.754  18.110  0.00  0.00    +0.000 A 
ATOM     14  N   UNL     1       6.595   6.668  17.523  0.00  0.00    +0.000 N 
ATOM     15  C   UNL     1       6.544   5.838  16.430  0.00  0.00    +0.000 A 
ATOM     16  C   UNL     1       7.560   5.460  15.542  0.00  0.00    +0.000 A 
ATOM     17  C   UNL     1       7.219   4.603  14.492  0.00  0.00    +0.000 A 
ATOM     18  C   UNL     1       5.911   4.152  14.335  0.00  0.00    +0.000 A 
ATOM     19  C   UNL     1       4.908   4.541  15.231  0.00  0.00    +0.000 A 
ATOM     20  C   UNL     1       5.226   5.396  16.308  0.00  0.00    +0.000 A 
ATOM     21  H   UNL     1       7.427   7.149  17.837  0.00  0.00    +0.000 HD
ENDBRANCH   1  12
BRANCH   1  27
ATOM     22  O   UNL     1       0.167   1.820  18.446  0.00  0.00    +0.000 OA
ATOM     23  C   UNL     1       1.190   2.471  18.621  0.00  0.00    +0.000 A 
ATOM     24  C   UNL     1       2.227   1.977  19.543  0.00  0.00    +0.000 A 
ATOM     25  C   UNL     1       3.344   2.691  19.714  0.00  0.00    +0.000 A 
ATOM     26  O   UNL     1       3.580   3.878  19.048  0.00  0.00    +0.000 OA
ATOM     27  C   UNL     1       2.617   4.408  18.187  0.00  0.00    +0.000 A 
ATOM     28  C   UNL     1       1.453   3.774  17.932  0.00  0.00    +0.000 A 
BRANCH  28  29
ATOM     29  O   UNL     1       0.467   4.239  17.079  0.00  0.00    +0.000 OA
ATOM     30  H   UNL     1      -0.412   4.104  17.464  0.00  0.00    +0.000 HD
ENDBRANCH  28  29
BRANCH  25  31
ATOM     31  C   UNL     1       4.460   2.251  20.616  0.00  0.00    +0.000 C 
BRANCH  31  32
ATOM     32  O   UNL     1       5.246   1.253  19.981  0.00  0.00    +0.000 OA
ATOM     33  H   UNL     1       4.718   0.899  19.241  0.00  0.00    +0.000 HD
ENDBRANCH  31  32
ENDBRANCH  25  31
ENDBRANCH   1  27
TORSDOF 6
ENDMDL
MODEL 2
REMARK VINA RESULT:      -8.1      0.543      1.458
REMARK  Name = 
REMARK  6 active torsions:
REMARK  status: ('A' for Active; 'I' for Inactive)
REMARK    1  A    between atoms: C_4  and  C_5
REMARK    2  A    between atoms: C_5  and  O_6
REMARK    3  A    between atoms: C_8  and  C_9
REMARK    4  A    between atoms: C_9  and  C_10
REMARK    5  A    between atoms: C_9  and  C_20
REMARK    6  A    between atoms: C_29  and  O_30
REMARK                            x       y       z     vdW  Elec       q    Type
REMARK                         _______ _______ _______ _____ _____    ______ ____
ROOT
ATOM      1  C   UNL     1       2.989   5.685  17.432  0.00  0.00    +0.000 C 
ENDROOT
BRANCH   1   2
ATOM      2  C   UNL     1       2.398   6.927  18.109  0.00  0.00    +0.000 A 
ATOM      3  C   UNL     1       2.267   8.161  17.456  0.00  0.00    +0.000 A 
ATOM      4  C   UNL     1       1.816   9.296  18.136  0.00  0.00    +0.000 A 
ATOM      5  C   UNL     1       1.509   9.233  19.498  0.00  0.00    +0.000 A 
ATOM      6  C   UNL     1       1.085  10.376  20.191  0.00  0.00    +0.000 A 
ATOM      7  C   UNL     1       0.816  10.316  21.555  0.00  0.00    +0.000 A 
ATOM      8  C   UNL     1       0.965   9.115  22.243  0.00  0.00    +0.000 A 
ATOM      9  C   UNL     1       1.377   7.965  21.564  0.00  0.00    +0.000 A 
ATOM     10  C   UNL     1       1.653   8.007  20.186  0.00  0.00    +0.000 A 
ATOM     11  C   UNL     1       2.083   6.866  19.481  0.00  0.00    +0.000 A 
ENDBRANCH   1   2
BRANCH   1  12
ATOM     12  C   UNL     1       4.482   5.900  17.277  0.00  0.00    +0.000 A 
ATOM     13  C   UNL     1       5.329   6.635  18.094  0.00  0.00    +0.000 A 
ATOM     14  N   UNL     1       6.596   6.583  17.579  0.00  0.00    +0.000 N 
ATOM     15  C   UNL     1       6.615   5.812  16.442  0.00  0.00    +0.000 A 
ATOM     16  C   UNL     1       7.683   5.484  15.597  0.00  0.00    +0.000 A 
ATOM     17  C   UNL     1       7.410   4.683  14.485  0.00  0.00    +0.000 A 
ATOM     18  C   UNL     1       6.117   4.238  14.227  0.00  0.00    +0.000 A 
ATOM     19  C   UNL     1       5.060   4.576  15.081  0.00  0.00    +0.000 A 
ATOM     20  C   UNL     1       5.309   5.374  16.219  0.00  0.00    +0.000 A 
ATOM     21  H   UNL     1       7.405   7.049  17.966  0.00  0.00    +0.000 HD
ENDBRANCH   1  12
BRANCH   1  27
ATOM     22  O   UNL     1       0.103   1.930  18.799  0.00  0.00    +0.000 OA
ATOM     23  C   UNL     1       1.151   2.561  18.856  0.00  0.00    +0.000 A 
ATOM     24  C   UNL     1       2.216   2.138  19.780  0.00  0.00    +0.000 A 
ATOM     25  C   UNL     1       3.359   2.828  19.821  0.00  0.00    +0.000 A 
ATOM     26  O   UNL     1       3.597   3.927  19.017  0.00  0.00    +0.000 OA
ATOM     27  C   UNL     1       2.610   4.390  18.146  0.00  0.00    +0.000 A 
ATOM     28  C   UNL     1       1.418   3.772  18.014  0.00  0.00    +0.000 A 
BRANCH  28  29
ATOM     29  O   UNL     1       0.406   4.173  17.159  0.00  0.00    +0.000 OA
ATOM     30  H   UNL     1       0.247   5.125  17.239  0.00  0.00    +0.000 HD
ENDBRANCH  28  29
BRANCH  25  31
ATOM     31  C   UNL     1       4.504   2.453  20.717  0.00  0.00    +0.000 C 
BRANCH  31  32
ATOM     32  O   UNL     1       5.280   1.423  20.124  0.00  0.00    +0.000 OA
ATOM     33  H   UNL     1       4.910   0.573  20.426  0.00  0.00    +0.000 HD
ENDBRANCH  31  32
ENDBRANCH  25  31
ENDBRANCH   1  27
TORSDOF 6
ENDMDL
MODEL 3
REMARK VINA RESULT:      -7.8      1.693      2.411
REMARK  Name = 
REMARK  6 active torsions:
REMARK  status: ('A' for Active; 'I' for Inactive)
REMARK    1  A    between atoms: C_4  and  C_5
REMARK    2  A    between atoms: C_5  and  O_6
REMARK    3  A    between atoms: C_8  and  C_9
REMARK    4  A    between atoms: C_9  and  C_10
REMARK    5  A    between atoms: C_9  and  C_20
REMARK    6  A    between atoms: C_29  and  O_30
REMARK                            x       y       z     vdW  Elec       q    Type
REMARK                         _______ _______ _______ _____ _____    ______ ____
ROOT
ATOM      1  C   UNL     1       2.966   5.819  17.711  0.00  0.00    +0.000 C 
ENDROOT
BRANCH   1   2
ATOM      2  C   UNL     1       2.405   6.854  18.691  0.00  0.00    +0.000 A 
ATOM      3  C   UNL     1       2.186   6.577  20.049  0.00  0.00    +0.000 A 
ATOM      4  C   UNL     1       1.580   7.515  20.891  0.00  0.00    +0.000 A 
ATOM      5  C   UNL     1       1.152   8.747  20.390  0.00  0.00    +0.000 A 
ATOM      6  C   UNL     1       0.517   9.678  21.223  0.00  0.00    +0.000 A 
ATOM      7  C   UNL     1       0.059  10.889  20.712  0.00  0.00    +0.000 A 
ATOM      8  C   UNL     1       0.232  11.184  19.363  0.00  0.00    +0.000 A 
ATOM      9  C   UNL     1       0.872  10.272  18.522  0.00  0.00    +0.000 A 
ATOM     10  C   UNL     1       1.341   9.043  19.021  0.00  0.00    +0.000 A 
ATOM     11  C   UNL     1       1.977   8.099  18.192  0.00  0.00    +0.000 A 
ENDBRANCH   1   2
BRANCH   1  12
ATOM     12  C   UNL     1       4.350   6.272  17.288  0.00  0.00    +0.000 A 
ATOM     13  C   UNL     1       4.719   6.896  16.105  0.00  0.00    +0.000 A 
ATOM     14  N   UNL     1       6.071   7.112  16.123  0.00  0.00    +0.000 N 
ATOM     15  C   UNL     1       6.609   6.659  17.303  0.00  0.00    +0.000 A 
ATOM     16  C   UNL     1       7.937   6.678  17.751  0.00  0.00    +0.000 A 
ATOM     17  C   UNL     1       8.206   6.126  19.006  0.00  0.00    +0.000 A 
ATOM     18  C   UNL     1       7.188   5.571  19.776  0.00  0.00    +0.000 A 
ATOM     19  C   UNL     1       5.867   5.560  19.312  0.00  0.00    +0.000 A 
ATOM     20  C   UNL     1       5.563   6.121  18.053  0.00  0.00    +0.000 A 
ATOM     21  H   UNL     1       6.606   7.534  15.377  0.00  0.00    +0.000 HD
ENDBRANCH   1  12
BRANCH   1  27
ATOM     22  O   UNL     1       3.819   0.965  17.852  0.00  0.00    +0.000 OA
ATOM     23  C   UNL     1       3.299   1.983  18.294  0.00  0.00    +0.000 A 
ATOM     24  C   UNL     1       2.408   1.905  19.464  0.00  0.00    +0.000 A 
ATOM     25  C   UNL     1       1.859   3.026  19.943  0.00  0.00    +0.000 A 
ATOM     26  O   UNL     1       2.100   4.270  19.393  0.00  0.00    +0.000 OA
ATOM     27  C   UNL     1       2.911   4.397  18.264  0.00  0.00    +0.000 A 
ATOM     28  C   UNL     1       3.524   3.337  17.695  0.00  0.00    +0.000 A 
BRANCH  28  29
ATOM     29  O   UNL     1       4.350   3.400  16.587  0.00  0.00    +0.000 OA
ATOM     30  H   UNL     1       4.125   2.703  15.951  0.00  0.00    +0.000 HD
ENDBRANCH  28  29
BRANCH  25  31
ATOM     31  C   UNL     1       0.958   3.040  21.144  0.00  0.00    +0.000 C 
BRANCH  31  32
ATOM     32  O   UNL     1       1.623   2.487  22.269  0.00  0.00    +0.000 OA
ATOM     33  H   UNL     1       2.577   2.652  22.150  0.00  0.00    +0.000 HD
ENDBRANCH  31  32
ENDBRANCH  25  31
ENDBRANCH   1  27
TORSDOF 6
ENDMDL
MODEL 4
REMARK VINA RESULT:      -7.7      1.367      6.005
REMARK  Name = 
REMARK  6 active torsions:
REMARK  status: ('A' for Active; 'I' for Inactive)
REMARK    1  A    between atoms: C_4  and  C_5
REMARK    2  A    between atoms: C_5  and  O_6
REMARK    3  A    between atoms: C_8  and  C_9
REMARK    4  A    between atoms: C_9  and  C_10
REMARK    5  A    between atoms: C_9  and  C_20
REMARK    6  A    between atoms: C_29  and  O_30
REMARK                            x       y       z     vdW  Elec       q    Type
REMARK                         _______ _______ _______ _____ _____    ______ ____
ROOT
ATOM      1  C   UNL     1       3.938   5.770  18.847  0.00  0.00    +0.000 C 
ENDROOT
BRANCH   1   2
ATOM      2  C   UNL     1       4.960   5.599  17.719  0.00  0.00    +0.000 A 
ATOM      3  C   UNL     1       6.158   6.328  17.660  0.00  0.00    +0.000 A 
ATOM      4  C   UNL     1       7.019   6.217  16.564  0.00  0.00    +0.000 A 
ATOM      5  C   UNL     1       6.691   5.394  15.483  0.00  0.00    +0.000 A 
ATOM      6  C   UNL     1       7.537   5.304  14.368  0.00  0.00    +0.000 A 
ATOM      7  C   UNL     1       7.189   4.512  13.279  0.00  0.00    +0.000 A 
ATOM      8  C   UNL     1       5.993   3.800  13.289  0.00  0.00    +0.000 A 
ATOM      9  C   UNL     1       5.144   3.871  14.397  0.00  0.00    +0.000 A 
ATOM     10  C   UNL     1       5.480   4.667  15.507  0.00  0.00    +0.000 A 
ATOM     11  C   UNL     1       4.636   4.767  16.630  0.00  0.00    +0.000 A 
ENDBRANCH   1   2
BRANCH   1  12
ATOM     12  C   UNL     1       3.103   7.000  18.544  0.00  0.00    +0.000 A 
ATOM     13  C   UNL     1       3.062   7.735  17.369  0.00  0.00    +0.000 A 
ATOM     14  N   UNL     1       2.190   8.778  17.530  0.00  0.00    +0.000 N 
ATOM     15  C   UNL     1       1.634   8.742  18.786  0.00  0.00    +0.000 A 
ATOM     16  C   UNL     1       0.698   9.600  19.378  0.00  0.00    +0.000 A 
ATOM     17  C   UNL     1       0.315   9.333  20.695  0.00  0.00    +0.000 A 
ATOM     18  C   UNL     1       0.855   8.256  21.391  0.00  0.00    +0.000 A 
ATOM     19  C   UNL     1       1.790   7.409  20.784  0.00  0.00    +0.000 A 
ATOM     20  C   UNL     1       2.187   7.647  19.450  0.00  0.00    +0.000 A 
ATOM     21  H   UNL     1       1.986   9.483  16.835  0.00  0.00    +0.000 HD
ENDBRANCH   1  12
BRANCH   1  27
ATOM     22  O   UNL     1       0.139   2.655  18.430  0.00  0.00    +0.000 OA
ATOM     23  C   UNL     1       1.209   2.992  18.922  0.00  0.00    +0.000 A 
ATOM     24  C   UNL     1       1.826   2.169  19.976  0.00  0.00    +0.000 A 
ATOM     25  C   UNL     1       3.000   2.542  20.494  0.00  0.00    +0.000 A 
ATOM     26  O   UNL     1       3.677   3.670  20.073  0.00  0.00    +0.000 OA
ATOM     27  C   UNL     1       3.123   4.503  19.099  0.00  0.00    +0.000 A 
ATOM     28  C   UNL     1       1.946   4.227  18.501  0.00  0.00    +0.000 A 
BRANCH  28  29
ATOM     29  O   UNL     1       1.352   5.003  17.521  0.00  0.00    +0.000 OA
ATOM     30  H   UNL     1       0.400   4.830  17.476  0.00  0.00    +0.000 HD
ENDBRANCH  28  29
BRANCH  25  31
ATOM     31  C   UNL     1       3.709   1.751  21.555  0.00  0.00    +0.000 C 
BRANCH  31  32
ATOM     32  O   UNL     1       5.090   1.631  21.244  0.00  0.00    +0.000 OA
ATOM     33  H   UNL     1       5.449   2.535  21.177  0.00  0.00    +0.000 HD
ENDBRANCH  31  32
ENDBRANCH  25  31
ENDBRANCH   1  27
TORSDOF 6
ENDMDL
MODEL 5
REMARK VINA RESULT:      -7.7      1.284      2.572
REMARK  Name = 
REMARK  6 active torsions:
REMARK  status: ('A' for Active; 'I' for Inactive)
REMARK    1  A    between atoms: C_4  and  C_5
REMARK    2  A    between atoms: C_5  and  O_6
REMARK    3  A    between atoms: C_8  and  C_9
REMARK    4  A    between atoms: C_9  and  C_10
REMARK    5  A    between atoms: C_9  and  C_20
REMARK    6  A    between atoms: C_29  and  O_30
REMARK                            x       y       z     vdW  Elec       q    Type
REMARK                         _______ _______ _______ _____ _____    ______ ____
ROOT
ATOM      1  C   UNL     1       3.475   5.268  17.705  0.00  0.00    +0.000 C 
ENDROOT
BRANCH   1   2
ATOM      2  C   UNL     1       2.758   6.550  18.141  0.00  0.00    +0.000 A 
ATOM      3  C   UNL     1       2.564   7.643  17.283  0.00  0.00    +0.000 A 
ATOM      4  C   UNL     1       1.994   8.833  17.744  0.00  0.00    +0.000 A 
ATOM      5  C   UNL     1       1.627   8.972  19.086  0.00  0.00    +0.000 A 
ATOM      6  C   UNL     1       1.083  10.174  19.560  0.00  0.00    +0.000 A 
ATOM      7  C   UNL     1       0.754  10.320  20.903  0.00  0.00    +0.000 A 
ATOM      8  C   UNL     1       0.961   9.267  21.790  0.00  0.00    +0.000 A 
ATOM      9  C   UNL     1       1.493   8.060  21.331  0.00  0.00    +0.000 A 
ATOM     10  C   UNL     1       1.832   7.894  19.976  0.00  0.00    +0.000 A 
ATOM     11  C   UNL     1       2.382   6.692  19.491  0.00  0.00    +0.000 A 
ENDBRANCH   1   2
BRANCH   1  12
ATOM     12  C   UNL     1       4.835   5.653  17.154  0.00  0.00    +0.000 A 
ATOM     13  C   UNL     1       5.745   6.558  17.681  0.00  0.00    +0.000 A 
ATOM     14  N   UNL     1       6.835   6.619  16.856  0.00  0.00    +0.000 N 
ATOM     15  C   UNL     1       6.679   5.758  15.798  0.00  0.00    +0.000 A 
ATOM     16  C   UNL     1       7.537   5.492  14.722  0.00  0.00    +0.000 A 
ATOM     17  C   UNL     1       7.111   4.567  13.765  0.00  0.00    +0.000 A 
ATOM     18  C   UNL     1       5.873   3.942  13.878  0.00  0.00    +0.000 A 
ATOM     19  C   UNL     1       5.027   4.221  14.959  0.00  0.00    +0.000 A 
ATOM     20  C   UNL     1       5.436   5.142  15.947  0.00  0.00    +0.000 A 
ATOM     21  H   UNL     1       7.640   7.216  16.993  0.00  0.00    +0.000 HD
ENDBRANCH   1  12
BRANCH   1  27
ATOM     22  O   UNL     1       5.385   1.652  20.459  0.00  0.00    +0.000 OA
ATOM     23  C   UNL     1       4.461   2.388  20.134  0.00  0.00    +0.000 A 
ATOM     24  C   UNL     1       3.146   2.248  20.783  0.00  0.00    +0.000 A 
ATOM     25  C   UNL     1       2.151   3.066  20.428  0.00  0.00    +0.000 A 
ATOM     26  O   UNL     1       2.304   4.059  19.478  0.00  0.00    +0.000 OA
ATOM     27  C   UNL     1       3.520   4.215  18.810  0.00  0.00    +0.000 A 
ATOM     28  C   UNL     1       4.597   3.450  19.087  0.00  0.00    +0.000 A 
BRANCH  28  29
ATOM     29  O   UNL     1       5.831   3.566  18.472  0.00  0.00    +0.000 OA
ATOM     30  H   UNL     1       5.764   3.357  17.527  0.00  0.00    +0.000 HD
ENDBRANCH  28  29
BRANCH  25  31
ATOM     31  C   UNL     1       0.788   3.007  21.052  0.00  0.00    +0.000 C 
BRANCH  31  32
ATOM     32  O   UNL     1       0.872   2.511  22.380  0.00  0.00    +0.000 OA
ATOM     33  H   UNL     1       0.484   1.617  22.379  0.00  0.00    +0.000 HD
ENDBRANCH  31  32
ENDBRANCH  25  31
ENDBRANCH   1  27
TORSDOF 6
ENDMDL
MODEL 6
REMARK VINA RESULT:      -7.7      1.116      1.785
REMARK  Name = 
REMARK  6 active torsions:
REMARK  status: ('A' for Active; 'I' for Inactive)
REMARK    1  A    between atoms: C_4  and  C_5
REMARK    2  A    between atoms: C_5  and  O_6
REMARK    3  A    between atoms: C_8  and  C_9
REMARK    4  A    between atoms: C_9  and  C_10
REMARK    5  A    between atoms: C_9  and  C_20
REMARK    6  A    between atoms: C_29  and  O_30
REMARK                            x       y       z     vdW  Elec       q    Type
REMARK                         _______ _______ _______ _____ _____    ______ ____
ROOT
ATOM      1  C   UNL     1       2.881   5.895  17.546  0.00  0.00    +0.000 C 
ENDROOT
BRANCH   1   2
ATOM      2  C   UNL     1       2.446   6.976  18.542  0.00  0.00    +0.000 A 
ATOM      3  C   UNL     1       2.200   6.708  19.898  0.00  0.00    +0.000 A 
ATOM      4  C   UNL     1       1.710   7.698  20.754  0.00  0.00    +0.000 A 
ATOM      5  C   UNL     1       1.425   8.978  20.271  0.00  0.00    +0.000 A 
ATOM      6  C   UNL     1       0.904   9.965  21.119  0.00  0.00    +0.000 A 
ATOM      7  C   UNL     1       0.588  11.227  20.625  0.00  0.00    +0.000 A 
ATOM      8  C   UNL     1       0.790  11.519  19.279  0.00  0.00    +0.000 A 
ATOM      9  C   UNL     1       1.318  10.549  18.423  0.00  0.00    +0.000 A 
ATOM     10  C   UNL     1       1.643   9.268  18.905  0.00  0.00    +0.000 A 
ATOM     11  C   UNL     1       2.163   8.269  18.060  0.00  0.00    +0.000 A 
ENDBRANCH   1   2
BRANCH   1  12
ATOM     12  C   UNL     1       4.326   6.157  17.168  0.00  0.00    +0.000 A 
ATOM     13  C   UNL     1       4.824   6.590  15.948  0.00  0.00    +0.000 A 
ATOM     14  N   UNL     1       6.188   6.675  16.033  0.00  0.00    +0.000 N 
ATOM     15  C   UNL     1       6.608   6.325  17.293  0.00  0.00    +0.000 A 
ATOM     16  C   UNL     1       7.903   6.272  17.825  0.00  0.00    +0.000 A 
ATOM     17  C   UNL     1       8.043   5.858  19.153  0.00  0.00    +0.000 A 
ATOM     18  C   UNL     1       6.931   5.505  19.912  0.00  0.00    +0.000 A 
ATOM     19  C   UNL     1       5.643   5.563  19.363  0.00  0.00    +0.000 A 
ATOM     20  C   UNL     1       5.471   5.988  18.028  0.00  0.00    +0.000 A 
ATOM     21  H   UNL     1       6.806   6.946  15.280  0.00  0.00    +0.000 HD
ENDBRANCH   1  12
BRANCH   1  27
ATOM     22  O   UNL     1       0.301   1.770  18.340  0.00  0.00    +0.000 OA
ATOM     23  C   UNL     1       1.300   2.463  18.487  0.00  0.00    +0.000 A 
ATOM     24  C   UNL     1       2.408   1.986  19.333  0.00  0.00    +0.000 A 
ATOM     25  C   UNL     1       3.498   2.747  19.473  0.00  0.00    +0.000 A 
ATOM     26  O   UNL     1       3.642   3.968  18.844  0.00  0.00    +0.000 OA
ATOM     27  C   UNL     1       2.610   4.483  18.057  0.00  0.00    +0.000 A 
ATOM     28  C   UNL     1       1.464   3.803  17.838  0.00  0.00    +0.000 A 
BRANCH  28  29
ATOM     29  O   UNL     1       0.413   4.251  17.058  0.00  0.00    +0.000 OA
ATOM     30  H   UNL     1      -0.164   3.515  16.804  0.00  0.00    +0.000 HD
ENDBRANCH  28  29
BRANCH  25  31
ATOM     31  C   UNL     1       4.681   2.328  20.297  0.00  0.00    +0.000 C 
BRANCH  31  32
ATOM     32  O   UNL     1       5.182   1.078  19.845  0.00  0.00    +0.000 OA
ATOM     33  H   UNL     1       5.711   0.701  20.572  0.00  0.00    +0.000 HD
ENDBRANCH  31  32
ENDBRANCH  25  31
ENDBRANCH   1  27
TORSDOF 6
ENDMDL
MODEL 7
REMARK VINA RESULT:      -7.7      0.833      2.183
REMARK  Name = 
REMARK  6 active torsions:
REMARK  status: ('A' for Active; 'I' for Inactive)
REMARK    1  A    between atoms: C_4  and  C_5
REMARK    2  A    between atoms: C_5  and  O_6
REMARK    3  A    between atoms: C_8  and  C_9
REMARK    4  A    between atoms: C_9  and  C_10
REMARK    5  A    between atoms: C_9  and  C_20
REMARK    6  A    between atoms: C_29  and  O_30
REMARK                            x       y       z     vdW  Elec       q    Type
REMARK                         _______ _______ _______ _____ _____    ______ ____
ROOT
ATOM      1  C   UNL     1       3.304   5.553  17.759  0.00  0.00    +0.000 C 
ENDROOT
BRANCH   1   2
ATOM      2  C   UNL     1       2.737   6.724  18.570  0.00  0.00    +0.000 A 
ATOM      3  C   UNL     1       2.429   6.627  19.935  0.00  0.00    +0.000 A 
ATOM      4  C   UNL     1       1.821   7.685  20.617  0.00  0.00    +0.000 A 
ATOM      5  C   UNL     1       1.481   8.862  19.944  0.00  0.00    +0.000 A 
ATOM      6  C   UNL     1       0.844   9.914  20.617  0.00  0.00    +0.000 A 
ATOM      7  C   UNL     1       0.474  11.068  19.935  0.00  0.00    +0.000 A 
ATOM      8  C   UNL     1       0.737  11.187  18.573  0.00  0.00    +0.000 A 
ATOM      9  C   UNL     1       1.380  10.152  17.891  0.00  0.00    +0.000 A 
ATOM     10  C   UNL     1       1.761   8.977  18.564  0.00  0.00    +0.000 A 
ATOM     11  C   UNL     1       2.398   7.913  17.896  0.00  0.00    +0.000 A 
ENDBRANCH   1   2
BRANCH   1  12
ATOM     12  C   UNL     1       4.655   5.969  17.210  0.00  0.00    +0.000 A 
ATOM     13  C   UNL     1       5.464   7.013  17.635  0.00  0.00    +0.000 A 
ATOM     14  N   UNL     1       6.586   7.049  16.852  0.00  0.00    +0.000 N 
ATOM     15  C   UNL     1       6.551   6.037  15.925  0.00  0.00    +0.000 A 
ATOM     16  C   UNL     1       7.479   5.695  14.933  0.00  0.00    +0.000 A 
ATOM     17  C   UNL     1       7.175   4.612  14.104  0.00  0.00    +0.000 A 
ATOM     18  C   UNL     1       5.985   3.906  14.259  0.00  0.00    +0.000 A 
ATOM     19  C   UNL     1       5.068   4.263  15.255  0.00  0.00    +0.000 A 
ATOM     20  C   UNL     1       5.354   5.346  16.114  0.00  0.00    +0.000 A 
ATOM     21  H   UNL     1       7.334   7.725  16.932  0.00  0.00    +0.000 HD
ENDBRANCH   1  12
BRANCH   1  27
ATOM     22  O   UNL     1       5.233   1.885  20.429  0.00  0.00    +0.000 OA
ATOM     23  C   UNL     1       4.303   2.409  19.828  0.00  0.00    +0.000 A 
ATOM     24  C   UNL     1       3.009   1.712  19.723  0.00  0.00    +0.000 A 
ATOM     25  C   UNL     1       1.999   2.301  19.077  0.00  0.00    +0.000 A 
ATOM     26  O   UNL     1       2.109   3.555  18.506  0.00  0.00    +0.000 OA
ATOM     27  C   UNL     1       3.321   4.246  18.548  0.00  0.00    +0.000 A 
ATOM     28  C   UNL     1       4.409   3.754  19.178  0.00  0.00    +0.000 A 
BRANCH  28  29
ATOM     29  O   UNL     1       5.631   4.396  19.267  0.00  0.00    +0.000 OA
ATOM     30  H   UNL     1       5.978   4.599  18.385  0.00  0.00    +0.000 HD
ENDBRANCH  28  29
BRANCH  25  31
ATOM     31  C   UNL     1       0.643   1.672  18.942  0.00  0.00    +0.000 C 
BRANCH  31  32
ATOM     32  O   UNL     1      -0.355   2.527  19.481  0.00  0.00    +0.000 OA
ATOM     33  H   UNL     1      -0.923   2.808  18.740  0.00  0.00    +0.000 HD
ENDBRANCH  31  32
ENDBRANCH  25  31
ENDBRANCH   1  27
TORSDOF 6
ENDMDL
MODEL 8
REMARK VINA RESULT:      -7.6      5.051      9.295
REMARK  Name = 
REMARK  6 active torsions:
REMARK  status: ('A' for Active; 'I' for Inactive)
REMARK    1  A    between atoms: C_4  and  C_5
REMARK    2  A    between atoms: C_5  and  O_6
REMARK    3  A    between atoms: C_8  and  C_9
REMARK    4  A    between atoms: C_9  and  C_10
REMARK    5  A    between atoms: C_9  and  C_20
REMARK    6  A    between atoms: C_29  and  O_30
REMARK                            x       y       z     vdW  Elec       q    Type
REMARK                         _______ _______ _______ _____ _____    ______ ____
ROOT
ATOM      1  C   UNL     1       0.951  11.815  18.595  0.00  0.00    +0.000 C 
ENDROOT
BRANCH   1   2
ATOM      2  C   UNL     1       1.201  10.355  18.987  0.00  0.00    +0.000 A 
ATOM      3  C   UNL     1       0.794   9.816  20.218  0.00  0.00    +0.000 A 
ATOM      4  C   UNL     1       1.127   8.508  20.580  0.00  0.00    +0.000 A 
ATOM      5  C   UNL     1       1.900   7.710  19.733  0.00  0.00    +0.000 A 
ATOM      6  C   UNL     1       2.261   6.408  20.106  0.00  0.00    +0.000 A 
ATOM      7  C   UNL     1       3.062   5.631  19.275  0.00  0.00    +0.000 A 
ATOM      8  C   UNL     1       3.509   6.143  18.061  0.00  0.00    +0.000 A 
ATOM      9  C   UNL     1       3.150   7.435  17.670  0.00  0.00    +0.000 A 
ATOM     10  C   UNL     1       2.341   8.235  18.497  0.00  0.00    +0.000 A 
ATOM     11  C   UNL     1       1.975   9.546  18.133  0.00  0.00    +0.000 A 
ENDBRANCH   1   2
BRANCH   1  12
ATOM     12  C   UNL     1      -0.513  12.125  18.839  0.00  0.00    +0.000 A 
ATOM     13  C   UNL     1      -1.053  13.150  19.603  0.00  0.00    +0.000 A 
ATOM     14  N   UNL     1      -2.418  13.052  19.571  0.00  0.00    +0.000 N 
ATOM     15  C   UNL     1      -2.800  11.992  18.787  0.00  0.00    +0.000 A 
ATOM     16  C   UNL     1      -4.083  11.525  18.470  0.00  0.00    +0.000 A 
ATOM     17  C   UNL     1      -4.180  10.398  17.650  0.00  0.00    +0.000 A 
ATOM     18  C   UNL     1      -3.038   9.762  17.173  0.00  0.00    +0.000 A 
ATOM     19  C   UNL     1      -1.763  10.241  17.500  0.00  0.00    +0.000 A 
ATOM     20  C   UNL     1      -1.635  11.385  18.318  0.00  0.00    +0.000 A 
ATOM     21  H   UNL     1      -3.060  13.662  20.060  0.00  0.00    +0.000 HD
ENDBRANCH   1  12
BRANCH   1  27
ATOM     22  O   UNL     1       2.982  14.351  22.303  0.00  0.00    +0.000 OA
ATOM     23  C   UNL     1       2.884  14.069  21.115  0.00  0.00    +0.000 A 
ATOM     24  C   UNL     1       3.712  14.773  20.121  0.00  0.00    +0.000 A 
ATOM     25  C   UNL     1       3.603  14.446  18.830  0.00  0.00    +0.000 A 
ATOM     26  O   UNL     1       2.750  13.457  18.380  0.00  0.00    +0.000 OA
ATOM     27  C   UNL     1       1.920  12.780  19.275  0.00  0.00    +0.000 A 
ATOM     28  C   UNL     1       1.945  13.021  20.602  0.00  0.00    +0.000 A 
BRANCH  28  29
ATOM     29  O   UNL     1       1.159  12.374  21.541  0.00  0.00    +0.000 OA
ATOM     30  H   UNL     1       0.817  11.539  21.185  0.00  0.00    +0.000 HD
ENDBRANCH  28  29
BRANCH  25  31
ATOM     31  C   UNL     1       4.424  15.097  17.755  0.00  0.00    +0.000 C 
BRANCH  31  32
ATOM     32  O   UNL     1       3.585  15.581  16.716  0.00  0.00    +0.000 OA
ATOM     33  H   UNL     1       2.702  15.191  16.854  0.00  0.00    +0.000 HD
ENDBRANCH  31  32
ENDBRANCH  25  31
ENDBRANCH   1  27
TORSDOF 6
ENDMDL
MODEL 9
REMARK VINA RESULT:      -7.4      1.700      2.353
REMARK  Name = 
REMARK  6 active torsions:
REMARK  status: ('A' for Active; 'I' for Inactive)
REMARK    1  A    between atoms: C_4  and  C_5
REMARK    2  A    between atoms: C_5  and  O_6
REMARK    3  A    between atoms: C_8  and  C_9
REMARK    4  A    between atoms: C_9  and  C_10
REMARK    5  A    between atoms: C_9  and  C_20
REMARK    6  A    between atoms: C_29  and  O_30
REMARK                            x       y       z     vdW  Elec       q    Type
REMARK                         _______ _______ _______ _____ _____    ______ ____
ROOT
ATOM      1  C   UNL     1       3.612   5.348  17.981  0.00  0.00    +0.000 C 
ENDROOT
BRANCH   1   2
ATOM      2  C   UNL     1       2.849   6.633  18.325  0.00  0.00    +0.000 A 
ATOM      3  C   UNL     1       2.684   7.687  17.414  0.00  0.00    +0.000 A 
ATOM      4  C   UNL     1       2.069   8.883  17.796  0.00  0.00    +0.000 A 
ATOM      5  C   UNL     1       1.626   9.067  19.109  0.00  0.00    +0.000 A 
ATOM      6  C   UNL     1       1.037  10.276  19.504  0.00  0.00    +0.000 A 
ATOM      7  C   UNL     1       0.631  10.468  20.820  0.00  0.00    +0.000 A 
ATOM      8  C   UNL     1       0.808   9.455  21.758  0.00  0.00    +0.000 A 
ATOM      9  C   UNL     1       1.385   8.241  21.379  0.00  0.00    +0.000 A 
ATOM     10  C   UNL     1       1.801   8.029  20.052  0.00  0.00    +0.000 A 
ATOM     11  C   UNL     1       2.398   6.820  19.646  0.00  0.00    +0.000 A 
ENDBRANCH   1   2
BRANCH   1  12
ATOM     12  C   UNL     1       5.038   5.500  18.476  0.00  0.00    +0.000 A 
ATOM     13  C   UNL     1       5.715   4.701  19.385  0.00  0.00    +0.000 A 
ATOM     14  N   UNL     1       6.975   5.206  19.564  0.00  0.00    +0.000 N 
ATOM     15  C   UNL     1       7.157   6.317  18.778  0.00  0.00    +0.000 A 
ATOM     16  C   UNL     1       8.280   7.144  18.638  0.00  0.00    +0.000 A 
ATOM     17  C   UNL     1       8.181   8.231  17.767  0.00  0.00    +0.000 A 
ATOM     18  C   UNL     1       7.002   8.484  17.071  0.00  0.00    +0.000 A 
ATOM     19  C   UNL     1       5.889   7.648  17.224  0.00  0.00    +0.000 A 
ATOM     20  C   UNL     1       5.964   6.535  18.089  0.00  0.00    +0.000 A 
ATOM     21  H   UNL     1       7.673   4.828  20.190  0.00  0.00    +0.000 HD
ENDBRANCH   1  12
BRANCH   1  27
ATOM     22  O   UNL     1       0.005   2.006  18.337  0.00  0.00    +0.000 OA
ATOM     23  C   UNL     1       1.084   2.471  18.685  0.00  0.00    +0.000 A 
ATOM     24  C   UNL     1       1.830   1.850  19.793  0.00  0.00    +0.000 A 
ATOM     25  C   UNL     1       3.011   2.360  20.153  0.00  0.00    +0.000 A 
ATOM     26  O   UNL     1       3.580   3.446  19.517  0.00  0.00    +0.000 OA
ATOM     27  C   UNL     1       2.903   4.092  18.481  0.00  0.00    +0.000 A 
ATOM     28  C   UNL     1       1.705   3.666  18.029  0.00  0.00    +0.000 A 
BRANCH  28  29
ATOM     29  O   UNL     1       0.992   4.253  16.998  0.00  0.00    +0.000 OA
ATOM     30  H   UNL     1       0.750   3.593  16.330  0.00  0.00    +0.000 HD
ENDBRANCH  28  29
BRANCH  25  31
ATOM     31  C   UNL     1       3.846   1.776  21.256  0.00  0.00    +0.000 C 
BRANCH  31  32
ATOM     32  O   UNL     1       5.194   1.628  20.831  0.00  0.00    +0.000 OA
ATOM     33  H   UNL     1       5.422   0.685  20.925  0.00  0.00    +0.000 HD
ENDBRANCH  31  32
ENDBRANCH  25  31
ENDBRANCH   1  27
TORSDOF 6
ENDMDL
