MODEL 1
REMARK VINA RESULT:      -7.5      0.000      0.000
REMARK  Name = 
REMARK  10 active torsions:
REMARK  status: ('A' for Active; 'I' for Inactive)
REMARK    1  A    between atoms: C_1  and  C_2
REMARK    2  A    between atoms: N_4  and  C_5
REMARK    3  A    between atoms: C_8  and  C_9
REMARK    4  A    between atoms: C_9  and  C_10
REMARK    5  A    between atoms: C_9  and  C_11
REMARK    6  A    between atoms: C_9  and  C_12
REMARK    7  A    between atoms: C_15  and  C_16
REMARK    8  A    between atoms: C_17  and  C_18
REMARK    9  A    between atoms: C_21  and  N_22
REMARK   10  A    between atoms: N_25  and  C_26
REMARK                            x       y       z     vdW  Elec       q    Type
REMARK                         _______ _______ _______ _____ _____    ______ ____
ROOT
ATOM      1  C   UNL     1      -0.069  10.424  22.338  0.00  0.00    +0.000 C 
ATOM      2  C   UNL     1       0.529   9.650  21.217  0.00  0.00    +0.000 A 
ATOM      3  N   UNL     1       0.910   8.386  21.401  0.00  0.00    +0.000 NA
ATOM      4  N   UNL     1       1.499   8.020  20.231  0.00  0.00    +0.000 N 
ATOM      5  C   UNL     1       1.345   9.002  19.260  0.00  0.00    +0.000 A 
ATOM      6  C   UNL     1       1.700   8.823  17.825  0.00  0.00    +0.000 C 
ATOM      7  C   UNL     1       0.728  10.084  19.878  0.00  0.00    +0.000 A 
ENDROOT
BRANCH   4   8
ATOM      8  C   UNL     1       2.085   6.731  20.081  0.00  0.00    +0.000 A 
ATOM      9  C   UNL     1       1.495   5.618  20.681  0.00  0.00    +0.000 A 
ATOM     10  C   UNL     1       1.932   4.327  20.340  0.00  0.00    +0.000 A 
ATOM     11  C   UNL     1       2.976   4.120  19.416  0.00  0.00    +0.000 A 
ATOM     12  C   UNL     1       3.620   5.262  18.913  0.00  0.00    +0.000 A 
ATOM     13  C   UNL     1       3.200   6.546  19.260  0.00  0.00    +0.000 A 
BRANCH  11  14
ATOM     14  C   UNL     1       3.421   2.727  18.936  0.00  0.00    +0.000 C 
ATOM     15  C   UNL     1       4.072   2.741  17.537  0.00  0.00    +0.000 C 
ATOM     16  C   UNL     1       4.458   2.137  19.921  0.00  0.00    +0.000 C 
ATOM     17  C   UNL     1       2.206   1.775  18.875  0.00  0.00    +0.000 C 
ENDBRANCH  11  14
ENDBRANCH   4   8
BRANCH   7  18
ATOM     18  C   UNL     1       0.297  11.400  19.294  0.00  0.00    +0.000 C 
ATOM     19  C   UNL     1       0.869  12.570  20.043  0.00  0.00    +0.000 C 
ATOM     20  C   UNL     1      -0.073  13.289  20.667  0.00  0.00    +0.000 C 
ATOM     21  C   UNL     1      -1.433  12.711  20.459  0.00  0.00    +0.000 C 
ATOM     22  C   UNL     1      -1.212  11.665  19.351  0.00  0.00    +0.000 C 
BRANCH  21  23
ATOM     23  N   UNL     1      -2.354  13.756  20.085  0.00  0.00    +0.000 N 
ATOM     24  C   UNL     1      -3.464  13.925  20.888  0.00  0.00    +0.000 C 
ATOM     25  O   UNL     1      -3.678  13.208  21.857  0.00  0.00    +0.000 OA
ATOM     26  N   UNL     1      -4.268  14.941  20.425  0.00  0.00    +0.000 N 
ATOM     27  H   UNL     1      -1.944  14.623  19.769  0.00  0.00    +0.000 HD
ATOM     28  H   UNL     1      -4.105  15.222  19.469  0.00  0.00    +0.000 HD
BRANCH  26  29
ATOM     29  C   UNL     1      -5.471  15.365  21.027  0.00  0.00    +0.000 A 
ATOM     30  C   UNL     1      -5.530  16.411  21.950  0.00  0.00    +0.000 A 
ATOM     31  C   UNL     1      -6.738  16.762  22.553  0.00  0.00    +0.000 A 
ATOM     32  C   UNL     1      -7.904  16.079  22.222  0.00  0.00    +0.000 A 
ATOM     33  C   UNL     1      -7.862  15.052  21.283  0.00  0.00    +0.000 A 
ATOM     34  C   UNL     1      -6.651  14.699  20.679  0.00  0.00    +0.000 A 
ENDBRANCH  26  29
ENDBRANCH  21  23
ENDBRANCH   7  18
TORSDOF 5
ENDMDL
MODEL 2
REMARK VINA RESULT:      -7.5      4.039     11.934
REMARK  Name = 
REMARK  10 active torsions:
REMARK  status: ('A' for Active; 'I' for Inactive)
REMARK    1  A    between atoms: C_1  and  C_2
REMARK    2  A    between atoms: N_4  and  C_5
REMARK    3  A    between atoms: C_8  and  C_9
REMARK    4  A    between atoms: C_9  and  C_10
REMARK    5  A    between atoms: C_9  and  C_11
REMARK    6  A    between atoms: C_9  and  C_12
REMARK    7  A    between atoms: C_15  and  C_16
REMARK    8  A    between atoms: C_17  and  C_18
REMARK    9  A    between atoms: C_21  and  N_22
REMARK   10  A    between atoms: N_25  and  C_26
REMARK                            x       y       z     vdW  Elec       q    Type
REMARK                         _______ _______ _______ _____ _____    ______ ____
ROOT
ATOM      1  C   UNL     1       2.067   5.166  21.048  0.00  0.00    +0.000 C 
ATOM      2  C   UNL     1       1.757   6.553  20.606  0.00  0.00    +0.000 A 
ATOM      3  N   UNL     1       1.333   7.459  21.488  0.00  0.00    +0.000 NA
ATOM      4  N   UNL     1       1.046   8.564  20.748  0.00  0.00    +0.000 N 
ATOM      5  C   UNL     1       1.442   8.403  19.425  0.00  0.00    +0.000 A 
ATOM      6  C   UNL     1       1.450   9.497  18.415  0.00  0.00    +0.000 C 
ATOM      7  C   UNL     1       1.896   7.095  19.300  0.00  0.00    +0.000 A 
ENDROOT
BRANCH   4   8
ATOM      8  C   UNL     1       0.506   9.732  21.359  0.00  0.00    +0.000 A 
ATOM      9  C   UNL     1       0.877  10.997  20.903  0.00  0.00    +0.000 A 
ATOM     10  C   UNL     1       0.171  12.131  21.340  0.00  0.00    +0.000 A 
ATOM     11  C   UNL     1      -0.898  12.030  22.253  0.00  0.00    +0.000 A 
ATOM     12  C   UNL     1      -1.175  10.755  22.775  0.00  0.00    +0.000 A 
ATOM     13  C   UNL     1      -0.467   9.629  22.355  0.00  0.00    +0.000 A 
BRANCH  11  14
ATOM     14  C   UNL     1      -1.764  13.228  22.683  0.00  0.00    +0.000 C 
ATOM     15  C   UNL     1      -2.485  13.916  21.506  0.00  0.00    +0.000 C 
ATOM     16  C   UNL     1      -2.851  12.761  23.679  0.00  0.00    +0.000 C 
ATOM     17  C   UNL     1      -0.886  14.292  23.378  0.00  0.00    +0.000 C 
ENDBRANCH  11  14
ENDBRANCH   4   8
BRANCH   7  18
ATOM     18  C   UNL     1       2.468   6.393  18.100  0.00  0.00    +0.000 C 
ATOM     19  C   UNL     1       1.894   5.016  17.919  0.00  0.00    +0.000 C 
ATOM     20  C   UNL     1       2.808   4.053  18.094  0.00  0.00    +0.000 C 
ATOM     21  C   UNL     1       4.144   4.620  18.443  0.00  0.00    +0.000 C 
ATOM     22  C   UNL     1       3.977   6.126  18.169  0.00  0.00    +0.000 C 
BRANCH  21  23
ATOM     23  N   UNL     1       5.163   4.000  17.631  0.00  0.00    +0.000 N 
ATOM     24  C   UNL     1       5.319   4.488  16.350  0.00  0.00    +0.000 C 
ATOM     25  O   UNL     1       4.613   5.384  15.906  0.00  0.00    +0.000 OA
ATOM     26  N   UNL     1       6.309   3.812  15.674  0.00  0.00    +0.000 N 
ATOM     27  H   UNL     1       6.033   3.782  18.093  0.00  0.00    +0.000 HD
ATOM     28  H   UNL     1       6.578   2.924  16.072  0.00  0.00    +0.000 HD
BRANCH  26  29
ATOM     29  C   UNL     1       6.715   4.076  14.349  0.00  0.00    +0.000 A 
ATOM     30  C   UNL     1       7.603   5.101  14.017  0.00  0.00    +0.000 A 
ATOM     31  C   UNL     1       7.938   5.352  12.687  0.00  0.00    +0.000 A 
ATOM     32  C   UNL     1       7.400   4.564  11.675  0.00  0.00    +0.000 A 
ATOM     33  C   UNL     1       6.535   3.520  11.996  0.00  0.00    +0.000 A 
ATOM     34  C   UNL     1       6.198   3.270  13.329  0.00  0.00    +0.000 A 
ENDBRANCH  26  29
ENDBRANCH  21  23
ENDBRANCH   7  18
TORSDOF 5
ENDMDL
MODEL 3
REMARK VINA RESULT:      -7.5      4.398     12.127
REMARK  Name = 
REMARK  10 active torsions:
REMARK  status: ('A' for Active; 'I' for Inactive)
REMARK    1  A    between atoms: C_1  and  C_2
REMARK    2  A    between atoms: N_4  and  C_5
REMARK    3  A    between atoms: C_8  and  C_9
REMARK    4  A    between atoms: C_9  and  C_10
REMARK    5  A    between atoms: C_9  and  C_11
REMARK    6  A    between atoms: C_9  and  C_12
REMARK    7  A    between atoms: C_15  and  C_16
REMARK    8  A    between atoms: C_17  and  C_18
REMARK    9  A    between atoms: C_21  and  N_22
REMARK   10  A    between atoms: N_25  and  C_26
REMARK                            x       y       z     vdW  Elec       q    Type
REMARK                         _______ _______ _______ _____ _____    ______ ____
ROOT
ATOM      1  C   UNL     1       2.305   4.158  20.863  0.00  0.00    +0.000 C 
ATOM      2  C   UNL     1       2.265   5.536  20.304  0.00  0.00    +0.000 A 
ATOM      3  N   UNL     1       1.667   6.518  20.980  0.00  0.00    +0.000 NA
ATOM      4  N   UNL     1       1.718   7.597  20.155  0.00  0.00    +0.000 N 
ATOM      5  C   UNL     1       2.488   7.335  19.028  0.00  0.00    +0.000 A 
ATOM      6  C   UNL     1       2.901   8.368  18.038  0.00  0.00    +0.000 C 
ATOM      7  C   UNL     1       2.847   5.994  19.091  0.00  0.00    +0.000 A 
ENDROOT
BRANCH   4   8
ATOM      8  C   UNL     1       1.115   8.832  20.530  0.00  0.00    +0.000 A 
ATOM      9  C   UNL     1       0.477   9.620  19.571  0.00  0.00    +0.000 A 
ATOM     10  C   UNL     1      -0.316  10.707  19.977  0.00  0.00    +0.000 A 
ATOM     11  C   UNL     1      -0.468  11.044  21.336  0.00  0.00    +0.000 A 
ATOM     12  C   UNL     1       0.274  10.299  22.267  0.00  0.00    +0.000 A 
ATOM     13  C   UNL     1       1.073   9.228  21.868  0.00  0.00    +0.000 A 
BRANCH  11  14
ATOM     14  C   UNL     1      -1.403  12.161  21.835  0.00  0.00    +0.000 C 
ATOM     15  C   UNL     1      -2.208  11.770  23.091  0.00  0.00    +0.000 C 
ATOM     16  C   UNL     1      -0.576  13.419  22.192  0.00  0.00    +0.000 C 
ATOM     17  C   UNL     1      -2.415  12.537  20.730  0.00  0.00    +0.000 C 
ENDBRANCH  11  14
ENDBRANCH   4   8
BRANCH   7  18
ATOM     18  C   UNL     1       3.701   5.187  18.153  0.00  0.00    +0.000 C 
ATOM     19  C   UNL     1       5.064   4.909  18.720  0.00  0.00    +0.000 C 
ATOM     20  C   UNL     1       6.039   5.516  18.033  0.00  0.00    +0.000 C 
ATOM     21  C   UNL     1       5.493   6.323  16.901  0.00  0.00    +0.000 C 
ATOM     22  C   UNL     1       4.021   5.878  16.822  0.00  0.00    +0.000 C 
BRANCH  21  23
ATOM     23  N   UNL     1       6.242   6.043  15.700  0.00  0.00    +0.000 N 
ATOM     24  C   UNL     1       5.810   4.981  14.930  0.00  0.00    +0.000 C 
ATOM     25  O   UNL     1       4.856   4.288  15.259  0.00  0.00    +0.000 OA
ATOM     26  N   UNL     1       6.607   4.809  13.823  0.00  0.00    +0.000 N 
ATOM     27  H   UNL     1       6.540   6.842  15.161  0.00  0.00    +0.000 HD
ATOM     28  H   UNL     1       7.507   5.263  13.859  0.00  0.00    +0.000 HD
BRANCH  26  29
ATOM     29  C   UNL     1       6.425   3.816  12.837  0.00  0.00    +0.000 A 
ATOM     30  C   UNL     1       5.169   3.319  12.483  0.00  0.00    +0.000 A 
ATOM     31  C   UNL     1       5.046   2.303  11.534  0.00  0.00    +0.000 A 
ATOM     32  C   UNL     1       6.180   1.789  10.916  0.00  0.00    +0.000 A 
ATOM     33  C   UNL     1       7.436   2.296  11.240  0.00  0.00    +0.000 A 
ATOM     34  C   UNL     1       7.560   3.313  12.192  0.00  0.00    +0.000 A 
ENDBRANCH  26  29
ENDBRANCH  21  23
ENDBRANCH   7  18
TORSDOF 5
ENDMDL
MODEL 4
REMARK VINA RESULT:      -7.2      4.234     11.916
REMARK  Name = 
REMARK  10 active torsions:
REMARK  status: ('A' for Active; 'I' for Inactive)
REMARK    1  A    between atoms: C_1  and  C_2
REMARK    2  A    between atoms: N_4  and  C_5
REMARK    3  A    between atoms: C_8  and  C_9
REMARK    4  A    between atoms: C_9  and  C_10
REMARK    5  A    between atoms: C_9  and  C_11
REMARK    6  A    between atoms: C_9  and  C_12
REMARK    7  A    between atoms: C_15  and  C_16
REMARK    8  A    between atoms: C_17  and  C_18
REMARK    9  A    between atoms: C_21  and  N_22
REMARK   10  A    between atoms: N_25  and  C_26
REMARK                            x       y       z     vdW  Elec       q    Type
REMARK                         _______ _______ _______ _____ _____    ______ ____
ROOT
ATOM      1  C   UNL     1       1.749   4.433  21.120  0.00  0.00    +0.000 C 
ATOM      2  C   UNL     1       1.716   5.838  20.633  0.00  0.00    +0.000 A 
ATOM      3  N   UNL     1       1.142   6.791  21.369  0.00  0.00    +0.000 NA
ATOM      4  N   UNL     1       1.193   7.911  20.599  0.00  0.00    +0.000 N 
ATOM      5  C   UNL     1       1.941   7.698  19.447  0.00  0.00    +0.000 A 
ATOM      6  C   UNL     1       2.350   8.775  18.504  0.00  0.00    +0.000 C 
ATOM      7  C   UNL     1       2.284   6.351  19.435  0.00  0.00    +0.000 A 
ENDROOT
BRANCH   4   8
ATOM      8  C   UNL     1       0.612   9.132  21.046  0.00  0.00    +0.000 A 
ATOM      9  C   UNL     1       0.201  10.093  20.122  0.00  0.00    +0.000 A 
ATOM     10  C   UNL     1      -0.581  11.181  20.547  0.00  0.00    +0.000 A 
ATOM     11  C   UNL     1      -0.948  11.344  21.898  0.00  0.00    +0.000 A 
ATOM     12  C   UNL     1      -0.427  10.419  22.818  0.00  0.00    +0.000 A 
ATOM     13  C   UNL     1       0.361   9.347  22.403  0.00  0.00    +0.000 A 
BRANCH  11  14
ATOM     14  C   UNL     1      -1.884  12.461  22.395  0.00  0.00    +0.000 C 
ATOM     15  C   UNL     1      -2.865  11.995  23.490  0.00  0.00    +0.000 C 
ATOM     16  C   UNL     1      -1.050  13.621  22.987  0.00  0.00    +0.000 C 
ATOM     17  C   UNL     1      -2.722  13.009  21.220  0.00  0.00    +0.000 C 
ENDBRANCH  11  14
ENDBRANCH   4   8
BRANCH   7  18
ATOM     18  C   UNL     1       3.112   5.584  18.442  0.00  0.00    +0.000 C 
ATOM     19  C   UNL     1       3.943   4.517  19.097  0.00  0.00    +0.000 C 
ATOM     20  C   UNL     1       5.256   4.763  19.007  0.00  0.00    +0.000 C 
ATOM     21  C   UNL     1       5.527   6.047  18.296  0.00  0.00    +0.000 C 
ATOM     22  C   UNL     1       4.159   6.420  17.697  0.00  0.00    +0.000 C 
BRANCH  21  23
ATOM     23  N   UNL     1       6.553   5.844  17.301  0.00  0.00    +0.000 N 
ATOM     24  C   UNL     1       6.139   5.389  16.065  0.00  0.00    +0.000 C 
ATOM     25  O   UNL     1       4.965   5.140  15.826  0.00  0.00    +0.000 OA
ATOM     26  N   UNL     1       7.204   5.226  15.210  0.00  0.00    +0.000 N 
ATOM     27  H   UNL     1       7.278   6.544  17.256  0.00  0.00    +0.000 HD
ATOM     28  H   UNL     1       8.112   5.187  15.649  0.00  0.00    +0.000 HD
BRANCH  26  29
ATOM     29  C   UNL     1       7.113   4.782  13.874  0.00  0.00    +0.000 A 
ATOM     30  C   UNL     1       6.350   3.677  13.491  0.00  0.00    +0.000 A 
ATOM     31  C   UNL     1       6.330   3.251  12.163  0.00  0.00    +0.000 A 
ATOM     32  C   UNL     1       7.061   3.939  11.201  0.00  0.00    +0.000 A 
ATOM     33  C   UNL     1       7.804   5.059  11.566  0.00  0.00    +0.000 A 
ATOM     34  C   UNL     1       7.826   5.486  12.897  0.00  0.00    +0.000 A 
ENDBRANCH  26  29
ENDBRANCH  21  23
ENDBRANCH   7  18
TORSDOF 5
ENDMDL
MODEL 5
REMARK VINA RESULT:      -7.2      4.038     11.987
REMARK  Name = 
REMARK  10 active torsions:
REMARK  status: ('A' for Active; 'I' for Inactive)
REMARK    1  A    between atoms: C_1  and  C_2
REMARK    2  A    between atoms: N_4  and  C_5
REMARK    3  A    between atoms: C_8  and  C_9
REMARK    4  A    between atoms: C_9  and  C_10
REMARK    5  A    between atoms: C_9  and  C_11
REMARK    6  A    between atoms: C_9  and  C_12
REMARK    7  A    between atoms: C_15  and  C_16
REMARK    8  A    between atoms: C_17  and  C_18
REMARK    9  A    between atoms: C_21  and  N_22
REMARK   10  A    between atoms: N_25  and  C_26
REMARK                            x       y       z     vdW  Elec       q    Type
REMARK                         _______ _______ _______ _____ _____    ______ ____
ROOT
ATOM      1  C   UNL     1       2.153   5.457  21.051  0.00  0.00    +0.000 C 
ATOM      2  C   UNL     1       1.857   6.825  20.546  0.00  0.00    +0.000 A 
ATOM      3  N   UNL     1       1.490   7.789  21.391  0.00  0.00    +0.000 NA
ATOM      4  N   UNL     1       1.200   8.859  20.603  0.00  0.00    +0.000 N 
ATOM      5  C   UNL     1       1.538   8.615  19.277  0.00  0.00    +0.000 A 
ATOM      6  C   UNL     1       1.531   9.651  18.208  0.00  0.00    +0.000 C 
ATOM      7  C   UNL     1       1.957   7.291  19.207  0.00  0.00    +0.000 A 
ENDROOT
BRANCH   4   8
ATOM      8  C   UNL     1       0.711  10.071  21.168  0.00  0.00    +0.000 A 
ATOM      9  C   UNL     1       1.120  11.301  20.651  0.00  0.00    +0.000 A 
ATOM     10  C   UNL     1       0.462  12.478  21.046  0.00  0.00    +0.000 A 
ATOM     11  C   UNL     1      -0.595  12.456  21.978  0.00  0.00    +0.000 A 
ATOM     12  C   UNL     1      -0.908  11.217  22.561  0.00  0.00    +0.000 A 
ATOM     13  C   UNL     1      -0.249  10.049  22.182  0.00  0.00    +0.000 A 
BRANCH  11  14
ATOM     14  C   UNL     1      -1.410  13.704  22.366  0.00  0.00    +0.000 C 
ATOM     15  C   UNL     1      -1.407  13.989  23.882  0.00  0.00    +0.000 C 
ATOM     16  C   UNL     1      -0.829  14.952  21.662  0.00  0.00    +0.000 C 
ATOM     17  C   UNL     1      -2.880  13.532  21.926  0.00  0.00    +0.000 C 
ENDBRANCH  11  14
ENDBRANCH   4   8
BRANCH   7  18
ATOM     18  C   UNL     1       2.464   6.510  18.027  0.00  0.00    +0.000 C 
ATOM     19  C   UNL     1       1.896   5.120  17.978  0.00  0.00    +0.000 C 
ATOM     20  C   UNL     1       2.830   4.179  18.164  0.00  0.00    +0.000 C 
ATOM     21  C   UNL     1       4.178   4.779  18.391  0.00  0.00    +0.000 C 
ATOM     22  C   UNL     1       3.977   6.261  18.023  0.00  0.00    +0.000 C 
BRANCH  21  23
ATOM     23  N   UNL     1       5.153   4.111  17.565  0.00  0.00    +0.000 N 
ATOM     24  C   UNL     1       5.295   4.573  16.272  0.00  0.00    +0.000 C 
ATOM     25  O   UNL     1       4.609   5.487  15.831  0.00  0.00    +0.000 OA
ATOM     26  N   UNL     1       6.242   3.852  15.583  0.00  0.00    +0.000 N 
ATOM     27  H   UNL     1       6.027   3.868  18.008  0.00  0.00    +0.000 HD
ATOM     28  H   UNL     1       6.490   2.961  15.988  0.00  0.00    +0.000 HD
BRANCH  26  29
ATOM     29  C   UNL     1       6.624   4.081  14.244  0.00  0.00    +0.000 A 
ATOM     30  C   UNL     1       6.152   3.314  13.178  0.00  0.00    +0.000 A 
ATOM     31  C   UNL     1       6.596   3.552  11.877  0.00  0.00    +0.000 A 
ATOM     32  C   UNL     1       7.506   4.575  11.629  0.00  0.00    +0.000 A 
ATOM     33  C   UNL     1       7.962   5.365  12.681  0.00  0.00    +0.000 A 
ATOM     34  C   UNL     1       7.519   5.126  13.985  0.00  0.00    +0.000 A 
ENDBRANCH  26  29
ENDBRANCH  21  23
ENDBRANCH   7  18
TORSDOF 5
ENDMDL
MODEL 6
REMARK VINA RESULT:      -7.2      3.952     11.932
REMARK  Name = 
REMARK  10 active torsions:
REMARK  status: ('A' for Active; 'I' for Inactive)
REMARK    1  A    between atoms: C_1  and  C_2
REMARK    2  A    between atoms: N_4  and  C_5
REMARK    3  A    between atoms: C_8  and  C_9
REMARK    4  A    between atoms: C_9  and  C_10
REMARK    5  A    between atoms: C_9  and  C_11
REMARK    6  A    between atoms: C_9  and  C_12
REMARK    7  A    between atoms: C_15  and  C_16
REMARK    8  A    between atoms: C_17  and  C_18
REMARK    9  A    between atoms: C_21  and  N_22
REMARK   10  A    between atoms: N_25  and  C_26
REMARK                            x       y       z     vdW  Elec       q    Type
REMARK                         _______ _______ _______ _____ _____    ______ ____
ROOT
ATOM      1  C   UNL     1       2.340   9.449  17.555  0.00  0.00    +0.000 C 
ATOM      2  C   UNL     1       1.622   9.439  18.859  0.00  0.00    +0.000 A 
ATOM      3  N   UNL     1       1.149  10.575  19.373  0.00  0.00    +0.000 NA
ATOM      4  N   UNL     1       0.655  10.231  20.593  0.00  0.00    +0.000 N 
ATOM      5  C   UNL     1       0.674   8.853  20.775  0.00  0.00    +0.000 A 
ATOM      6  C   UNL     1       0.022   8.151  21.915  0.00  0.00    +0.000 C 
ATOM      7  C   UNL     1       1.312   8.311  19.666  0.00  0.00    +0.000 A 
ENDROOT
BRANCH   4   8
ATOM      8  C   UNL     1       0.111  11.217  21.465  0.00  0.00    +0.000 A 
ATOM      9  C   UNL     1       0.475  12.556  21.322  0.00  0.00    +0.000 A 
ATOM     10  C   UNL     1      -0.234  13.551  22.018  0.00  0.00    +0.000 A 
ATOM     11  C   UNL     1      -1.298  13.230  22.884  0.00  0.00    +0.000 A 
ATOM     12  C   UNL     1      -1.567  11.866  23.089  0.00  0.00    +0.000 A 
ATOM     13  C   UNL     1      -0.857  10.876  22.412  0.00  0.00    +0.000 A 
BRANCH  11  14
ATOM     14  C   UNL     1      -2.168  14.287  23.589  0.00  0.00    +0.000 C 
ATOM     15  C   UNL     1      -2.724  15.360  22.630  0.00  0.00    +0.000 C 
ATOM     16  C   UNL     1      -3.379  13.605  24.268  0.00  0.00    +0.000 C 
ATOM     17  C   UNL     1      -1.342  15.013  24.673  0.00  0.00    +0.000 C 
ENDBRANCH  11  14
ENDBRANCH   4   8
BRANCH   7  18
ATOM     18  C   UNL     1       1.580   6.872  19.326  0.00  0.00    +0.000 C 
ATOM     19  C   UNL     1       2.538   6.228  20.288  0.00  0.00    +0.000 C 
ATOM     20  C   UNL     1       3.698   5.894  19.709  0.00  0.00    +0.000 C 
ATOM     21  C   UNL     1       3.724   6.277  18.267  0.00  0.00    +0.000 C 
ATOM     22  C   UNL     1       2.259   6.647  17.969  0.00  0.00    +0.000 C 
BRANCH  21  23
ATOM     23  N   UNL     1       4.206   5.169  17.479  0.00  0.00    +0.000 N 
ATOM     24  C   UNL     1       4.875   5.480  16.312  0.00  0.00    +0.000 C 
ATOM     25  O   UNL     1       5.030   6.636  15.942  0.00  0.00    +0.000 OA
ATOM     26  N   UNL     1       5.275   4.344  15.646  0.00  0.00    +0.000 N 
ATOM     27  H   UNL     1       4.613   4.399  17.989  0.00  0.00    +0.000 HD
ATOM     28  H   UNL     1       4.814   3.491  15.926  0.00  0.00    +0.000 HD
BRANCH  26  29
ATOM     29  C   UNL     1       5.986   4.324  14.428  0.00  0.00    +0.000 A 
ATOM     30  C   UNL     1       7.160   5.052  14.222  0.00  0.00    +0.000 A 
ATOM     31  C   UNL     1       7.802   5.034  12.984  0.00  0.00    +0.000 A 
ATOM     32  C   UNL     1       7.283   4.272  11.943  0.00  0.00    +0.000 A 
ATOM     33  C   UNL     1       6.128   3.520  12.145  0.00  0.00    +0.000 A 
ATOM     34  C   UNL     1       5.484   3.538  13.385  0.00  0.00    +0.000 A 
ENDBRANCH  26  29
ENDBRANCH  21  23
ENDBRANCH   7  18
TORSDOF 5
ENDMDL
MODEL 7
REMARK VINA RESULT:      -7.1      6.033     11.204
REMARK  Name = 
REMARK  10 active torsions:
REMARK  status: ('A' for Active; 'I' for Inactive)
REMARK    1  A    between atoms: C_1  and  C_2
REMARK    2  A    between atoms: N_4  and  C_5
REMARK    3  A    between atoms: C_8  and  C_9
REMARK    4  A    between atoms: C_9  and  C_10
REMARK    5  A    between atoms: C_9  and  C_11
REMARK    6  A    between atoms: C_9  and  C_12
REMARK    7  A    between atoms: C_15  and  C_16
REMARK    8  A    between atoms: C_17  and  C_18
REMARK    9  A    between atoms: C_21  and  N_22
REMARK   10  A    between atoms: N_25  and  C_26
REMARK                            x       y       z     vdW  Elec       q    Type
REMARK                         _______ _______ _______ _____ _____    ______ ____
ROOT
ATOM      1  C   UNL     1       2.525  12.399  18.113  0.00  0.00    +0.000 C 
ATOM      2  C   UNL     1       1.239  12.937  18.632  0.00  0.00    +0.000 A 
ATOM      3  N   UNL     1       0.153  12.164  18.670  0.00  0.00    +0.000 NA
ATOM      4  N   UNL     1      -0.849  12.983  19.090  0.00  0.00    +0.000 N 
ATOM      5  C   UNL     1      -0.359  14.228  19.467  0.00  0.00    +0.000 A 
ATOM      6  C   UNL     1      -1.168  15.271  20.155  0.00  0.00    +0.000 C 
ATOM      7  C   UNL     1       0.998  14.232  19.167  0.00  0.00    +0.000 A 
ENDROOT
BRANCH   4   8
ATOM      8  C   UNL     1      -2.186  12.504  19.195  0.00  0.00    +0.000 A 
ATOM      9  C   UNL     1      -2.985  12.886  20.273  0.00  0.00    +0.000 A 
ATOM     10  C   UNL     1      -4.363  12.612  20.253  0.00  0.00    +0.000 A 
ATOM     11  C   UNL     1      -4.965  11.934  19.175  0.00  0.00    +0.000 A 
ATOM     12  C   UNL     1      -4.116  11.467  18.158  0.00  0.00    +0.000 A 
ATOM     13  C   UNL     1      -2.746  11.725  18.181  0.00  0.00    +0.000 A 
BRANCH  11  14
ATOM     14  C   UNL     1      -6.483  11.698  19.062  0.00  0.00    +0.000 C 
ATOM     15  C   UNL     1      -7.277  12.231  20.273  0.00  0.00    +0.000 C 
ATOM     16  C   UNL     1      -7.033  12.409  17.803  0.00  0.00    +0.000 C 
ATOM     17  C   UNL     1      -6.776  10.187  18.940  0.00  0.00    +0.000 C 
ENDBRANCH  11  14
ENDBRANCH   4   8
BRANCH   7  18
ATOM     18  C   UNL     1       2.023  15.308  19.393  0.00  0.00    +0.000 C 
ATOM     19  C   UNL     1       2.236  16.158  18.172  0.00  0.00    +0.000 C 
ATOM     20  C   UNL     1       3.464  16.015  17.657  0.00  0.00    +0.000 C 
ATOM     21  C   UNL     1       4.274  15.029  18.432  0.00  0.00    +0.000 C 
ATOM     22  C   UNL     1       3.435  14.796  19.702  0.00  0.00    +0.000 C 
BRANCH  21  23
ATOM     23  N   UNL     1       5.580  15.580  18.702  0.00  0.00    +0.000 N 
ATOM     24  C   UNL     1       6.655  14.958  18.099  0.00  0.00    +0.000 C 
ATOM     25  O   UNL     1       6.517  13.969  17.390  0.00  0.00    +0.000 OA
ATOM     26  N   UNL     1       7.841  15.565  18.440  0.00  0.00    +0.000 N 
ATOM     27  H   UNL     1       5.648  16.587  18.717  0.00  0.00    +0.000 HD
ATOM     28  H   UNL     1       7.806  16.163  19.252  0.00  0.00    +0.000 HD
BRANCH  26  29
ATOM     29  C   UNL     1       9.117  15.172  17.982  0.00  0.00    +0.000 A 
ATOM     30  C   UNL     1       9.592  13.864  18.091  0.00  0.00    +0.000 A 
ATOM     31  C   UNL     1      10.880  13.535  17.666  0.00  0.00    +0.000 A 
ATOM     32  C   UNL     1      11.697  14.512  17.108  0.00  0.00    +0.000 A 
ATOM     33  C   UNL     1      11.224  15.815  16.968  0.00  0.00    +0.000 A 
ATOM     34  C   UNL     1       9.934  16.144  17.396  0.00  0.00    +0.000 A 
ENDBRANCH  26  29
ENDBRANCH  21  23
ENDBRANCH   7  18
TORSDOF 5
ENDMDL
MODEL 8
REMARK VINA RESULT:      -7.0      3.955     11.939
REMARK  Name = 
REMARK  10 active torsions:
REMARK  status: ('A' for Active; 'I' for Inactive)
REMARK    1  A    between atoms: C_1  and  C_2
REMARK    2  A    between atoms: N_4  and  C_5
REMARK    3  A    between atoms: C_8  and  C_9
REMARK    4  A    between atoms: C_9  and  C_10
REMARK    5  A    between atoms: C_9  and  C_11
REMARK    6  A    between atoms: C_9  and  C_12
REMARK    7  A    between atoms: C_15  and  C_16
REMARK    8  A    between atoms: C_17  and  C_18
REMARK    9  A    between atoms: C_21  and  N_22
REMARK   10  A    between atoms: N_25  and  C_26
REMARK                            x       y       z     vdW  Elec       q    Type
REMARK                         _______ _______ _______ _____ _____    ______ ____
ROOT
ATOM      1  C   UNL     1       2.663   9.325  17.625  0.00  0.00    +0.000 C 
ATOM      2  C   UNL     1       1.745   9.281  18.794  0.00  0.00    +0.000 A 
ATOM      3  N   UNL     1       1.146  10.394  19.221  0.00  0.00    +0.000 NA
ATOM      4  N   UNL     1       0.476  10.025  20.346  0.00  0.00    +0.000 N 
ATOM      5  C   UNL     1       0.524   8.649  20.535  0.00  0.00    +0.000 A 
ATOM      6  C   UNL     1      -0.273   7.916  21.556  0.00  0.00    +0.000 C 
ATOM      7  C   UNL     1       1.357   8.138  19.545  0.00  0.00    +0.000 A 
ENDROOT
BRANCH   4   8
ATOM      8  C   UNL     1      -0.243  10.985  21.115  0.00  0.00    +0.000 A 
ATOM      9  C   UNL     1      -0.778  12.117  20.500  0.00  0.00    +0.000 A 
ATOM     10  C   UNL     1      -1.681  12.932  21.203  0.00  0.00    +0.000 A 
ATOM     11  C   UNL     1      -2.048  12.651  22.534  0.00  0.00    +0.000 A 
ATOM     12  C   UNL     1      -1.408  11.568  23.159  0.00  0.00    +0.000 A 
ATOM     13  C   UNL     1      -0.501  10.765  22.469  0.00  0.00    +0.000 A 
BRANCH  11  14
ATOM     14  C   UNL     1      -3.106  13.455  23.311  0.00  0.00    +0.000 C 
ATOM     15  C   UNL     1      -4.143  14.144  22.400  0.00  0.00    +0.000 C 
ATOM     16  C   UNL     1      -3.883  12.518  24.266  0.00  0.00    +0.000 C 
ATOM     17  C   UNL     1      -2.422  14.555  24.153  0.00  0.00    +0.000 C 
ENDBRANCH  11  14
ENDBRANCH   4   8
BRANCH   7  18
ATOM     18  C   UNL     1       1.737   6.712  19.259  0.00  0.00    +0.000 C 
ATOM     19  C   UNL     1       2.749   6.186  20.237  0.00  0.00    +0.000 C 
ATOM     20  C   UNL     1       3.929   5.923  19.662  0.00  0.00    +0.000 C 
ATOM     21  C   UNL     1       3.916   6.250  18.205  0.00  0.00    +0.000 C 
ATOM     22  C   UNL     1       2.424   6.490  17.906  0.00  0.00    +0.000 C 
BRANCH  21  23
ATOM     23  N   UNL     1       4.481   5.154  17.456  0.00  0.00    +0.000 N 
ATOM     24  C   UNL     1       4.980   5.448  16.203  0.00  0.00    +0.000 C 
ATOM     25  O   UNL     1       4.923   6.576  15.732  0.00  0.00    +0.000 OA
ATOM     26  N   UNL     1       5.480   4.324  15.587  0.00  0.00    +0.000 N 
ATOM     27  H   UNL     1       5.046   4.500  17.977  0.00  0.00    +0.000 HD
ATOM     28  H   UNL     1       5.181   3.444  15.980  0.00  0.00    +0.000 HD
BRANCH  26  29
ATOM     29  C   UNL     1       6.066   4.294  14.304  0.00  0.00    +0.000 A 
ATOM     30  C   UNL     1       5.546   3.541  13.249  0.00  0.00    +0.000 A 
ATOM     31  C   UNL     1       6.189   3.507  12.012  0.00  0.00    +0.000 A 
ATOM     32  C   UNL     1       7.351   4.244  11.813  0.00  0.00    +0.000 A 
ATOM     33  C   UNL     1       7.865   5.021  12.849  0.00  0.00    +0.000 A 
ATOM     34  C   UNL     1       7.221   5.054  14.090  0.00  0.00    +0.000 A 
ENDBRANCH  26  29
ENDBRANCH  21  23
ENDBRANCH   7  18
TORSDOF 5
ENDMDL
MODEL 9
REMARK VINA RESULT:      -7.0      2.695     11.795
REMARK  Name = 
REMARK  10 active torsions:
REMARK  status: ('A' for Active; 'I' for Inactive)
REMARK    1  A    between atoms: C_1  and  C_2
REMARK    2  A    between atoms: N_4  and  C_5
REMARK    3  A    between atoms: C_8  and  C_9
REMARK    4  A    between atoms: C_9  and  C_10
REMARK    5  A    between atoms: C_9  and  C_11
REMARK    6  A    between atoms: C_9  and  C_12
REMARK    7  A    between atoms: C_15  and  C_16
REMARK    8  A    between atoms: C_17  and  C_18
REMARK    9  A    between atoms: C_21  and  N_22
REMARK   10  A    between atoms: N_25  and  C_26
REMARK                            x       y       z     vdW  Elec       q    Type
REMARK                         _______ _______ _______ _____ _____    ______ ____
ROOT
ATOM      1  C   UNL     1      -1.395  10.490  17.764  0.00  0.00    +0.000 C 
ATOM      2  C   UNL     1      -1.686  11.261  19.002  0.00  0.00    +0.000 A 
ATOM      3  N   UNL     1      -2.898  11.780  19.201  0.00  0.00    +0.000 NA
ATOM      4  N   UNL     1      -2.791  12.495  20.353  0.00  0.00    +0.000 N 
ATOM      5  C   UNL     1      -1.557  12.294  20.960  0.00  0.00    +0.000 A 
ATOM      6  C   UNL     1      -1.208  12.774  22.326  0.00  0.00    +0.000 C 
ATOM      7  C   UNL     1      -0.809  11.504  20.094  0.00  0.00    +0.000 A 
ENDROOT
BRANCH   4   8
ATOM      8  C   UNL     1      -3.895  13.246  20.852  0.00  0.00    +0.000 A 
ATOM      9  C   UNL     1      -4.950  12.597  21.494  0.00  0.00    +0.000 A 
ATOM     10  C   UNL     1      -5.912  13.350  22.189  0.00  0.00    +0.000 A 
ATOM     11  C   UNL     1      -5.855  14.757  22.238  0.00  0.00    +0.000 A 
ATOM     12  C   UNL     1      -4.844  15.383  21.491  0.00  0.00    +0.000 A 
ATOM     13  C   UNL     1      -3.895  14.641  20.788  0.00  0.00    +0.000 A 
BRANCH  11  14
ATOM     14  C   UNL     1      -6.826  15.618  23.067  0.00  0.00    +0.000 C 
ATOM     15  C   UNL     1      -6.114  16.550  24.069  0.00  0.00    +0.000 C 
ATOM     16  C   UNL     1      -7.670  16.511  22.128  0.00  0.00    +0.000 C 
ATOM     17  C   UNL     1      -7.782  14.711  23.872  0.00  0.00    +0.000 C 
ENDBRANCH  11  14
ENDBRANCH   4   8
BRANCH   7  18
ATOM     18  C   UNL     1       0.582  10.958  20.260  0.00  0.00    +0.000 C 
ATOM     19  C   UNL     1       1.433  11.193  19.044  0.00  0.00    +0.000 C 
ATOM     20  C   UNL     1       1.770  10.053  18.427  0.00  0.00    +0.000 C 
ATOM     21  C   UNL     1       1.183   8.863  19.112  0.00  0.00    +0.000 C 
ATOM     22  C   UNL     1       0.658   9.438  20.440  0.00  0.00    +0.000 C 
BRANCH  21  23
ATOM     23  N   UNL     1       2.198   7.853  19.285  0.00  0.00    +0.000 N 
ATOM     24  C   UNL     1       2.894   7.469  18.157  0.00  0.00    +0.000 C 
ATOM     25  O   UNL     1       2.648   7.938  17.053  0.00  0.00    +0.000 OA
ATOM     26  N   UNL     1       3.823   6.497  18.448  0.00  0.00    +0.000 N 
ATOM     27  H   UNL     1       2.773   7.932  20.111  0.00  0.00    +0.000 HD
ATOM     28  H   UNL     1       3.691   6.019  19.327  0.00  0.00    +0.000 HD
BRANCH  26  29
ATOM     29  C   UNL     1       4.697   5.902  17.513  0.00  0.00    +0.000 A 
ATOM     30  C   UNL     1       4.356   4.773  16.767  0.00  0.00    +0.000 A 
ATOM     31  C   UNL     1       5.273   4.194  15.889  0.00  0.00    +0.000 A 
ATOM     32  C   UNL     1       6.537   4.754  15.737  0.00  0.00    +0.000 A 
ATOM     33  C   UNL     1       6.879   5.897  16.456  0.00  0.00    +0.000 A 
ATOM     34  C   UNL     1       5.960   6.476  17.336  0.00  0.00    +0.000 A 
ENDBRANCH  26  29
ENDBRANCH  21  23
ENDBRANCH   7  18
TORSDOF 5
ENDMDL
