MODEL 1
REMARK VINA RESULT:      -9.2      0.000      0.000
REMARK  Name = 
REMARK  9 active torsions:
REMARK  status: ('A' for Active; 'I' for Inactive)
REMARK    1  A    between atoms: C_1  and  C_2
REMARK    2  A    between atoms: C_2  and  C_3
REMARK    3  A    between atoms: C_3  and  C_4
REMARK    4  A    between atoms: C_3  and  C_5
REMARK    5  A    between atoms: C_3  and  C_6
REMARK    6  A    between atoms: C_12  and  N_13
REMARK    7  A    between atoms: C_15  and  C_16
REMARK    8  A    between atoms: C_19  and  O_20
REMARK    9  A    between atoms: O_20  and  C_21
REMARK                            x       y       z     vdW  Elec       q    Type
REMARK                         _______ _______ _______ _____ _____    ______ ____
ROOT
ATOM      1  N   UNL     1      -1.436  12.797  19.874  0.00  0.00    +0.000 N 
ATOM      2  N   UNL     1      -1.140  11.483  19.845  0.00  0.00    +0.000 NA
ATOM      3  C   UNL     1       0.124  11.435  19.386  0.00  0.00    +0.000 A 
ATOM      4  C   UNL     1       0.591  12.740  19.024  0.00  0.00    +0.000 A 
ATOM      5  C   UNL     1       1.732  13.346  18.476  0.00  0.00    +0.000 A 
ATOM      6  N   UNL     1       2.872  12.678  18.050  0.00  0.00    +0.000 N 
ATOM      7  N   UNL     1       1.747  14.688  18.328  0.00  0.00    +0.000 NA
ATOM      8  C   UNL     1       0.665  15.393  18.706  0.00  0.00    +0.000 A 
ATOM      9  N   UNL     1      -0.482  14.927  19.226  0.00  0.00    +0.000 NA
ATOM     10  C   UNL     1      -0.450  13.591  19.361  0.00  0.00    +0.000 A 
ATOM     11  H   UNL     1       2.712  11.757  17.663  0.00  0.00    +0.000 HD
ATOM     12  H   UNL     1       3.457  13.293  17.495  0.00  0.00    +0.000 HD
ENDROOT
BRANCH   1  19
ATOM     13  C   UNL     1      -6.331  12.568  20.188  0.00  0.00    +0.000 C 
ATOM     14  O   UNL     1      -7.317  12.917  20.850  0.00  0.00    +0.000 OA
ATOM     15  N   UNL     1      -5.076  12.577  20.787  0.00  0.00    +0.000 N 
ATOM     16  C   UNL     1      -4.993  12.896  22.217  0.00  0.00    +0.000 C 
ATOM     17  C   UNL     1      -3.961  13.991  22.480  0.00  0.00    +0.000 C 
ATOM     18  C   UNL     1      -2.595  13.621  21.902  0.00  0.00    +0.000 C 
ATOM     19  C   UNL     1      -2.711  13.237  20.419  0.00  0.00    +0.000 C 
ATOM     20  C   UNL     1      -3.790  12.168  20.208  0.00  0.00    +0.000 C 
BRANCH  13  21
ATOM     21  C   UNL     1      -6.540  12.143  18.707  0.00  0.00    +0.000 C 
ATOM     22  C   UNL     1      -5.241  12.481  17.920  0.00  0.00    +0.000 C 
ATOM     23  C   UNL     1      -7.646  12.992  18.045  0.00  0.00    +0.000 C 
BRANCH  21  25
ATOM     24  C   UNL     1      -7.029   9.847  19.830  0.00  0.00    +0.000 C 
ATOM     25  C   UNL     1      -6.820  10.626  18.534  0.00  0.00    +0.000 C 
ENDBRANCH  21  25
ENDBRANCH  13  21
ENDBRANCH   1  19
BRANCH   3  26
ATOM     26  C   UNL     1       0.827  10.153  19.330  0.00  0.00    +0.000 A 
ATOM     27  C   UNL     1       1.317   9.657  18.114  0.00  0.00    +0.000 A 
ATOM     28  C   UNL     1       1.990   8.430  18.066  0.00  0.00    +0.000 A 
ATOM     29  C   UNL     1       2.187   7.699  19.235  0.00  0.00    +0.000 A 
ATOM     30  C   UNL     1       1.646   8.151  20.438  0.00  0.00    +0.000 A 
ATOM     31  C   UNL     1       0.975   9.374  20.484  0.00  0.00    +0.000 A 
BRANCH  29  32
ATOM     32  O   UNL     1       2.857   6.504  19.097  0.00  0.00    +0.000 OA
BRANCH  32  33
ATOM     33  C   UNL     1       2.178   5.321  19.299  0.00  0.00    +0.000 A 
ATOM     34  C   UNL     1       1.871   4.586  18.153  0.00  0.00    +0.000 A 
ATOM     35  C   UNL     1       1.211   3.361  18.260  0.00  0.00    +0.000 A 
ATOM     36  C   UNL     1       0.853   2.870  19.515  0.00  0.00    +0.000 A 
ATOM     37  C   UNL     1       1.177   3.592  20.664  0.00  0.00    +0.000 A 
ATOM     38  C   UNL     1       1.862   4.805  20.558  0.00  0.00    +0.000 A 
ENDBRANCH  32  33
ENDBRANCH  29  32
ENDBRANCH   3  26
TORSDOF 6
ENDMDL
MODEL 2
REMARK VINA RESULT:      -9.2      0.340      1.525
REMARK  Name = 
REMARK  9 active torsions:
REMARK  status: ('A' for Active; 'I' for Inactive)
REMARK    1  A    between atoms: C_1  and  C_2
REMARK    2  A    between atoms: C_2  and  C_3
REMARK    3  A    between atoms: C_3  and  C_4
REMARK    4  A    between atoms: C_3  and  C_5
REMARK    5  A    between atoms: C_3  and  C_6
REMARK    6  A    between atoms: C_12  and  N_13
REMARK    7  A    between atoms: C_15  and  C_16
REMARK    8  A    between atoms: C_19  and  O_20
REMARK    9  A    between atoms: O_20  and  C_21
REMARK                            x       y       z     vdW  Elec       q    Type
REMARK                         _______ _______ _______ _____ _____    ______ ____
ROOT
ATOM      1  N   UNL     1      -1.275  12.687  19.896  0.00  0.00    +0.000 N 
ATOM      2  N   UNL     1      -0.971  11.375  19.835  0.00  0.00    +0.000 NA
ATOM      3  C   UNL     1       0.284  11.345  19.351  0.00  0.00    +0.000 A 
ATOM      4  C   UNL     1       0.735  12.659  19.005  0.00  0.00    +0.000 A 
ATOM      5  C   UNL     1       1.861  13.284  18.446  0.00  0.00    +0.000 A 
ATOM      6  N   UNL     1       2.996  12.632  17.985  0.00  0.00    +0.000 N 
ATOM      7  N   UNL     1       1.864  14.628  18.324  0.00  0.00    +0.000 NA
ATOM      8  C   UNL     1       0.785  15.319  18.737  0.00  0.00    +0.000 A 
ATOM      9  N   UNL     1      -0.347  14.834  19.271  0.00  0.00    +0.000 NA
ATOM     10  C   UNL     1      -0.304  13.496  19.379  0.00  0.00    +0.000 A 
ATOM     11  H   UNL     1       2.835  11.718  17.584  0.00  0.00    +0.000 HD
ATOM     12  H   UNL     1       3.566  13.262  17.430  0.00  0.00    +0.000 HD
ENDROOT
BRANCH   1  19
ATOM     13  C   UNL     1      -6.160  12.416  20.304  0.00  0.00    +0.000 C 
ATOM     14  O   UNL     1      -7.136  12.746  20.991  0.00  0.00    +0.000 OA
ATOM     15  N   UNL     1      -4.894  12.423  20.877  0.00  0.00    +0.000 N 
ATOM     16  C   UNL     1      -4.784  12.716  22.311  0.00  0.00    +0.000 C 
ATOM     17  C   UNL     1      -3.755  13.813  22.573  0.00  0.00    +0.000 C 
ATOM     18  C   UNL     1      -2.399  13.464  21.961  0.00  0.00    +0.000 C 
ATOM     19  C   UNL     1      -2.542  13.107  20.474  0.00  0.00    +0.000 C 
ATOM     20  C   UNL     1      -3.617  12.034  20.265  0.00  0.00    +0.000 C 
BRANCH  13  21
ATOM     21  C   UNL     1      -6.397  12.018  18.819  0.00  0.00    +0.000 C 
ATOM     22  C   UNL     1      -7.672  12.754  18.319  0.00  0.00    +0.000 C 
ATOM     23  C   UNL     1      -6.726  10.514  18.701  0.00  0.00    +0.000 C 
BRANCH  21  25
ATOM     24  C   UNL     1      -4.840  11.362  16.839  0.00  0.00    +0.000 C 
ATOM     25  C   UNL     1      -5.222  12.409  17.881  0.00  0.00    +0.000 C 
ENDBRANCH  21  25
ENDBRANCH  13  21
ENDBRANCH   1  19
BRANCH   3  26
ATOM     26  C   UNL     1       0.994  10.069  19.256  0.00  0.00    +0.000 A 
ATOM     27  C   UNL     1       1.166   9.259  20.389  0.00  0.00    +0.000 A 
ATOM     28  C   UNL     1       1.843   8.038  20.293  0.00  0.00    +0.000 A 
ATOM     29  C   UNL     1       2.343   7.614  19.064  0.00  0.00    +0.000 A 
ATOM     30  C   UNL     1       2.236   8.442  17.947  0.00  0.00    +0.000 A 
ATOM     31  C   UNL     1       1.560   9.660  18.044  0.00  0.00    +0.000 A 
BRANCH  29  32
ATOM     32  O   UNL     1       2.997   6.403  19.060  0.00  0.00    +0.000 OA
BRANCH  32  33
ATOM     33  C   UNL     1       2.265   5.239  19.156  0.00  0.00    +0.000 A 
ATOM     34  C   UNL     1       1.895   4.850  20.444  0.00  0.00    +0.000 A 
ATOM     35  C   UNL     1       1.129   3.699  20.638  0.00  0.00    +0.000 A 
ATOM     36  C   UNL     1       0.733   2.934  19.542  0.00  0.00    +0.000 A 
ATOM     37  C   UNL     1       1.082   3.332  18.251  0.00  0.00    +0.000 A 
ATOM     38  C   UNL     1       1.826   4.497  18.056  0.00  0.00    +0.000 A 
ENDBRANCH  32  33
ENDBRANCH  29  32
ENDBRANCH   3  26
TORSDOF 6
ENDMDL
MODEL 3
REMARK VINA RESULT:      -9.2      0.617      1.091
REMARK  Name = 
REMARK  9 active torsions:
REMARK  status: ('A' for Active; 'I' for Inactive)
REMARK    1  A    between atoms: C_1  and  C_2
REMARK    2  A    between atoms: C_2  and  C_3
REMARK    3  A    between atoms: C_3  and  C_4
REMARK    4  A    between atoms: C_3  and  C_5
REMARK    5  A    between atoms: C_3  and  C_6
REMARK    6  A    between atoms: C_12  and  N_13
REMARK    7  A    between atoms: C_15  and  C_16
REMARK    8  A    between atoms: C_19  and  O_20
REMARK    9  A    between atoms: O_20  and  C_21
REMARK                            x       y       z     vdW  Elec       q    Type
REMARK                         _______ _______ _______ _____ _____    ______ ____
ROOT
ATOM      1  N   UNL     1      -1.204  12.825  20.223  0.00  0.00    +0.000 N 
ATOM      2  N   UNL     1      -0.938  11.505  20.169  0.00  0.00    +0.000 NA
ATOM      3  C   UNL     1       0.249  11.427  19.541  0.00  0.00    +0.000 A 
ATOM      4  C   UNL     1       0.684  12.719  19.101  0.00  0.00    +0.000 A 
ATOM      5  C   UNL     1       1.749  13.297  18.392  0.00  0.00    +0.000 A 
ATOM      6  N   UNL     1       2.806  12.602  17.821  0.00  0.00    +0.000 N 
ATOM      7  N   UNL     1       1.767  14.637  18.226  0.00  0.00    +0.000 NA
ATOM      8  C   UNL     1       0.760  15.367  18.742  0.00  0.00    +0.000 A 
ATOM      9  N   UNL     1      -0.311  14.928  19.421  0.00  0.00    +0.000 NA
ATOM     10  C   UNL     1      -0.285  13.593  19.568  0.00  0.00    +0.000 A 
ATOM     11  H   UNL     1       2.578  11.681  17.472  0.00  0.00    +0.000 HD
ATOM     12  H   UNL     1       3.319  13.201  17.182  0.00  0.00    +0.000 HD
ENDROOT
BRANCH   1  19
ATOM     13  C   UNL     1      -5.999  12.647  21.267  0.00  0.00    +0.000 C 
ATOM     14  O   UNL     1      -6.875  13.030  22.053  0.00  0.00    +0.000 OA
ATOM     15  N   UNL     1      -4.669  12.669  21.672  0.00  0.00    +0.000 N 
ATOM     16  C   UNL     1      -4.374  13.040  23.061  0.00  0.00    +0.000 C 
ATOM     17  C   UNL     1      -3.312  14.135  23.126  0.00  0.00    +0.000 C 
ATOM     18  C   UNL     1      -2.048  13.733  22.367  0.00  0.00    +0.000 C 
ATOM     19  C   UNL     1      -2.383  13.295  20.933  0.00  0.00    +0.000 C 
ATOM     20  C   UNL     1      -3.484  12.228  20.926  0.00  0.00    +0.000 C 
BRANCH  13  21
ATOM     21  C   UNL     1      -6.426  12.170  19.850  0.00  0.00    +0.000 C 
ATOM     22  C   UNL     1      -7.646  13.025  19.400  0.00  0.00    +0.000 C 
ATOM     23  C   UNL     1      -6.946  10.717  19.895  0.00  0.00    +0.000 C 
BRANCH  21  25
ATOM     24  C   UNL     1      -5.547  11.590  17.470  0.00  0.00    +0.000 C 
ATOM     25  C   UNL     1      -5.311  12.333  18.781  0.00  0.00    +0.000 C 
ENDBRANCH  21  25
ENDBRANCH  13  21
ENDBRANCH   1  19
BRANCH   3  26
ATOM     26  C   UNL     1       0.913  10.132  19.405  0.00  0.00    +0.000 A 
ATOM     27  C   UNL     1       1.360   9.683  18.153  0.00  0.00    +0.000 A 
ATOM     28  C   UNL     1       1.998   8.443  18.029  0.00  0.00    +0.000 A 
ATOM     29  C   UNL     1       2.202   7.649  19.155  0.00  0.00    +0.000 A 
ATOM     30  C   UNL     1       1.702   8.056  20.392  0.00  0.00    +0.000 A 
ATOM     31  C   UNL     1       1.067   9.293  20.515  0.00  0.00    +0.000 A 
BRANCH  29  32
ATOM     32  O   UNL     1       2.835   6.446  18.943  0.00  0.00    +0.000 OA
BRANCH  32  33
ATOM     33  C   UNL     1       2.160   5.272  19.202  0.00  0.00    +0.000 A 
ATOM     34  C   UNL     1       1.856   4.480  18.094  0.00  0.00    +0.000 A 
ATOM     35  C   UNL     1       1.199   3.260  18.260  0.00  0.00    +0.000 A 
ATOM     36  C   UNL     1       0.842   2.830  19.537  0.00  0.00    +0.000 A 
ATOM     37  C   UNL     1       1.163   3.609  20.650  0.00  0.00    +0.000 A 
ATOM     38  C   UNL     1       1.844   4.817  20.484  0.00  0.00    +0.000 A 
ENDBRANCH  32  33
ENDBRANCH  29  32
ENDBRANCH   3  26
TORSDOF 6
ENDMDL
MODEL 4
REMARK VINA RESULT:      -8.9      0.961      1.478
REMARK  Name = 
REMARK  9 active torsions:
REMARK  status: ('A' for Active; 'I' for Inactive)
REMARK    1  A    between atoms: C_1  and  C_2
REMARK    2  A    between atoms: C_2  and  C_3
REMARK    3  A    between atoms: C_3  and  C_4
REMARK    4  A    between atoms: C_3  and  C_5
REMARK    5  A    between atoms: C_3  and  C_6
REMARK    6  A    between atoms: C_12  and  N_13
REMARK    7  A    between atoms: C_15  and  C_16
REMARK    8  A    between atoms: C_19  and  O_20
REMARK    9  A    between atoms: O_20  and  C_21
REMARK                            x       y       z     vdW  Elec       q    Type
REMARK                         _______ _______ _______ _____ _____    ______ ____
ROOT
ATOM      1  N   UNL     1      -1.031  12.752  20.684  0.00  0.00    +0.000 N 
ATOM      2  N   UNL     1      -0.764  11.435  20.570  0.00  0.00    +0.000 NA
ATOM      3  C   UNL     1       0.310  11.380  19.762  0.00  0.00    +0.000 A 
ATOM      4  C   UNL     1       0.658  12.683  19.279  0.00  0.00    +0.000 A 
ATOM      5  C   UNL     1       1.593  13.282  18.420  0.00  0.00    +0.000 A 
ATOM      6  N   UNL     1       2.554  12.608  17.680  0.00  0.00    +0.000 N 
ATOM      7  N   UNL     1       1.572  14.624  18.273  0.00  0.00    +0.000 NA
ATOM      8  C   UNL     1       0.652  15.336  18.951  0.00  0.00    +0.000 A 
ATOM      9  N   UNL     1      -0.295  14.876  19.784  0.00  0.00    +0.000 NA
ATOM     10  C   UNL     1      -0.233  13.539  19.905  0.00  0.00    +0.000 A 
ATOM     11  H   UNL     1       2.283  11.688  17.358  0.00  0.00    +0.000 HD
ATOM     12  H   UNL     1       2.955  13.220  16.978  0.00  0.00    +0.000 HD
ENDROOT
BRANCH   1  19
ATOM     13  C   UNL     1      -5.745  13.030  22.030  0.00  0.00    +0.000 C 
ATOM     14  O   UNL     1      -6.515  13.329  22.951  0.00  0.00    +0.000 OA
ATOM     15  N   UNL     1      -4.414  12.753  22.322  0.00  0.00    +0.000 N 
ATOM     16  C   UNL     1      -4.008  12.718  23.732  0.00  0.00    +0.000 C 
ATOM     17  C   UNL     1      -2.779  13.592  23.974  0.00  0.00    +0.000 C 
ATOM     18  C   UNL     1      -1.629  13.210  23.043  0.00  0.00    +0.000 C 
ATOM     19  C   UNL     1      -2.088  13.199  21.577  0.00  0.00    +0.000 C 
ATOM     20  C   UNL     1      -3.348  12.342  21.400  0.00  0.00    +0.000 C 
BRANCH  13  21
ATOM     21  C   UNL     1      -6.301  12.991  20.578  0.00  0.00    +0.000 C 
ATOM     22  C   UNL     1      -5.564  14.081  19.748  0.00  0.00    +0.000 C 
ATOM     23  C   UNL     1      -7.789  13.400  20.550  0.00  0.00    +0.000 C 
BRANCH  21  25
ATOM     24  C   UNL     1      -5.806  11.701  18.372  0.00  0.00    +0.000 C 
ATOM     25  C   UNL     1      -6.082  11.625  19.871  0.00  0.00    +0.000 C 
ENDBRANCH  21  25
ENDBRANCH  13  21
ENDBRANCH   1  19
BRANCH   3  26
ATOM     26  C   UNL     1       0.957  10.094  19.505  0.00  0.00    +0.000 A 
ATOM     27  C   UNL     1       1.310   9.718  18.200  0.00  0.00    +0.000 A 
ATOM     28  C   UNL     1       1.931   8.487  17.959  0.00  0.00    +0.000 A 
ATOM     29  C   UNL     1       2.214   7.630  19.020  0.00  0.00    +0.000 A 
ATOM     30  C   UNL     1       1.807   7.966  20.312  0.00  0.00    +0.000 A 
ATOM     31  C   UNL     1       1.188   9.194  20.551  0.00  0.00    +0.000 A 
BRANCH  29  32
ATOM     32  O   UNL     1       2.824   6.441  18.694  0.00  0.00    +0.000 OA
BRANCH  32  33
ATOM     33  C   UNL     1       2.184   5.253  18.977  0.00  0.00    +0.000 A 
ATOM     34  C   UNL     1       1.952   4.985  20.326  0.00  0.00    +0.000 A 
ATOM     35  C   UNL     1       1.285   3.819  20.707  0.00  0.00    +0.000 A 
ATOM     36  C   UNL     1       0.851   2.917  19.738  0.00  0.00    +0.000 A 
ATOM     37  C   UNL     1       1.061   3.192  18.386  0.00  0.00    +0.000 A 
ATOM     38  C   UNL     1       1.705   4.371  18.005  0.00  0.00    +0.000 A 
ENDBRANCH  32  33
ENDBRANCH  29  32
ENDBRANCH   3  26
TORSDOF 6
ENDMDL
MODEL 5
REMARK VINA RESULT:      -8.9      0.430      1.373
REMARK  Name = 
REMARK  9 active torsions:
REMARK  status: ('A' for Active; 'I' for Inactive)
REMARK    1  A    between atoms: C_1  and  C_2
REMARK    2  A    between atoms: C_2  and  C_3
REMARK    3  A    between atoms: C_3  and  C_4
REMARK    4  A    between atoms: C_3  and  C_5
REMARK    5  A    between atoms: C_3  and  C_6
REMARK    6  A    between atoms: C_12  and  N_13
REMARK    7  A    between atoms: C_15  and  C_16
REMARK    8  A    between atoms: C_19  and  O_20
REMARK    9  A    between atoms: O_20  and  C_21
REMARK                            x       y       z     vdW  Elec       q    Type
REMARK                         _______ _______ _______ _____ _____    ______ ____
ROOT
ATOM      1  N   UNL     1      -1.276  12.733  20.084  0.00  0.00    +0.000 N 
ATOM      2  N   UNL     1      -0.980  11.419  20.025  0.00  0.00    +0.000 NA
ATOM      3  C   UNL     1       0.228  11.375  19.434  0.00  0.00    +0.000 A 
ATOM      4  C   UNL     1       0.649  12.681  19.023  0.00  0.00    +0.000 A 
ATOM      5  C   UNL     1       1.723  13.290  18.355  0.00  0.00    +0.000 A 
ATOM      6  N   UNL     1       2.813  12.626  17.811  0.00  0.00    +0.000 N 
ATOM      7  N   UNL     1       1.717  14.632  18.205  0.00  0.00    +0.000 NA
ATOM      8  C   UNL     1       0.678  15.334  18.696  0.00  0.00    +0.000 A 
ATOM      9  N   UNL     1      -0.404  14.864  19.336  0.00  0.00    +0.000 NA
ATOM     10  C   UNL     1      -0.353  13.529  19.468  0.00  0.00    +0.000 A 
ATOM     11  H   UNL     1       2.616  11.704  17.444  0.00  0.00    +0.000 HD
ATOM     12  H   UNL     1       3.333  13.242  17.196  0.00  0.00    +0.000 HD
ENDROOT
BRANCH   1  19
ATOM     13  C   UNL     1      -6.121  12.546  20.857  0.00  0.00    +0.000 C 
ATOM     14  O   UNL     1      -7.035  12.885  21.620  0.00  0.00    +0.000 OA
ATOM     15  N   UNL     1      -4.815  12.523  21.333  0.00  0.00    +0.000 N 
ATOM     16  C   UNL     1      -4.592  12.796  22.758  0.00  0.00    +0.000 C 
ATOM     17  C   UNL     1      -3.525  13.871  22.954  0.00  0.00    +0.000 C 
ATOM     18  C   UNL     1      -2.226  13.504  22.237  0.00  0.00    +0.000 C 
ATOM     19  C   UNL     1      -2.487  13.169  20.761  0.00  0.00    +0.000 C 
ATOM     20  C   UNL     1      -3.596  12.118  20.623  0.00  0.00    +0.000 C 
BRANCH  13  21
ATOM     21  C   UNL     1      -6.476  12.171  19.391  0.00  0.00    +0.000 C 
ATOM     22  C   UNL     1      -6.889  10.671  19.362  0.00  0.00    +0.000 C 
ATOM     23  C   UNL     1      -5.230  12.264  18.484  0.00  0.00    +0.000 C 
BRANCH  21  25
ATOM     24  C   UNL     1      -7.464  13.494  17.379  0.00  0.00    +0.000 C 
ATOM     25  C   UNL     1      -7.654  13.000  18.810  0.00  0.00    +0.000 C 
ENDBRANCH  21  25
ENDBRANCH  13  21
ENDBRANCH   1  19
BRANCH   3  26
ATOM     26  C   UNL     1       0.925  10.096  19.305  0.00  0.00    +0.000 A 
ATOM     27  C   UNL     1       1.174   9.298  20.432  0.00  0.00    +0.000 A 
ATOM     28  C   UNL     1       1.839   8.073  20.303  0.00  0.00    +0.000 A 
ATOM     29  C   UNL     1       2.250   7.634  19.047  0.00  0.00    +0.000 A 
ATOM     30  C   UNL     1       2.068   8.449  17.931  0.00  0.00    +0.000 A 
ATOM     31  C   UNL     1       1.404   9.670  18.060  0.00  0.00    +0.000 A 
BRANCH  29  32
ATOM     32  O   UNL     1       2.898   6.420  19.011  0.00  0.00    +0.000 OA
BRANCH  32  33
ATOM     33  C   UNL     1       2.183   5.264  19.241  0.00  0.00    +0.000 A 
ATOM     34  C   UNL     1       1.863   4.505  18.114  0.00  0.00    +0.000 A 
ATOM     35  C   UNL     1       1.165   3.304  18.251  0.00  0.00    +0.000 A 
ATOM     36  C   UNL     1       0.784   2.861  19.516  0.00  0.00    +0.000 A 
ATOM     37  C   UNL     1       1.121   3.605  20.646  0.00  0.00    +0.000 A 
ATOM     38  C   UNL     1       1.843   4.793  20.511  0.00  0.00    +0.000 A 
ENDBRANCH  32  33
ENDBRANCH  29  32
ENDBRANCH   3  26
TORSDOF 6
ENDMDL
MODEL 6
REMARK VINA RESULT:      -8.8      1.167      1.962
REMARK  Name = 
REMARK  9 active torsions:
REMARK  status: ('A' for Active; 'I' for Inactive)
REMARK    1  A    between atoms: C_1  and  C_2
REMARK    2  A    between atoms: C_2  and  C_3
REMARK    3  A    between atoms: C_3  and  C_4
REMARK    4  A    between atoms: C_3  and  C_5
REMARK    5  A    between atoms: C_3  and  C_6
REMARK    6  A    between atoms: C_12  and  N_13
REMARK    7  A    between atoms: C_15  and  C_16
REMARK    8  A    between atoms: C_19  and  O_20
REMARK    9  A    between atoms: O_20  and  C_21
REMARK                            x       y       z     vdW  Elec       q    Type
REMARK                         _______ _______ _______ _____ _____    ______ ____
ROOT
ATOM      1  N   UNL     1      -0.854  12.620  20.700  0.00  0.00    +0.000 N 
ATOM      2  N   UNL     1      -0.632  11.299  20.552  0.00  0.00    +0.000 NA
ATOM      3  C   UNL     1       0.439  11.228  19.740  0.00  0.00    +0.000 A 
ATOM      4  C   UNL     1       0.830  12.530  19.290  0.00  0.00    +0.000 A 
ATOM      5  C   UNL     1       1.784  13.119  18.445  0.00  0.00    +0.000 A 
ATOM      6  N   UNL     1       2.721  12.432  17.686  0.00  0.00    +0.000 N 
ATOM      7  N   UNL     1       1.808  14.464  18.333  0.00  0.00    +0.000 NA
ATOM      8  C   UNL     1       0.914  15.189  19.031  0.00  0.00    +0.000 A 
ATOM      9  N   UNL     1      -0.047  14.740  19.853  0.00  0.00    +0.000 NA
ATOM     10  C   UNL     1      -0.031  13.400  19.940  0.00  0.00    +0.000 A 
ATOM     11  H   UNL     1       2.418  11.531  17.341  0.00  0.00    +0.000 HD
ATOM     12  H   UNL     1       3.141  13.048  16.999  0.00  0.00    +0.000 HD
ENDROOT
BRANCH   1  19
ATOM     13  C   UNL     1      -5.551  12.997  22.079  0.00  0.00    +0.000 C 
ATOM     14  O   UNL     1      -6.309  13.300  23.010  0.00  0.00    +0.000 OA
ATOM     15  N   UNL     1      -4.227  12.681  22.358  0.00  0.00    +0.000 N 
ATOM     16  C   UNL     1      -3.813  12.613  23.765  0.00  0.00    +0.000 C 
ATOM     17  C   UNL     1      -2.561  13.452  24.014  0.00  0.00    +0.000 C 
ATOM     18  C   UNL     1      -1.427  13.055  23.070  0.00  0.00    +0.000 C 
ATOM     19  C   UNL     1      -1.894  13.079  21.607  0.00  0.00    +0.000 C 
ATOM     20  C   UNL     1      -3.177  12.258  21.424  0.00  0.00    +0.000 C 
BRANCH  13  21
ATOM     21  C   UNL     1      -6.117  12.994  20.630  0.00  0.00    +0.000 C 
ATOM     22  C   UNL     1      -7.657  13.193  20.712  0.00  0.00    +0.000 C 
ATOM     23  C   UNL     1      -5.922  11.614  19.968  0.00  0.00    +0.000 C 
BRANCH  21  25
ATOM     24  C   UNL     1      -5.380  15.483  20.427  0.00  0.00    +0.000 C 
ATOM     25  C   UNL     1      -5.537  14.128  19.741  0.00  0.00    +0.000 C 
ENDBRANCH  21  25
ENDBRANCH  13  21
ENDBRANCH   1  19
BRANCH   3  26
ATOM     26  C   UNL     1       1.042   9.928  19.449  0.00  0.00    +0.000 A 
ATOM     27  C   UNL     1       1.261   8.994  20.472  0.00  0.00    +0.000 A 
ATOM     28  C   UNL     1       1.836   7.749  20.187  0.00  0.00    +0.000 A 
ATOM     29  C   UNL     1       2.186   7.428  18.878  0.00  0.00    +0.000 A 
ATOM     30  C   UNL     1       2.034   8.375  17.865  0.00  0.00    +0.000 A 
ATOM     31  C   UNL     1       1.459   9.614  18.150  0.00  0.00    +0.000 A 
BRANCH  29  32
ATOM     32  O   UNL     1       2.747   6.186  18.687  0.00  0.00    +0.000 OA
BRANCH  32  33
ATOM     33  C   UNL     1       2.227   5.099  19.356  0.00  0.00    +0.000 A 
ATOM     34  C   UNL     1       1.450   4.223  18.597  0.00  0.00    +0.000 A 
ATOM     35  C   UNL     1       0.905   3.079  19.182  0.00  0.00    +0.000 A 
ATOM     36  C   UNL     1       1.134   2.810  20.530  0.00  0.00    +0.000 A 
ATOM     37  C   UNL     1       1.929   3.671  21.287  0.00  0.00    +0.000 A 
ATOM     38  C   UNL     1       2.496   4.801  20.695  0.00  0.00    +0.000 A 
ENDBRANCH  32  33
ENDBRANCH  29  32
ENDBRANCH   3  26
TORSDOF 6
ENDMDL
MODEL 7
REMARK VINA RESULT:      -8.7      1.315      3.126
REMARK  Name = 
REMARK  9 active torsions:
REMARK  status: ('A' for Active; 'I' for Inactive)
REMARK    1  A    between atoms: C_1  and  C_2
REMARK    2  A    between atoms: C_2  and  C_3
REMARK    3  A    between atoms: C_3  and  C_4
REMARK    4  A    between atoms: C_3  and  C_5
REMARK    5  A    between atoms: C_3  and  C_6
REMARK    6  A    between atoms: C_12  and  N_13
REMARK    7  A    between atoms: C_15  and  C_16
REMARK    8  A    between atoms: C_19  and  O_20
REMARK    9  A    between atoms: O_20  and  C_21
REMARK                            x       y       z     vdW  Elec       q    Type
REMARK                         _______ _______ _______ _____ _____    ______ ____
ROOT
ATOM      1  N   UNL     1      -1.637  12.224  19.778  0.00  0.00    +0.000 N 
ATOM      2  N   UNL     1      -1.253  10.934  19.713  0.00  0.00    +0.000 NA
ATOM      3  C   UNL     1       0.030  10.986  19.311  0.00  0.00    +0.000 A 
ATOM      4  C   UNL     1       0.424  12.332  19.020  0.00  0.00    +0.000 A 
ATOM      5  C   UNL     1       1.545  13.033  18.549  0.00  0.00    +0.000 A 
ATOM      6  N   UNL     1       2.744  12.458  18.151  0.00  0.00    +0.000 N 
ATOM      7  N   UNL     1       1.477  14.377  18.453  0.00  0.00    +0.000 NA
ATOM      8  C   UNL     1       0.335  14.996  18.807  0.00  0.00    +0.000 A 
ATOM      9  N   UNL     1      -0.799  14.435  19.256  0.00  0.00    +0.000 NA
ATOM     10  C   UNL     1      -0.684  13.100  19.342  0.00  0.00    +0.000 A 
ATOM     11  H   UNL     1       2.663  11.545  17.722  0.00  0.00    +0.000 HD
ATOM     12  H   UNL     1       3.310  13.132  17.646  0.00  0.00    +0.000 HD
ENDROOT
BRANCH   1  19
ATOM     13  C   UNL     1      -4.688  14.952  22.491  0.00  0.00    +0.000 C 
ATOM     14  O   UNL     1      -5.876  15.229  22.704  0.00  0.00    +0.000 OA
ATOM     15  N   UNL     1      -4.335  14.368  21.280  0.00  0.00    +0.000 N 
ATOM     16  C   UNL     1      -5.377  14.207  20.258  0.00  0.00    +0.000 C 
ATOM     17  C   UNL     1      -5.416  12.775  19.731  0.00  0.00    +0.000 C 
ATOM     18  C   UNL     1      -4.047  12.331  19.217  0.00  0.00    +0.000 C 
ATOM     19  C   UNL     1      -2.961  12.558  20.280  0.00  0.00    +0.000 C 
ATOM     20  C   UNL     1      -2.996  13.999  20.805  0.00  0.00    +0.000 C 
BRANCH  13  21
ATOM     21  C   UNL     1      -3.642  15.262  23.599  0.00  0.00    +0.000 C 
ATOM     22  C   UNL     1      -4.360  16.043  24.737  0.00  0.00    +0.000 C 
ATOM     23  C   UNL     1      -2.555  16.224  23.072  0.00  0.00    +0.000 C 
BRANCH  21  25
ATOM     24  C   UNL     1      -3.988  12.867  24.558  0.00  0.00    +0.000 C 
ATOM     25  C   UNL     1      -3.008  13.988  24.222  0.00  0.00    +0.000 C 
ENDBRANCH  21  25
ENDBRANCH  13  21
ENDBRANCH   1  19
BRANCH   3  26
ATOM     26  C   UNL     1       0.817   9.756  19.239  0.00  0.00    +0.000 A 
ATOM     27  C   UNL     1       1.102   9.018  20.397  0.00  0.00    +0.000 A 
ATOM     28  C   UNL     1       1.854   7.840  20.323  0.00  0.00    +0.000 A 
ATOM     29  C   UNL     1       2.317   7.387  19.090  0.00  0.00    +0.000 A 
ATOM     30  C   UNL     1       2.097   8.148  17.942  0.00  0.00    +0.000 A 
ATOM     31  C   UNL     1       1.346   9.322  18.018  0.00  0.00    +0.000 A 
BRANCH  29  32
ATOM     32  O   UNL     1       3.049   6.222  19.108  0.00  0.00    +0.000 OA
BRANCH  32  33
ATOM     33  C   UNL     1       2.411   5.025  19.355  0.00  0.00    +0.000 A 
ATOM     34  C   UNL     1       1.884   4.368  18.242  0.00  0.00    +0.000 A 
ATOM     35  C   UNL     1       1.245   3.136  18.391  0.00  0.00    +0.000 A 
ATOM     36  C   UNL     1       1.130   2.559  19.654  0.00  0.00    +0.000 A 
ATOM     37  C   UNL     1       1.675   3.202  20.766  0.00  0.00    +0.000 A 
ATOM     38  C   UNL     1       2.337   4.422  20.613  0.00  0.00    +0.000 A 
ENDBRANCH  32  33
ENDBRANCH  29  32
ENDBRANCH   3  26
TORSDOF 6
ENDMDL
MODEL 8
REMARK VINA RESULT:      -8.6      1.409      1.832
REMARK  Name = 
REMARK  9 active torsions:
REMARK  status: ('A' for Active; 'I' for Inactive)
REMARK    1  A    between atoms: C_1  and  C_2
REMARK    2  A    between atoms: C_2  and  C_3
REMARK    3  A    between atoms: C_3  and  C_4
REMARK    4  A    between atoms: C_3  and  C_5
REMARK    5  A    between atoms: C_3  and  C_6
REMARK    6  A    between atoms: C_12  and  N_13
REMARK    7  A    between atoms: C_15  and  C_16
REMARK    8  A    between atoms: C_19  and  O_20
REMARK    9  A    between atoms: O_20  and  C_21
REMARK                            x       y       z     vdW  Elec       q    Type
REMARK                         _______ _______ _______ _____ _____    ______ ____
ROOT
ATOM      1  N   UNL     1      -1.427  12.708  20.969  0.00  0.00    +0.000 N 
ATOM      2  N   UNL     1      -1.080  11.408  20.895  0.00  0.00    +0.000 NA
ATOM      3  C   UNL     1      -0.026  11.390  20.059  0.00  0.00    +0.000 A 
ATOM      4  C   UNL     1       0.226  12.693  19.520  0.00  0.00    +0.000 A 
ATOM      5  C   UNL     1       1.099  13.317  18.615  0.00  0.00    +0.000 A 
ATOM      6  N   UNL     1       2.081  12.677  17.873  0.00  0.00    +0.000 N 
ATOM      7  N   UNL     1       0.988  14.649  18.421  0.00  0.00    +0.000 NA
ATOM      8  C   UNL     1       0.043  15.326  19.099  0.00  0.00    +0.000 A 
ATOM      9  N   UNL     1      -0.851  14.839  19.973  0.00  0.00    +0.000 NA
ATOM     10  C   UNL     1      -0.701  13.515  20.140  0.00  0.00    +0.000 A 
ATOM     11  H   UNL     1       1.861  11.731  17.591  0.00  0.00    +0.000 HD
ATOM     12  H   UNL     1       2.424  13.287  17.138  0.00  0.00    +0.000 HD
ENDROOT
BRANCH   1  19
ATOM     13  C   UNL     1      -5.922  14.464  21.873  0.00  0.00    +0.000 C 
ATOM     14  O   UNL     1      -6.789  14.619  22.744  0.00  0.00    +0.000 OA
ATOM     15  N   UNL     1      -4.932  13.507  22.066  0.00  0.00    +0.000 N 
ATOM     16  C   UNL     1      -5.025  12.643  23.249  0.00  0.00    +0.000 C 
ATOM     17  C   UNL     1      -3.712  12.631  24.029  0.00  0.00    +0.000 C 
ATOM     18  C   UNL     1      -2.535  12.242  23.134  0.00  0.00    +0.000 C 
ATOM     19  C   UNL     1      -2.487  13.121  21.875  0.00  0.00    +0.000 C 
ATOM     20  C   UNL     1      -3.843  13.131  21.157  0.00  0.00    +0.000 C 
BRANCH  13  21
ATOM     21  C   UNL     1      -5.974  15.359  20.603  0.00  0.00    +0.000 C 
ATOM     22  C   UNL     1      -4.608  16.092  20.472  0.00  0.00    +0.000 C 
ATOM     23  C   UNL     1      -7.020  16.482  20.767  0.00  0.00    +0.000 C 
BRANCH  21  25
ATOM     24  C   UNL     1      -7.308  13.499  19.365  0.00  0.00    +0.000 C 
ATOM     25  C   UNL     1      -6.213  14.559  19.294  0.00  0.00    +0.000 C 
ENDBRANCH  21  25
ENDBRANCH  13  21
ENDBRANCH   1  19
BRANCH   3  26
ATOM     26  C   UNL     1       0.695  10.138  19.829  0.00  0.00    +0.000 A 
ATOM     27  C   UNL     1       1.069   9.754  18.533  0.00  0.00    +0.000 A 
ATOM     28  C   UNL     1       1.761   8.556  18.318  0.00  0.00    +0.000 A 
ATOM     29  C   UNL     1       2.093   7.741  19.398  0.00  0.00    +0.000 A 
ATOM     30  C   UNL     1       1.668   8.082  20.682  0.00  0.00    +0.000 A 
ATOM     31  C   UNL     1       0.979   9.276  20.895  0.00  0.00    +0.000 A 
BRANCH  29  32
ATOM     32  O   UNL     1       2.771   6.582  19.098  0.00  0.00    +0.000 OA
BRANCH  32  33
ATOM     33  C   UNL     1       2.138   5.368  19.254  0.00  0.00    +0.000 A 
ATOM     34  C   UNL     1       1.966   4.610  18.095  0.00  0.00    +0.000 A 
ATOM     35  C   UNL     1       1.360   3.354  18.160  0.00  0.00    +0.000 A 
ATOM     36  C   UNL     1       0.922   2.854  19.385  0.00  0.00    +0.000 A 
ATOM     37  C   UNL     1       1.112   3.600  20.549  0.00  0.00    +0.000 A 
ATOM     38  C   UNL     1       1.742   4.844  20.487  0.00  0.00    +0.000 A 
ENDBRANCH  32  33
ENDBRANCH  29  32
ENDBRANCH   3  26
TORSDOF 6
ENDMDL
MODEL 9
REMARK VINA RESULT:      -8.6      1.668      2.497
REMARK  Name = 
REMARK  9 active torsions:
REMARK  status: ('A' for Active; 'I' for Inactive)
REMARK    1  A    between atoms: C_1  and  C_2
REMARK    2  A    between atoms: C_2  and  C_3
REMARK    3  A    between atoms: C_3  and  C_4
REMARK    4  A    between atoms: C_3  and  C_5
REMARK    5  A    between atoms: C_3  and  C_6
REMARK    6  A    between atoms: C_12  and  N_13
REMARK    7  A    between atoms: C_15  and  C_16
REMARK    8  A    between atoms: C_19  and  O_20
REMARK    9  A    between atoms: O_20  and  C_21
REMARK                            x       y       z     vdW  Elec       q    Type
REMARK                         _______ _______ _______ _____ _____    ______ ____
ROOT
ATOM      1  N   UNL     1      -1.399  12.616  21.035  0.00  0.00    +0.000 N 
ATOM      2  N   UNL     1      -1.036  11.319  20.990  0.00  0.00    +0.000 NA
ATOM      3  C   UNL     1       0.009  11.295  20.143  0.00  0.00    +0.000 A 
ATOM      4  C   UNL     1       0.237  12.587  19.569  0.00  0.00    +0.000 A 
ATOM      5  C   UNL     1       1.092  13.200  18.638  0.00  0.00    +0.000 A 
ATOM      6  N   UNL     1       2.075  12.555  17.902  0.00  0.00    +0.000 N 
ATOM      7  N   UNL     1       0.961  14.525  18.413  0.00  0.00    +0.000 NA
ATOM      8  C   UNL     1       0.014  15.206  19.084  0.00  0.00    +0.000 A 
ATOM      9  N   UNL     1      -0.864  14.729  19.981  0.00  0.00    +0.000 NA
ATOM     10  C   UNL     1      -0.694  13.411  20.178  0.00  0.00    +0.000 A 
ATOM     11  H   UNL     1       1.864  11.600  17.646  0.00  0.00    +0.000 HD
ATOM     12  H   UNL     1       2.401  13.151  17.148  0.00  0.00    +0.000 HD
ENDROOT
BRANCH   1  19
ATOM     13  C   UNL     1      -5.797  14.598  21.953  0.00  0.00    +0.000 C 
ATOM     14  O   UNL     1      -6.675  14.753  22.812  0.00  0.00    +0.000 OA
ATOM     15  N   UNL     1      -4.875  13.569  22.104  0.00  0.00    +0.000 N 
ATOM     16  C   UNL     1      -5.055  12.637  23.224  0.00  0.00    +0.000 C 
ATOM     17  C   UNL     1      -3.767  12.489  24.031  0.00  0.00    +0.000 C 
ATOM     18  C   UNL     1      -2.593  12.083  23.139  0.00  0.00    +0.000 C 
ATOM     19  C   UNL     1      -2.456  13.037  21.943  0.00  0.00    +0.000 C 
ATOM     20  C   UNL     1      -3.788  13.182  21.197  0.00  0.00    +0.000 C 
BRANCH  13  21
ATOM     21  C   UNL     1      -5.758  15.576  20.744  0.00  0.00    +0.000 C 
ATOM     22  C   UNL     1      -6.793  16.708  21.005  0.00  0.00    +0.000 C 
ATOM     23  C   UNL     1      -6.241  14.875  19.457  0.00  0.00    +0.000 C 
BRANCH  21  25
ATOM     24  C   UNL     1      -3.790  16.947  21.755  0.00  0.00    +0.000 C 
ATOM     25  C   UNL     1      -4.370  16.240  20.533  0.00  0.00    +0.000 C 
ENDBRANCH  21  25
ENDBRANCH  13  21
ENDBRANCH   1  19
BRANCH   3  26
ATOM     26  C   UNL     1       0.745  10.048  19.936  0.00  0.00    +0.000 A 
ATOM     27  C   UNL     1       1.191   9.682  18.657  0.00  0.00    +0.000 A 
ATOM     28  C   UNL     1       1.896   8.488  18.465  0.00  0.00    +0.000 A 
ATOM     29  C   UNL     1       2.170   7.659  19.550  0.00  0.00    +0.000 A 
ATOM     30  C   UNL     1       1.674   7.981  20.813  0.00  0.00    +0.000 A 
ATOM     31  C   UNL     1       0.971   9.171  21.004  0.00  0.00    +0.000 A 
BRANCH  29  32
ATOM     32  O   UNL     1       2.866   6.505  19.272  0.00  0.00    +0.000 OA
BRANCH  32  33
ATOM     33  C   UNL     1       2.206   5.295  19.289  0.00  0.00    +0.000 A 
ATOM     34  C   UNL     1       1.844   4.810  20.547  0.00  0.00    +0.000 A 
ATOM     35  C   UNL     1       1.147   3.606  20.662  0.00  0.00    +0.000 A 
ATOM     36  C   UNL     1       0.812   2.884  19.518  0.00  0.00    +0.000 A 
ATOM     37  C   UNL     1       1.152   3.376  18.258  0.00  0.00    +0.000 A 
ATOM     38  C   UNL     1       1.826   4.594  18.142  0.00  0.00    +0.000 A 
ENDBRANCH  32  33
ENDBRANCH  29  32
ENDBRANCH   3  26
TORSDOF 6
ENDMDL
