MODEL 1
REMARK VINA RESULT:      -5.9      0.000      0.000
REMARK  Name = 
REMARK  2 active torsions:
REMARK  status: ('A' for Active; 'I' for Inactive)
REMARK    1  A    between atoms: C_2  and  C_3
REMARK    2  A    between atoms: C_6  and  C_7
REMARK                            x       y       z     vdW  Elec       q    Type
REMARK                         _______ _______ _______ _____ _____    ______ ____
ROOT
ATOM      1  C   UNL     1       3.307   2.761  20.754  0.00  0.00    +0.000 A 
ATOM      2  C   UNL     1       4.274   1.786  20.637  0.00  0.00    +0.000 A 
ATOM      3  N   UNL     1       5.172   2.291  19.737  0.00  0.00    +0.000 N 
ATOM      4  C   UNL     1       4.741   3.541  19.372  0.00  0.00    +0.000 A 
ATOM      5  N   UNL     1       3.625   3.865  19.993  0.00  0.00    +0.000 NA
ATOM      6  H   UNL     1       6.009   1.846  19.378  0.00  0.00    +0.000 HD
ENDROOT
BRANCH   4   7
ATOM      7  C   UNL     1       5.426   4.342  18.420  0.00  0.00    +0.000 A 
ATOM      8  N   UNL     1       5.918   5.543  18.647  0.00  0.00    +0.000 NA
ATOM      9  C   UNL     1       6.531   5.906  17.469  0.00  0.00    +0.000 A 
ATOM     10 BR   UNL     1       7.478   7.525  17.296  0.00  0.00    +0.000 Br
ATOM     11  C   UNL     1       6.354   4.935  16.513  0.00  0.00    +0.000 A 
ATOM     12 BR   UNL     1       6.901   4.931  14.739  0.00  0.00    +0.000 Br
ATOM     13  N   UNL     1       5.672   3.932  17.137  0.00  0.00    +0.000 N 
ATOM     14  H   UNL     1       5.380   3.049  16.741  0.00  0.00    +0.000 HD
ENDBRANCH   4   7
BRANCH   1  16
ATOM     15  N   UNL     1       1.105   2.615  22.119  0.00  0.00    +0.000 NA
ATOM     16  C   UNL     1       2.101   2.690  21.520  0.00  0.00    +0.000 C 
ENDBRANCH   1  16
TORSDOF 2
ENDMDL
MODEL 2
REMARK VINA RESULT:      -5.9      3.474      6.106
REMARK  Name = 
REMARK  2 active torsions:
REMARK  status: ('A' for Active; 'I' for Inactive)
REMARK    1  A    between atoms: C_2  and  C_3
REMARK    2  A    between atoms: C_6  and  C_7
REMARK                            x       y       z     vdW  Elec       q    Type
REMARK                         _______ _______ _______ _____ _____    ______ ____
ROOT
ATOM      1  C   UNL     1       6.809   4.631  16.231  0.00  0.00    +0.000 A 
ATOM      2  C   UNL     1       7.525   4.597  17.408  0.00  0.00    +0.000 A 
ATOM      3  N   UNL     1       6.615   4.229  18.361  0.00  0.00    +0.000 N 
ATOM      4  C   UNL     1       5.412   4.027  17.734  0.00  0.00    +0.000 A 
ATOM      5  N   UNL     1       5.504   4.238  16.436  0.00  0.00    +0.000 NA
ATOM      6  H   UNL     1       6.767   4.123  19.357  0.00  0.00    +0.000 HD
ENDROOT
BRANCH   4   7
ATOM      7  C   UNL     1       4.231   3.665  18.436  0.00  0.00    +0.000 A 
ATOM      8  N   UNL     1       3.102   3.278  17.879  0.00  0.00    +0.000 NA
ATOM      9  C   UNL     1       2.267   2.983  18.934  0.00  0.00    +0.000 A 
ATOM     10 BR   UNL     1       0.535   2.290  18.670  0.00  0.00    +0.000 Br
ATOM     11  C   UNL     1       2.887   3.252  20.130  0.00  0.00    +0.000 A 
ATOM     12 BR   UNL     1       2.209   3.110  21.853  0.00  0.00    +0.000 Br
ATOM     13  N   UNL     1       4.147   3.660  19.802  0.00  0.00    +0.000 N 
ATOM     14  H   UNL     1       4.888   3.928  20.434  0.00  0.00    +0.000 HD
ENDBRANCH   4   7
BRANCH   1  16
ATOM     15  N   UNL     1       7.699   5.378  13.910  0.00  0.00    +0.000 NA
ATOM     16  C   UNL     1       7.285   5.035  14.944  0.00  0.00    +0.000 C 
ENDBRANCH   1  16
TORSDOF 2
ENDMDL
MODEL 3
REMARK VINA RESULT:      -5.8      3.384      5.932
REMARK  Name = 
REMARK  2 active torsions:
REMARK  status: ('A' for Active; 'I' for Inactive)
REMARK    1  A    between atoms: C_2  and  C_3
REMARK    2  A    between atoms: C_6  and  C_7
REMARK                            x       y       z     vdW  Elec       q    Type
REMARK                         _______ _______ _______ _____ _____    ______ ____
ROOT
ATOM      1  C   UNL     1       6.719   4.701  16.281  0.00  0.00    +0.000 A 
ATOM      2  C   UNL     1       7.567   4.437  17.335  0.00  0.00    +0.000 A 
ATOM      3  N   UNL     1       6.750   4.353  18.429  0.00  0.00    +0.000 N 
ATOM      4  C   UNL     1       5.459   4.534  18.002  0.00  0.00    +0.000 A 
ATOM      5  N   UNL     1       5.405   4.722  16.698  0.00  0.00    +0.000 NA
ATOM      6  H   UNL     1       7.017   4.194  19.394  0.00  0.00    +0.000 HD
ENDROOT
BRANCH   4   7
ATOM      7  C   UNL     1       4.350   4.541  18.889  0.00  0.00    +0.000 A 
ATOM      8  N   UNL     1       3.872   3.488  19.520  0.00  0.00    +0.000 NA
ATOM      9  C   UNL     1       2.846   3.974  20.298  0.00  0.00    +0.000 A 
ATOM     10 BR   UNL     1       1.880   2.867  21.478  0.00  0.00    +0.000 Br
ATOM     11  C   UNL     1       2.674   5.320  20.086  0.00  0.00    +0.000 A 
ATOM     12 BR   UNL     1       1.401   6.463  20.810  0.00  0.00    +0.000 Br
ATOM     13  N   UNL     1       3.655   5.677  19.207  0.00  0.00    +0.000 N 
ATOM     14  H   UNL     1       3.840   6.598  18.836  0.00  0.00    +0.000 HD
ENDBRANCH   4   7
BRANCH   1  16
ATOM     15  N   UNL     1       7.354   5.159  13.807  0.00  0.00    +0.000 NA
ATOM     16  C   UNL     1       7.086   4.955  14.922  0.00  0.00    +0.000 C 
ENDBRANCH   1  16
TORSDOF 2
ENDMDL
MODEL 4
REMARK VINA RESULT:      -5.8      3.382      5.795
REMARK  Name = 
REMARK  2 active torsions:
REMARK  status: ('A' for Active; 'I' for Inactive)
REMARK    1  A    between atoms: C_2  and  C_3
REMARK    2  A    between atoms: C_6  and  C_7
REMARK                            x       y       z     vdW  Elec       q    Type
REMARK                         _______ _______ _______ _____ _____    ______ ____
ROOT
ATOM      1  C   UNL     1       6.756   4.712  16.245  0.00  0.00    +0.000 A 
ATOM      2  C   UNL     1       7.606   4.425  17.291  0.00  0.00    +0.000 A 
ATOM      3  N   UNL     1       6.797   4.367  18.393  0.00  0.00    +0.000 N 
ATOM      4  C   UNL     1       5.508   4.586  17.978  0.00  0.00    +0.000 A 
ATOM      5  N   UNL     1       5.448   4.773  16.674  0.00  0.00    +0.000 NA
ATOM      6  H   UNL     1       7.068   4.202  19.356  0.00  0.00    +0.000 HD
ENDROOT
BRANCH   4   7
ATOM      7  C   UNL     1       4.408   4.627  18.875  0.00  0.00    +0.000 A 
ATOM      8  N   UNL     1       3.755   5.715  19.233  0.00  0.00    +0.000 NA
ATOM      9  C   UNL     1       2.750   5.271  20.062  0.00  0.00    +0.000 A 
ATOM     10 BR   UNL     1       1.462   6.442  20.781  0.00  0.00    +0.000 Br
ATOM     11  C   UNL     1       2.839   3.912  20.245  0.00  0.00    +0.000 A 
ATOM     12 BR   UNL     1       1.796   2.808  21.313  0.00  0.00    +0.000 Br
ATOM     13  N   UNL     1       3.883   3.508  19.464  0.00  0.00    +0.000 N 
ATOM     14  H   UNL     1       4.228   2.567  19.340  0.00  0.00    +0.000 HD
ENDBRANCH   4   7
BRANCH   1  16
ATOM     15  N   UNL     1       7.395   5.178  13.773  0.00  0.00    +0.000 NA
ATOM     16  C   UNL     1       7.118   4.953  14.882  0.00  0.00    +0.000 C 
ENDBRANCH   1  16
TORSDOF 2
ENDMDL
MODEL 5
REMARK VINA RESULT:      -5.8      1.262      2.236
REMARK  Name = 
REMARK  2 active torsions:
REMARK  status: ('A' for Active; 'I' for Inactive)
REMARK    1  A    between atoms: C_2  and  C_3
REMARK    2  A    between atoms: C_6  and  C_7
REMARK                            x       y       z     vdW  Elec       q    Type
REMARK                         _______ _______ _______ _____ _____    ______ ____
ROOT
ATOM      1  C   UNL     1       2.243   2.764  19.939  0.00  0.00    +0.000 A 
ATOM      2  C   UNL     1       1.718   2.304  18.751  0.00  0.00    +0.000 A 
ATOM      3  N   UNL     1       2.568   2.774  17.788  0.00  0.00    +0.000 N 
ATOM      4  C   UNL     1       3.574   3.463  18.418  0.00  0.00    +0.000 A 
ATOM      5  N   UNL     1       3.418   3.452  19.727  0.00  0.00    +0.000 NA
ATOM      6  H   UNL     1       2.494   2.660  16.783  0.00  0.00    +0.000 HD
ENDROOT
BRANCH   4   7
ATOM      7  C   UNL     1       4.618   4.115  17.710  0.00  0.00    +0.000 A 
ATOM      8  N   UNL     1       5.037   3.795  16.502  0.00  0.00    +0.000 NA
ATOM      9  C   UNL     1       6.013   4.720  16.207  0.00  0.00    +0.000 A 
ATOM     10 BR   UNL     1       6.878   4.756  14.534  0.00  0.00    +0.000 Br
ATOM     11  C   UNL     1       6.217   5.565  17.271  0.00  0.00    +0.000 A 
ATOM     12 BR   UNL     1       7.451   6.941  17.450  0.00  0.00    +0.000 Br
ATOM     13  N   UNL     1       5.305   5.187  18.213  0.00  0.00    +0.000 N 
ATOM     14  H   UNL     1       5.158   5.600  19.124  0.00  0.00    +0.000 HD
ENDBRANCH   4   7
BRANCH   1  16
ATOM     15  N   UNL     1       1.255   2.490  22.323  0.00  0.00    +0.000 NA
ATOM     16  C   UNL     1       1.682   2.609  21.246  0.00  0.00    +0.000 C 
ENDBRANCH   1  16
TORSDOF 2
ENDMDL
MODEL 6
REMARK VINA RESULT:      -5.8      3.458      5.912
REMARK  Name = 
REMARK  2 active torsions:
REMARK  status: ('A' for Active; 'I' for Inactive)
REMARK    1  A    between atoms: C_2  and  C_3
REMARK    2  A    between atoms: C_6  and  C_7
REMARK                            x       y       z     vdW  Elec       q    Type
REMARK                         _______ _______ _______ _____ _____    ______ ____
ROOT
ATOM      1  C   UNL     1       6.764   4.600  16.060  0.00  0.00    +0.000 A 
ATOM      2  C   UNL     1       7.538   4.596  17.200  0.00  0.00    +0.000 A 
ATOM      3  N   UNL     1       6.681   4.233  18.203  0.00  0.00    +0.000 N 
ATOM      4  C   UNL     1       5.451   4.006  17.640  0.00  0.00    +0.000 A 
ATOM      5  N   UNL     1       5.476   4.195  16.336  0.00  0.00    +0.000 NA
ATOM      6  H   UNL     1       6.883   4.146  19.192  0.00  0.00    +0.000 HD
ENDROOT
BRANCH   4   7
ATOM      7  C   UNL     1       4.311   3.641  18.406  0.00  0.00    +0.000 A 
ATOM      8  N   UNL     1       4.218   3.718  19.718  0.00  0.00    +0.000 NA
ATOM      9  C   UNL     1       2.933   3.316  20.007  0.00  0.00    +0.000 A 
ATOM     10 BR   UNL     1       2.257   3.332  21.765  0.00  0.00    +0.000 Br
ATOM     11  C   UNL     1       2.274   2.941  18.862  0.00  0.00    +0.000 A 
ATOM     12 BR   UNL     1       0.559   2.254  18.674  0.00  0.00    +0.000 Br
ATOM     13  N   UNL     1       3.152   3.177  17.844  0.00  0.00    +0.000 N 
ATOM     14  H   UNL     1       2.999   3.031  16.856  0.00  0.00    +0.000 HD
ENDBRANCH   4   7
BRANCH   1  16
ATOM     15  N   UNL     1       7.472   5.295  13.662  0.00  0.00    +0.000 NA
ATOM     16  C   UNL     1       7.171   4.988  14.744  0.00  0.00    +0.000 C 
ENDBRANCH   1  16
TORSDOF 2
ENDMDL
MODEL 7
REMARK VINA RESULT:      -5.8      1.277      1.456
REMARK  Name = 
REMARK  2 active torsions:
REMARK  status: ('A' for Active; 'I' for Inactive)
REMARK    1  A    between atoms: C_2  and  C_3
REMARK    2  A    between atoms: C_6  and  C_7
REMARK                            x       y       z     vdW  Elec       q    Type
REMARK                         _______ _______ _______ _____ _____    ______ ____
ROOT
ATOM      1  C   UNL     1       2.216   2.766  19.988  0.00  0.00    +0.000 A 
ATOM      2  C   UNL     1       1.749   2.218  18.813  0.00  0.00    +0.000 A 
ATOM      3  N   UNL     1       2.573   2.717  17.842  0.00  0.00    +0.000 N 
ATOM      4  C   UNL     1       3.510   3.509  18.455  0.00  0.00    +0.000 A 
ATOM      5  N   UNL     1       3.336   3.538  19.761  0.00  0.00    +0.000 NA
ATOM      6  H   UNL     1       2.524   2.556  16.842  0.00  0.00    +0.000 HD
ENDROOT
BRANCH   4   7
ATOM      7  C   UNL     1       4.510   4.214  17.733  0.00  0.00    +0.000 A 
ATOM      8  N   UNL     1       5.180   5.257  18.181  0.00  0.00    +0.000 NA
ATOM      9  C   UNL     1       6.066   5.570  17.174  0.00  0.00    +0.000 A 
ATOM     10 BR   UNL     1       7.334   6.951  17.356  0.00  0.00    +0.000 Br
ATOM     11  C   UNL     1       5.882   4.741  16.093  0.00  0.00    +0.000 A 
ATOM     12 BR   UNL     1       6.743   4.760  14.448  0.00  0.00    +0.000 Br
ATOM     13  N   UNL     1       4.906   3.865  16.470  0.00  0.00    +0.000 N 
ATOM     14  H   UNL     1       4.524   3.103  15.928  0.00  0.00    +0.000 HD
ENDBRANCH   4   7
BRANCH   1  16
ATOM     15  N   UNL     1       1.192   2.467  22.353  0.00  0.00    +0.000 NA
ATOM     16  C   UNL     1       1.650   2.620  21.293  0.00  0.00    +0.000 C 
ENDBRANCH   1  16
TORSDOF 2
ENDMDL
MODEL 8
REMARK VINA RESULT:      -5.6      0.146      1.709
REMARK  Name = 
REMARK  2 active torsions:
REMARK  status: ('A' for Active; 'I' for Inactive)
REMARK    1  A    between atoms: C_2  and  C_3
REMARK    2  A    between atoms: C_6  and  C_7
REMARK                            x       y       z     vdW  Elec       q    Type
REMARK                         _______ _______ _______ _____ _____    ______ ____
ROOT
ATOM      1  C   UNL     1       3.271   2.785  20.740  0.00  0.00    +0.000 A 
ATOM      2  C   UNL     1       4.260   1.828  20.671  0.00  0.00    +0.000 A 
ATOM      3  N   UNL     1       5.161   2.320  19.767  0.00  0.00    +0.000 N 
ATOM      4  C   UNL     1       4.710   3.547  19.353  0.00  0.00    +0.000 A 
ATOM      5  N   UNL     1       3.578   3.869  19.946  0.00  0.00    +0.000 NA
ATOM      6  H   UNL     1       6.013   1.881  19.435  0.00  0.00    +0.000 HD
ENDROOT
BRANCH   4   7
ATOM      7  C   UNL     1       5.393   4.330  18.383  0.00  0.00    +0.000 A 
ATOM      8  N   UNL     1       5.520   4.023  17.108  0.00  0.00    +0.000 NA
ATOM      9  C   UNL     1       6.201   5.083  16.553  0.00  0.00    +0.000 A 
ATOM     10 BR   UNL     1       6.563   5.177  14.707  0.00  0.00    +0.000 Br
ATOM     11  C   UNL     1       6.532   6.004  17.518  0.00  0.00    +0.000 A 
ATOM     12 BR   UNL     1       7.506   7.575  17.346  0.00  0.00    +0.000 Br
ATOM     13  N   UNL     1       5.990   5.527  18.675  0.00  0.00    +0.000 N 
ATOM     14  H   UNL     1       6.023   5.955  19.590  0.00  0.00    +0.000 HD
ENDBRANCH   4   7
BRANCH   1  16
ATOM     15  N   UNL     1       1.081   2.643  22.125  0.00  0.00    +0.000 NA
ATOM     16  C   UNL     1       2.056   2.716  21.490  0.00  0.00    +0.000 C 
ENDBRANCH   1  16
TORSDOF 2
ENDMDL
MODEL 9
REMARK VINA RESULT:      -5.5      3.422      5.733
REMARK  Name = 
REMARK  2 active torsions:
REMARK  status: ('A' for Active; 'I' for Inactive)
REMARK    1  A    between atoms: C_2  and  C_3
REMARK    2  A    between atoms: C_6  and  C_7
REMARK                            x       y       z     vdW  Elec       q    Type
REMARK                         _______ _______ _______ _____ _____    ______ ____
ROOT
ATOM      1  C   UNL     1       6.892   6.100  17.738  0.00  0.00    +0.000 A 
ATOM      2  C   UNL     1       7.495   4.871  17.581  0.00  0.00    +0.000 A 
ATOM      3  N   UNL     1       6.567   3.967  18.021  0.00  0.00    +0.000 N 
ATOM      4  C   UNL     1       5.446   4.666  18.393  0.00  0.00    +0.000 A 
ATOM      5  N   UNL     1       5.604   5.961  18.208  0.00  0.00    +0.000 NA
ATOM      6  H   UNL     1       6.660   2.959  18.082  0.00  0.00    +0.000 HD
ENDROOT
BRANCH   4   7
ATOM      7  C   UNL     1       4.293   4.037  18.932  0.00  0.00    +0.000 A 
ATOM      8  N   UNL     1       4.080   3.800  20.210  0.00  0.00    +0.000 NA
ATOM      9  C   UNL     1       2.827   3.231  20.264  0.00  0.00    +0.000 A 
ATOM     10 BR   UNL     1       2.006   2.782  21.899  0.00  0.00    +0.000 Br
ATOM     11  C   UNL     1       2.312   3.076  19.000  0.00  0.00    +0.000 A 
ATOM     12 BR   UNL     1       0.704   2.305  18.482  0.00  0.00    +0.000 Br
ATOM     13  N   UNL     1       3.242   3.616  18.161  0.00  0.00    +0.000 N 
ATOM     14  H   UNL     1       3.191   3.689  17.154  0.00  0.00    +0.000 HD
ENDBRANCH   4   7
BRANCH   1  16
ATOM     15  N   UNL     1       7.949   8.434  17.327  0.00  0.00    +0.000 NA
ATOM     16  C   UNL     1       7.475   7.383  17.493  0.00  0.00    +0.000 C 
ENDBRANCH   1  16
TORSDOF 2
ENDMDL
