MODEL 1
REMARK VINA RESULT:      -8.2      0.000      0.000
REMARK  Name = 
REMARK  7 active torsions:
REMARK  status: ('A' for Active; 'I' for Inactive)
REMARK    1  A    between atoms: C_1  and  C_2
REMARK    2  A    between atoms: C_5  and  N_6
REMARK    3  A    between atoms: C_8  and  C_9
REMARK    4  A    between atoms: C_11  and  C_12
REMARK    5  A    between atoms: N_14  and  C_15
REMARK    6  A    between atoms: C_15  and  C_16
REMARK    7  A    between atoms: C_24  and  C_25
REMARK                            x       y       z     vdW  Elec       q    Type
REMARK                         _______ _______ _______ _____ _____    ______ ____
ROOT
ATOM      1  N   UNL     1       1.554  10.636  18.761  0.00  0.00    +0.000 N 
ATOM      2  N   UNL     1       2.092  10.002  17.684  0.00  0.00    +0.000 NA
ATOM      3  C   UNL     1       2.262   8.732  18.069  0.00  0.00    +0.000 A 
ATOM      4  C   UNL     1       2.869   7.781  17.101  0.00  0.00    +0.000 C 
ATOM      5  C   UNL     1       1.781   8.496  19.387  0.00  0.00    +0.000 A 
ATOM      6  C   UNL     1       1.649   7.428  20.301  0.00  0.00    +0.000 A 
ATOM      7  C   UNL     1       1.033   7.681  21.537  0.00  0.00    +0.000 A 
ATOM      8  C   UNL     1       0.590   8.965  21.826  0.00  0.00    +0.000 A 
ATOM      9  C   UNL     1      -0.087   9.268  23.131  0.00  0.00    +0.000 C 
ATOM     10  N   UNL     1       0.725  10.006  20.990  0.00  0.00    +0.000 NA
ATOM     11  C   UNL     1       1.312   9.739  19.801  0.00  0.00    +0.000 A 
ENDROOT
BRANCH   1  16
ATOM     12  C   UNL     1       0.594  16.303  18.579  0.00  0.00    +0.000 C 
ATOM     13  C   UNL     1       0.864  14.829  18.623  0.00  0.00    +0.000 A 
ATOM     14  C   UNL     1       2.165  14.323  18.664  0.00  0.00    +0.000 A 
ATOM     15  C   UNL     1       2.390  12.941  18.716  0.00  0.00    +0.000 A 
ATOM     16  C   UNL     1       1.309  12.044  18.711  0.00  0.00    +0.000 A 
ATOM     17  C   UNL     1       0.009  12.557  18.670  0.00  0.00    +0.000 A 
ATOM     18  C   UNL     1      -0.213  13.936  18.631  0.00  0.00    +0.000 A 
ENDBRANCH   1  16
BRANCH   6  19
ATOM     19  C   UNL     1       2.209   6.088  20.007  0.00  0.00    +0.000 C 
ATOM     20  O   UNL     1       1.454   5.131  19.862  0.00  0.00    +0.000 OA
ATOM     21  N   UNL     1       3.578   5.977  19.886  0.00  0.00    +0.000 N 
ATOM     22  H   UNL     1       4.179   6.753  20.119  0.00  0.00    +0.000 HD
BRANCH  21  23
ATOM     23  C   UNL     1       4.201   4.685  19.662  0.00  0.00    +0.000 C 
BRANCH  23  24
ATOM     24  C   UNL     1       5.025   4.674  18.397  0.00  0.00    +0.000 A 
ATOM     25  C   UNL     1       4.407   4.414  17.161  0.00  0.00    +0.000 A 
ATOM     26  C   UNL     1       5.160   4.357  15.987  0.00  0.00    +0.000 A 
ATOM     27  C   UNL     1       6.532   4.555  16.047  0.00  0.00    +0.000 A 
ATOM     28  F   UNL     1       7.259   4.483  14.923  0.00  0.00    +0.000 F 
ATOM     29  C   UNL     1       7.165   4.824  17.255  0.00  0.00    +0.000 A 
ATOM     30  C   UNL     1       6.413   4.886  18.431  0.00  0.00    +0.000 A 
ENDBRANCH  23  24
ENDBRANCH  21  23
ENDBRANCH   6  19
TORSDOF 4
ENDMDL
MODEL 2
REMARK VINA RESULT:      -8.1      0.111      1.273
REMARK  Name = 
REMARK  7 active torsions:
REMARK  status: ('A' for Active; 'I' for Inactive)
REMARK    1  A    between atoms: C_1  and  C_2
REMARK    2  A    between atoms: C_5  and  N_6
REMARK    3  A    between atoms: C_8  and  C_9
REMARK    4  A    between atoms: C_11  and  C_12
REMARK    5  A    between atoms: N_14  and  C_15
REMARK    6  A    between atoms: C_15  and  C_16
REMARK    7  A    between atoms: C_24  and  C_25
REMARK                            x       y       z     vdW  Elec       q    Type
REMARK                         _______ _______ _______ _____ _____    ______ ____
ROOT
ATOM      1  N   UNL     1       1.520  10.625  18.782  0.00  0.00    +0.000 N 
ATOM      2  N   UNL     1       2.062   9.996  17.703  0.00  0.00    +0.000 NA
ATOM      3  C   UNL     1       2.234   8.725  18.084  0.00  0.00    +0.000 A 
ATOM      4  C   UNL     1       2.846   7.778  17.116  0.00  0.00    +0.000 C 
ATOM      5  C   UNL     1       1.751   8.484  19.400  0.00  0.00    +0.000 A 
ATOM      6  C   UNL     1       1.618   7.412  20.311  0.00  0.00    +0.000 A 
ATOM      7  C   UNL     1       0.999   7.659  21.546  0.00  0.00    +0.000 A 
ATOM      8  C   UNL     1       0.552   8.941  21.838  0.00  0.00    +0.000 A 
ATOM      9  C   UNL     1      -0.130   9.238  23.142  0.00  0.00    +0.000 C 
ATOM     10  N   UNL     1       0.686   9.986  21.006  0.00  0.00    +0.000 NA
ATOM     11  C   UNL     1       1.277   9.724  19.818  0.00  0.00    +0.000 A 
ENDROOT
BRANCH   1  16
ATOM     12  C   UNL     1       0.496  16.280  18.576  0.00  0.00    +0.000 C 
ATOM     13  C   UNL     1       0.744  14.802  18.633  0.00  0.00    +0.000 A 
ATOM     14  C   UNL     1      -0.307  13.882  18.614  0.00  0.00    +0.000 A 
ATOM     15  C   UNL     1      -0.049  12.506  18.657  0.00  0.00    +0.000 A 
ATOM     16  C   UNL     1       1.272  12.033  18.736  0.00  0.00    +0.000 A 
ATOM     17  C   UNL     1       2.319  12.959  18.754  0.00  0.00    +0.000 A 
ATOM     18  C   UNL     1       2.059  14.331  18.699  0.00  0.00    +0.000 A 
ENDBRANCH   1  16
BRANCH   6  19
ATOM     19  C   UNL     1       2.183   6.074  20.014  0.00  0.00    +0.000 C 
ATOM     20  O   UNL     1       1.430   5.116  19.861  0.00  0.00    +0.000 OA
ATOM     21  N   UNL     1       3.553   5.967  19.899  0.00  0.00    +0.000 N 
ATOM     22  H   UNL     1       4.151   6.743  20.139  0.00  0.00    +0.000 HD
BRANCH  21  23
ATOM     23  C   UNL     1       4.179   4.677  19.673  0.00  0.00    +0.000 C 
BRANCH  23  24
ATOM     24  C   UNL     1       5.021   4.677  18.419  0.00  0.00    +0.000 A 
ATOM     25  C   UNL     1       6.393   4.971  18.497  0.00  0.00    +0.000 A 
ATOM     26  C   UNL     1       7.177   5.017  17.343  0.00  0.00    +0.000 A 
ATOM     27  C   UNL     1       6.589   4.776  16.109  0.00  0.00    +0.000 A 
ATOM     28  F   UNL     1       7.337   4.838  14.999  0.00  0.00    +0.000 F 
ATOM     29  C   UNL     1       5.236   4.473  16.007  0.00  0.00    +0.000 A 
ATOM     30  C   UNL     1       4.450   4.421  17.162  0.00  0.00    +0.000 A 
ENDBRANCH  23  24
ENDBRANCH  21  23
ENDBRANCH   6  19
TORSDOF 4
ENDMDL
MODEL 3
REMARK VINA RESULT:      -7.7      3.603      5.170
REMARK  Name = 
REMARK  7 active torsions:
REMARK  status: ('A' for Active; 'I' for Inactive)
REMARK    1  A    between atoms: C_1  and  C_2
REMARK    2  A    between atoms: C_5  and  N_6
REMARK    3  A    between atoms: C_8  and  C_9
REMARK    4  A    between atoms: C_11  and  C_12
REMARK    5  A    between atoms: N_14  and  C_15
REMARK    6  A    between atoms: C_15  and  C_16
REMARK    7  A    between atoms: C_24  and  C_25
REMARK                            x       y       z     vdW  Elec       q    Type
REMARK                         _______ _______ _______ _____ _____    ______ ____
ROOT
ATOM      1  N   UNL     1      -1.103  11.562  21.832  0.00  0.00    +0.000 N 
ATOM      2  N   UNL     1      -0.118  11.070  22.632  0.00  0.00    +0.000 NA
ATOM      3  C   UNL     1       0.610  10.269  21.846  0.00  0.00    +0.000 A 
ATOM      4  C   UNL     1       1.761   9.550  22.450  0.00  0.00    +0.000 C 
ATOM      5  C   UNL     1       0.152  10.270  20.499  0.00  0.00    +0.000 A 
ATOM      6  C   UNL     1       0.491   9.696  19.254  0.00  0.00    +0.000 A 
ATOM      7  C   UNL     1      -0.268  10.050  18.128  0.00  0.00    +0.000 A 
ATOM      8  C   UNL     1      -1.329  10.934  18.273  0.00  0.00    +0.000 A 
ATOM      9  C   UNL     1      -2.153  11.348  17.088  0.00  0.00    +0.000 C 
ATOM     10  N   UNL     1      -1.694  11.476  19.446  0.00  0.00    +0.000 NA
ATOM     11  C   UNL     1      -0.943  11.130  20.516  0.00  0.00    +0.000 A 
ENDROOT
BRANCH   1  16
ATOM     12  C   UNL     1      -5.147  14.997  24.050  0.00  0.00    +0.000 C 
ATOM     13  C   UNL     1      -4.090  14.114  23.457  0.00  0.00    +0.000 A 
ATOM     14  C   UNL     1      -3.256  14.559  22.429  0.00  0.00    +0.000 A 
ATOM     15  C   UNL     1      -2.269  13.719  21.899  0.00  0.00    +0.000 A 
ATOM     16  C   UNL     1      -2.114  12.410  22.385  0.00  0.00    +0.000 A 
ATOM     17  C   UNL     1      -2.952  11.971  23.414  0.00  0.00    +0.000 A 
ATOM     18  C   UNL     1      -3.928  12.815  23.949  0.00  0.00    +0.000 A 
ENDBRANCH   1  16
BRANCH   6  19
ATOM     19  C   UNL     1       1.570   8.687  19.139  0.00  0.00    +0.000 C 
ATOM     20  O   UNL     1       2.378   8.762  18.218  0.00  0.00    +0.000 OA
ATOM     21  N   UNL     1       1.633   7.702  20.102  0.00  0.00    +0.000 N 
ATOM     22  H   UNL     1       0.894   7.600  20.781  0.00  0.00    +0.000 HD
BRANCH  21  23
ATOM     23  C   UNL     1       2.623   6.644  20.018  0.00  0.00    +0.000 C 
BRANCH  23  24
ATOM     24  C   UNL     1       2.005   5.334  19.591  0.00  0.00    +0.000 A 
ATOM     25  C   UNL     1       1.399   4.501  20.547  0.00  0.00    +0.000 A 
ATOM     26  C   UNL     1       0.861   3.268  20.178  0.00  0.00    +0.000 A 
ATOM     27  C   UNL     1       0.933   2.861  18.852  0.00  0.00    +0.000 A 
ATOM     28  F   UNL     1       0.434   1.669  18.499  0.00  0.00    +0.000 F 
ATOM     29  C   UNL     1       1.519   3.672  17.886  0.00  0.00    +0.000 A 
ATOM     30  C   UNL     1       2.054   4.910  18.253  0.00  0.00    +0.000 A 
ENDBRANCH  23  24
ENDBRANCH  21  23
ENDBRANCH   6  19
TORSDOF 4
ENDMDL
MODEL 4
REMARK VINA RESULT:      -7.6      5.143      9.790
REMARK  Name = 
REMARK  7 active torsions:
REMARK  status: ('A' for Active; 'I' for Inactive)
REMARK    1  A    between atoms: C_1  and  C_2
REMARK    2  A    between atoms: C_5  and  N_6
REMARK    3  A    between atoms: C_8  and  C_9
REMARK    4  A    between atoms: C_11  and  C_12
REMARK    5  A    between atoms: N_14  and  C_15
REMARK    6  A    between atoms: C_15  and  C_16
REMARK    7  A    between atoms: C_24  and  C_25
REMARK                            x       y       z     vdW  Elec       q    Type
REMARK                         _______ _______ _______ _____ _____    ______ ____
ROOT
ATOM      1  N   UNL     1       0.432   9.706  19.700  0.00  0.00    +0.000 N 
ATOM      2  N   UNL     1       0.494  10.135  20.990  0.00  0.00    +0.000 NA
ATOM      3  C   UNL     1      -0.488  11.036  21.112  0.00  0.00    +0.000 A 
ATOM      4  C   UNL     1      -0.658  11.715  22.423  0.00  0.00    +0.000 C 
ATOM      5  C   UNL     1      -1.252  11.169  19.919  0.00  0.00    +0.000 A 
ATOM      6  C   UNL     1      -2.372  11.884  19.442  0.00  0.00    +0.000 A 
ATOM      7  C   UNL     1      -2.814  11.635  18.133  0.00  0.00    +0.000 A 
ATOM      8  C   UNL     1      -2.133  10.713  17.350  0.00  0.00    +0.000 A 
ATOM      9  C   UNL     1      -2.587  10.410  15.951  0.00  0.00    +0.000 C 
ATOM     10  N   UNL     1      -1.050  10.037  17.764  0.00  0.00    +0.000 NA
ATOM     11  C   UNL     1      -0.647  10.284  19.031  0.00  0.00    +0.000 A 
ENDROOT
BRANCH   1  16
ATOM     12  C   UNL     1       4.343   5.964  17.758  0.00  0.00    +0.000 C 
ATOM     13  C   UNL     1       3.318   6.927  18.279  0.00  0.00    +0.000 A 
ATOM     14  C   UNL     1       2.699   6.740  19.517  0.00  0.00    +0.000 A 
ATOM     15  C   UNL     1       1.752   7.660  19.986  0.00  0.00    +0.000 A 
ATOM     16  C   UNL     1       1.402   8.777  19.209  0.00  0.00    +0.000 A 
ATOM     17  C   UNL     1       2.025   8.958  17.971  0.00  0.00    +0.000 A 
ATOM     18  C   UNL     1       2.977   8.045  17.511  0.00  0.00    +0.000 A 
ENDBRANCH   1  16
BRANCH   6  19
ATOM     19  C   UNL     1      -3.028  12.929  20.264  0.00  0.00    +0.000 C 
ATOM     20  O   UNL     1      -4.057  12.663  20.879  0.00  0.00    +0.000 OA
ATOM     21  N   UNL     1      -2.429  14.170  20.322  0.00  0.00    +0.000 N 
ATOM     22  H   UNL     1      -1.650  14.393  19.722  0.00  0.00    +0.000 HD
BRANCH  21  23
ATOM     23  C   UNL     1      -3.049  15.259  21.055  0.00  0.00    +0.000 C 
BRANCH  23  24
ATOM     24  C   UNL     1      -2.660  15.241  22.514  0.00  0.00    +0.000 A 
ATOM     25  C   UNL     1      -3.655  15.150  23.503  0.00  0.00    +0.000 A 
ATOM     26  C   UNL     1      -3.317  15.175  24.857  0.00  0.00    +0.000 A 
ATOM     27  C   UNL     1      -1.984  15.298  25.225  0.00  0.00    +0.000 A 
ATOM     28  F   UNL     1      -1.660  15.341  26.524  0.00  0.00    +0.000 F 
ATOM     29  C   UNL     1      -0.981  15.379  24.266  0.00  0.00    +0.000 A 
ATOM     30  C   UNL     1      -1.317  15.349  22.910  0.00  0.00    +0.000 A 
ENDBRANCH  23  24
ENDBRANCH  21  23
ENDBRANCH   6  19
TORSDOF 4
ENDMDL
MODEL 5
REMARK VINA RESULT:      -7.4      2.655      4.144
REMARK  Name = 
REMARK  7 active torsions:
REMARK  status: ('A' for Active; 'I' for Inactive)
REMARK    1  A    between atoms: C_1  and  C_2
REMARK    2  A    between atoms: C_5  and  N_6
REMARK    3  A    between atoms: C_8  and  C_9
REMARK    4  A    between atoms: C_11  and  C_12
REMARK    5  A    between atoms: N_14  and  C_15
REMARK    6  A    between atoms: C_15  and  C_16
REMARK    7  A    between atoms: C_24  and  C_25
REMARK                            x       y       z     vdW  Elec       q    Type
REMARK                         _______ _______ _______ _____ _____    ______ ____
ROOT
ATOM      1  N   UNL     1       2.348   7.894  18.540  0.00  0.00    +0.000 N 
ATOM      2  N   UNL     1       3.311   8.256  17.649  0.00  0.00    +0.000 NA
ATOM      3  C   UNL     1       4.080   7.172  17.498  0.00  0.00    +0.000 A 
ATOM      4  C   UNL     1       5.254   7.265  16.592  0.00  0.00    +0.000 C 
ATOM      5  C   UNL     1       3.598   6.058  18.240  0.00  0.00    +0.000 A 
ATOM      6  C   UNL     1       3.921   4.701  18.463  0.00  0.00    +0.000 A 
ATOM      7  C   UNL     1       3.075   3.941  19.286  0.00  0.00    +0.000 A 
ATOM      8  C   UNL     1       1.965   4.544  19.863  0.00  0.00    +0.000 A 
ATOM      9  C   UNL     1       1.030   3.758  20.735  0.00  0.00    +0.000 C 
ATOM     10  N   UNL     1       1.646   5.837  19.692  0.00  0.00    +0.000 NA
ATOM     11  C   UNL     1       2.468   6.548  18.887  0.00  0.00    +0.000 A 
ENDROOT
BRANCH   1  16
ATOM     12  C   UNL     1      -1.502  11.786  20.301  0.00  0.00    +0.000 C 
ATOM     13  C   UNL     1      -0.505  10.772  19.824  0.00  0.00    +0.000 A 
ATOM     14  C   UNL     1      -0.267  10.563  18.463  0.00  0.00    +0.000 A 
ATOM     15  C   UNL     1       0.677   9.618  18.042  0.00  0.00    +0.000 A 
ATOM     16  C   UNL     1       1.389   8.857  18.985  0.00  0.00    +0.000 A 
ATOM     17  C   UNL     1       1.146   9.071  20.345  0.00  0.00    +0.000 A 
ATOM     18  C   UNL     1       0.212  10.023  20.761  0.00  0.00    +0.000 A 
ENDBRANCH   1  16
BRANCH   6  19
ATOM     19  C   UNL     1       5.159   4.103  17.910  0.00  0.00    +0.000 C 
ATOM     20  O   UNL     1       6.113   3.884  18.652  0.00  0.00    +0.000 OA
ATOM     21  N   UNL     1       5.178   3.792  16.567  0.00  0.00    +0.000 N 
ATOM     22  H   UNL     1       4.425   4.083  15.962  0.00  0.00    +0.000 HD
BRANCH  21  23
ATOM     23  C   UNL     1       6.378   3.263  15.944  0.00  0.00    +0.000 C 
BRANCH  23  24
ATOM     24  C   UNL     1       6.634   3.897  14.598  0.00  0.00    +0.000 A 
ATOM     25  C   UNL     1       6.049   3.349  13.443  0.00  0.00    +0.000 A 
ATOM     26  C   UNL     1       6.309   3.896  12.186  0.00  0.00    +0.000 A 
ATOM     27  C   UNL     1       7.159   4.988  12.080  0.00  0.00    +0.000 A 
ATOM     28  F   UNL     1       7.424   5.503  10.872  0.00  0.00    +0.000 F 
ATOM     29  C   UNL     1       7.741   5.555  13.208  0.00  0.00    +0.000 A 
ATOM     30  C   UNL     1       7.478   5.011  14.469  0.00  0.00    +0.000 A 
ENDBRANCH  23  24
ENDBRANCH  21  23
ENDBRANCH   6  19
TORSDOF 4
ENDMDL
MODEL 6
REMARK VINA RESULT:      -7.3      4.005      5.530
REMARK  Name = 
REMARK  7 active torsions:
REMARK  status: ('A' for Active; 'I' for Inactive)
REMARK    1  A    between atoms: C_1  and  C_2
REMARK    2  A    between atoms: C_5  and  N_6
REMARK    3  A    between atoms: C_8  and  C_9
REMARK    4  A    between atoms: C_11  and  C_12
REMARK    5  A    between atoms: N_14  and  C_15
REMARK    6  A    between atoms: C_15  and  C_16
REMARK    7  A    between atoms: C_24  and  C_25
REMARK                            x       y       z     vdW  Elec       q    Type
REMARK                         _______ _______ _______ _____ _____    ______ ____
ROOT
ATOM      1  N   UNL     1      -2.435  12.342  20.056  0.00  0.00    +0.000 N 
ATOM      2  N   UNL     1      -1.351  12.460  20.869  0.00  0.00    +0.000 NA
ATOM      3  C   UNL     1      -0.425  11.649  20.344  0.00  0.00    +0.000 A 
ATOM      4  C   UNL     1       0.884  11.537  21.039  0.00  0.00    +0.000 C 
ATOM      5  C   UNL     1      -0.865  11.032  19.140  0.00  0.00    +0.000 A 
ATOM      6  C   UNL     1      -0.376  10.151  18.150  0.00  0.00    +0.000 A 
ATOM      7  C   UNL     1      -1.206   9.850  17.059  0.00  0.00    +0.000 A 
ATOM      8  C   UNL     1      -2.475  10.410  16.993  0.00  0.00    +0.000 A 
ATOM      9  C   UNL     1      -3.382  10.123  15.832  0.00  0.00    +0.000 C 
ATOM     10  N   UNL     1      -2.978  11.229  17.930  0.00  0.00    +0.000 NA
ATOM     11  C   UNL     1      -2.159  11.514  18.968  0.00  0.00    +0.000 A 
ENDROOT
BRANCH   1  16
ATOM     12  C   UNL     1      -7.287  15.137  21.371  0.00  0.00    +0.000 C 
ATOM     13  C   UNL     1      -6.012  14.425  21.029  0.00  0.00    +0.000 A 
ATOM     14  C   UNL     1      -4.766  15.038  21.186  0.00  0.00    +0.000 A 
ATOM     15  C   UNL     1      -3.588  14.348  20.870  0.00  0.00    +0.000 A 
ATOM     16  C   UNL     1      -3.646  13.034  20.376  0.00  0.00    +0.000 A 
ATOM     17  C   UNL     1      -4.896  12.426  20.222  0.00  0.00    +0.000 A 
ATOM     18  C   UNL     1      -6.068  13.113  20.549  0.00  0.00    +0.000 A 
ENDBRANCH   1  16
BRANCH   6  19
ATOM     19  C   UNL     1       0.946   9.495  18.286  0.00  0.00    +0.000 C 
ATOM     20  O   UNL     1       1.884   9.866  17.586  0.00  0.00    +0.000 OA
ATOM     21  N   UNL     1       1.071   8.494  19.225  0.00  0.00    +0.000 N 
ATOM     22  H   UNL     1       0.261   8.135  19.706  0.00  0.00    +0.000 HD
BRANCH  21  23
ATOM     23  C   UNL     1       2.318   7.764  19.369  0.00  0.00    +0.000 C 
BRANCH  23  24
ATOM     24  C   UNL     1       2.095   6.270  19.361  0.00  0.00    +0.000 A 
ATOM     25  C   UNL     1       2.235   5.548  18.164  0.00  0.00    +0.000 A 
ATOM     26  C   UNL     1       1.991   4.174  18.129  0.00  0.00    +0.000 A 
ATOM     27  C   UNL     1       1.601   3.521  19.291  0.00  0.00    +0.000 A 
ATOM     28  F   UNL     1       1.348   2.206  19.255  0.00  0.00    +0.000 F 
ATOM     29  C   UNL     1       1.465   4.212  20.489  0.00  0.00    +0.000 A 
ATOM     30  C   UNL     1       1.714   5.587  20.527  0.00  0.00    +0.000 A 
ENDBRANCH  23  24
ENDBRANCH  21  23
ENDBRANCH   6  19
TORSDOF 4
ENDMDL
MODEL 7
REMARK VINA RESULT:      -7.2      3.312      4.971
REMARK  Name = 
REMARK  7 active torsions:
REMARK  status: ('A' for Active; 'I' for Inactive)
REMARK    1  A    between atoms: C_1  and  C_2
REMARK    2  A    between atoms: C_5  and  N_6
REMARK    3  A    between atoms: C_8  and  C_9
REMARK    4  A    between atoms: C_11  and  C_12
REMARK    5  A    between atoms: N_14  and  C_15
REMARK    6  A    between atoms: C_15  and  C_16
REMARK    7  A    between atoms: C_24  and  C_25
REMARK                            x       y       z     vdW  Elec       q    Type
REMARK                         _______ _______ _______ _____ _____    ______ ____
ROOT
ATOM      1  N   UNL     1      -0.500  11.283  21.660  0.00  0.00    +0.000 N 
ATOM      2  N   UNL     1      -0.637   9.960  21.953  0.00  0.00    +0.000 NA
ATOM      3  C   UNL     1      -0.004   9.313  20.968  0.00  0.00    +0.000 A 
ATOM      4  C   UNL     1      -0.003   7.827  20.993  0.00  0.00    +0.000 C 
ATOM      5  C   UNL     1       0.613  10.202  20.044  0.00  0.00    +0.000 A 
ATOM      6  C   UNL     1       1.409  10.148  18.879  0.00  0.00    +0.000 A 
ATOM      7  C   UNL     1       1.843  11.357  18.313  0.00  0.00    +0.000 A 
ATOM      8  C   UNL     1       1.468  12.557  18.901  0.00  0.00    +0.000 A 
ATOM      9  C   UNL     1       1.927  13.868  18.331  0.00  0.00    +0.000 C 
ATOM     10  N   UNL     1       0.691  12.642  19.992  0.00  0.00    +0.000 NA
ATOM     11  C   UNL     1       0.292  11.466  20.528  0.00  0.00    +0.000 A 
ENDROOT
BRANCH   1  16
ATOM     12  C   UNL     1      -3.008  15.240  24.995  0.00  0.00    +0.000 C 
ATOM     13  C   UNL     1      -2.341  14.222  24.120  0.00  0.00    +0.000 A 
ATOM     14  C   UNL     1      -1.091  14.457  23.544  0.00  0.00    +0.000 A 
ATOM     15  C   UNL     1      -0.483  13.485  22.739  0.00  0.00    +0.000 A 
ATOM     16  C   UNL     1      -1.131  12.265  22.487  0.00  0.00    +0.000 A 
ATOM     17  C   UNL     1      -2.383  12.035  23.066  0.00  0.00    +0.000 A 
ATOM     18  C   UNL     1      -2.981  13.002  23.878  0.00  0.00    +0.000 A 
ENDBRANCH   1  16
BRANCH   6  19
ATOM     19  C   UNL     1       1.722   8.859  18.217  0.00  0.00    +0.000 C 
ATOM     20  O   UNL     1       0.965   8.417  17.358  0.00  0.00    +0.000 OA
ATOM     21  N   UNL     1       2.883   8.213  18.587  0.00  0.00    +0.000 N 
ATOM     22  H   UNL     1       3.427   8.542  19.370  0.00  0.00    +0.000 HD
BRANCH  21  23
ATOM     23  C   UNL     1       3.221   6.917  18.028  0.00  0.00    +0.000 C 
BRANCH  23  24
ATOM     24  C   UNL     1       2.562   5.791  18.789  0.00  0.00    +0.000 A 
ATOM     25  C   UNL     1       2.719   5.704  20.183  0.00  0.00    +0.000 A 
ATOM     26  C   UNL     1       2.153   4.647  20.898  0.00  0.00    +0.000 A 
ATOM     27  C   UNL     1       1.434   3.672  20.219  0.00  0.00    +0.000 A 
ATOM     28  F   UNL     1       0.906   2.647  20.901  0.00  0.00    +0.000 F 
ATOM     29  C   UNL     1       1.257   3.742  18.842  0.00  0.00    +0.000 A 
ATOM     30  C   UNL     1       1.819   4.803  18.125  0.00  0.00    +0.000 A 
ENDBRANCH  23  24
ENDBRANCH  21  23
ENDBRANCH   6  19
TORSDOF 4
ENDMDL
MODEL 8
REMARK VINA RESULT:      -7.2      3.894      5.473
REMARK  Name = 
REMARK  7 active torsions:
REMARK  status: ('A' for Active; 'I' for Inactive)
REMARK    1  A    between atoms: C_1  and  C_2
REMARK    2  A    between atoms: C_5  and  N_6
REMARK    3  A    between atoms: C_8  and  C_9
REMARK    4  A    between atoms: C_11  and  C_12
REMARK    5  A    between atoms: N_14  and  C_15
REMARK    6  A    between atoms: C_15  and  C_16
REMARK    7  A    between atoms: C_24  and  C_25
REMARK                            x       y       z     vdW  Elec       q    Type
REMARK                         _______ _______ _______ _____ _____    ______ ____
ROOT
ATOM      1  N   UNL     1      -2.024  12.592  20.413  0.00  0.00    +0.000 N 
ATOM      2  N   UNL     1      -0.846  12.659  21.093  0.00  0.00    +0.000 NA
ATOM      3  C   UNL     1      -0.036  11.785  20.484  0.00  0.00    +0.000 A 
ATOM      4  C   UNL     1       1.337  11.606  21.025  0.00  0.00    +0.000 C 
ATOM      5  C   UNL     1      -0.649  11.174  19.355  0.00  0.00    +0.000 A 
ATOM      6  C   UNL     1      -0.331  10.248  18.336  0.00  0.00    +0.000 A 
ATOM      7  C   UNL     1      -1.298   9.978  17.356  0.00  0.00    +0.000 A 
ATOM      8  C   UNL     1      -2.531  10.612  17.424  0.00  0.00    +0.000 A 
ATOM      9  C   UNL     1      -3.583  10.359  16.383  0.00  0.00    +0.000 C 
ATOM     10  N   UNL     1      -2.874  11.476  18.393  0.00  0.00    +0.000 NA
ATOM     11  C   UNL     1      -1.924  11.730  19.322  0.00  0.00    +0.000 A 
ENDROOT
BRANCH   1  16
ATOM     12  C   UNL     1      -6.558  15.659  22.176  0.00  0.00    +0.000 C 
ATOM     13  C   UNL     1      -5.384  14.843  21.724  0.00  0.00    +0.000 A 
ATOM     14  C   UNL     1      -5.402  13.447  21.766  0.00  0.00    +0.000 A 
ATOM     15  C   UNL     1      -4.296  12.707  21.329  0.00  0.00    +0.000 A 
ATOM     16  C   UNL     1      -3.146  13.361  20.854  0.00  0.00    +0.000 A 
ATOM     17  C   UNL     1      -3.135  14.758  20.814  0.00  0.00    +0.000 A 
ATOM     18  C   UNL     1      -4.244  15.493  21.241  0.00  0.00    +0.000 A 
ENDBRANCH   1  16
BRANCH   6  19
ATOM     19  C   UNL     1       0.958   9.517  18.335  0.00  0.00    +0.000 C 
ATOM     20  O   UNL     1       1.819   9.802  17.507  0.00  0.00    +0.000 OA
ATOM     21  N   UNL     1       1.146   8.545  19.295  0.00  0.00    +0.000 N 
ATOM     22  H   UNL     1       0.384   8.256  19.890  0.00  0.00    +0.000 HD
BRANCH  21  23
ATOM     23  C   UNL     1       2.357   7.745  19.314  0.00  0.00    +0.000 C 
BRANCH  23  24
ATOM     24  C   UNL     1       2.050   6.267  19.318  0.00  0.00    +0.000 A 
ATOM     25  C   UNL     1       1.727   5.622  20.524  0.00  0.00    +0.000 A 
ATOM     26  C   UNL     1       1.482   4.248  20.553  0.00  0.00    +0.000 A 
ATOM     27  C   UNL     1       1.564   3.515  19.377  0.00  0.00    +0.000 A 
ATOM     28  F   UNL     1       1.347   2.194  19.406  0.00  0.00    +0.000 F 
ATOM     29  C   UNL     1       1.872   4.132  18.169  0.00  0.00    +0.000 A 
ATOM     30  C   UNL     1       2.113   5.509  18.138  0.00  0.00    +0.000 A 
ENDBRANCH  23  24
ENDBRANCH  21  23
ENDBRANCH   6  19
TORSDOF 4
ENDMDL
MODEL 9
REMARK VINA RESULT:      -7.2      3.728      5.213
REMARK  Name = 
REMARK  7 active torsions:
REMARK  status: ('A' for Active; 'I' for Inactive)
REMARK    1  A    between atoms: C_1  and  C_2
REMARK    2  A    between atoms: C_5  and  N_6
REMARK    3  A    between atoms: C_8  and  C_9
REMARK    4  A    between atoms: C_11  and  C_12
REMARK    5  A    between atoms: N_14  and  C_15
REMARK    6  A    between atoms: C_15  and  C_16
REMARK    7  A    between atoms: C_24  and  C_25
REMARK                            x       y       z     vdW  Elec       q    Type
REMARK                         _______ _______ _______ _____ _____    ______ ____
ROOT
ATOM      1  N   UNL     1      -1.334  11.981  21.319  0.00  0.00    +0.000 N 
ATOM      2  N   UNL     1      -0.190  11.709  22.005  0.00  0.00    +0.000 NA
ATOM      3  C   UNL     1       0.525  10.915  21.199  0.00  0.00    +0.000 A 
ATOM      4  C   UNL     1       1.837  10.417  21.689  0.00  0.00    +0.000 C 
ATOM      5  C   UNL     1      -0.110  10.704  19.944  0.00  0.00    +0.000 A 
ATOM      6  C   UNL     1       0.130  10.034  18.724  0.00  0.00    +0.000 A 
ATOM      7  C   UNL     1      -0.819  10.159  17.697  0.00  0.00    +0.000 A 
ATOM      8  C   UNL     1      -1.961  10.919  17.915  0.00  0.00    +0.000 A 
ATOM      9  C   UNL     1      -2.988  11.088  16.833  0.00  0.00    +0.000 C 
ATOM     10  N   UNL     1      -2.230  11.546  19.070  0.00  0.00    +0.000 NA
ATOM     11  C   UNL     1      -1.299  11.421  20.043  0.00  0.00    +0.000 A 
ENDROOT
BRANCH   1  16
ATOM     12  C   UNL     1      -5.462  15.137  23.785  0.00  0.00    +0.000 C 
ATOM     13  C   UNL     1      -4.384  14.327  23.127  0.00  0.00    +0.000 A 
ATOM     14  C   UNL     1      -3.614  14.844  22.083  0.00  0.00    +0.000 A 
ATOM     15  C   UNL     1      -2.605  14.071  21.492  0.00  0.00    +0.000 A 
ATOM     16  C   UNL     1      -2.365  12.760  21.933  0.00  0.00    +0.000 A 
ATOM     17  C   UNL     1      -3.140  12.248  22.979  0.00  0.00    +0.000 A 
ATOM     18  C   UNL     1      -4.137  13.026  23.574  0.00  0.00    +0.000 A 
ENDBRANCH   1  16
BRANCH   6  19
ATOM     19  C   UNL     1       1.310   9.156  18.546  0.00  0.00    +0.000 C 
ATOM     20  O   UNL     1       2.074   9.346  17.604  0.00  0.00    +0.000 OA
ATOM     21  N   UNL     1       1.515   8.159  19.476  0.00  0.00    +0.000 N 
ATOM     22  H   UNL     1       0.815   7.955  20.173  0.00  0.00    +0.000 HD
BRANCH  21  23
ATOM     23  C   UNL     1       2.614   7.221  19.330  0.00  0.00    +0.000 C 
BRANCH  23  24
ATOM     24  C   UNL     1       2.123   5.796  19.237  0.00  0.00    +0.000 A 
ATOM     25  C   UNL     1       2.119   5.137  17.996  0.00  0.00    +0.000 A 
ATOM     26  C   UNL     1       1.629   3.834  17.884  0.00  0.00    +0.000 A 
ATOM     27  C   UNL     1       1.138   3.191  19.011  0.00  0.00    +0.000 A 
ATOM     28  F   UNL     1       0.651   1.948  18.902  0.00  0.00    +0.000 F 
ATOM     29  C   UNL     1       1.141   3.818  20.252  0.00  0.00    +0.000 A 
ATOM     30  C   UNL     1       1.635   5.121  20.367  0.00  0.00    +0.000 A 
ENDBRANCH  23  24
ENDBRANCH  21  23
ENDBRANCH   6  19
TORSDOF 4
ENDMDL
