MODEL 1
REMARK VINA RESULT:      -8.4      0.000      0.000
REMARK  Name = 
REMARK  4 active torsions:
REMARK  status: ('A' for Active; 'I' for Inactive)
REMARK    1  A    between atoms: C_1  and  C_2
REMARK    2  A    between atoms: C_3  and  C_4
REMARK    3  A    between atoms: C_7  and  N_8
REMARK    4  A    between atoms: N_8  and  C_9
REMARK                            x       y       z     vdW  Elec       q    Type
REMARK                         _______ _______ _______ _____ _____    ______ ____
ROOT
ATOM      1  C   UNL     1       6.931   6.386  17.367  0.00  0.00    +0.000 A 
ATOM      2  N   UNL     1       7.986   6.707  18.126  0.00  0.00    +0.000 NA
ATOM      3  C   UNL     1       8.090   5.982  19.226  0.00  0.00    +0.000 A 
ATOM      4  N   UNL     1       7.192   5.077  19.637  0.00  0.00    +0.000 NA
ATOM      5  C   UNL     1       5.989   5.172  19.081  0.00  0.00    +0.000 A 
ATOM      6  C   UNL     1       4.962   4.571  19.774  0.00  0.00    +0.000 A 
ATOM      7  C   UNL     1       3.666   5.056  19.692  0.00  0.00    +0.000 A 
ATOM      8  C   UNL     1       3.381   6.110  18.836  0.00  0.00    +0.000 A 
ATOM      9  C   UNL     1       4.380   6.538  17.926  0.00  0.00    +0.000 A 
ATOM     10  C   UNL     1       5.725   5.994  17.993  0.00  0.00    +0.000 A 
ATOM     11  O   UNL     1       2.173   6.765  18.888  0.00  0.00    +0.000 OA
ATOM     12  C   UNL     1       1.443   6.501  20.107  0.00  0.00    +0.000 C 
ATOM     13  C   UNL     1       1.477   5.042  20.529  0.00  0.00    +0.000 C 
ATOM     14  O   UNL     1       2.799   4.516  20.600  0.00  0.00    +0.000 OA
ENDROOT
BRANCH   1  15
ATOM     15  N   UNL     1       7.441   5.966  16.105  0.00  0.00    +0.000 N 
ATOM     16  H   UNL     1       8.208   5.362  16.432  0.00  0.00    +0.000 HD
BRANCH  15  20
ATOM     17  C   UNL     1       5.623   3.796  12.876  0.00  0.00    +0.000 A 
ATOM     18  C   UNL     1       6.909   4.353  12.757  0.00  0.00    +0.000 A 
ATOM     19  C   UNL     1       7.494   5.094  13.810  0.00  0.00    +0.000 A 
ATOM     20  C   UNL     1       6.833   5.308  14.996  0.00  0.00    +0.000 A 
ATOM     21  C   UNL     1       5.574   4.683  15.146  0.00  0.00    +0.000 A 
ATOM     22  C   UNL     1       4.969   3.951  14.104  0.00  0.00    +0.000 A 
BRANCH  17  25
ATOM     23  C   UNL     1       3.135   2.836   9.981  0.00  0.00    +0.000 C 
ATOM     24  C   UNL     1       3.862   3.548  11.079  0.00  0.00    +0.000 C 
ATOM     25  C   UNL     1       4.947   3.098  11.745  0.00  0.00    +0.000 C 
ENDBRANCH  17  25
ENDBRANCH  15  20
ENDBRANCH   1  15
TORSDOF 3
ENDMDL
MODEL 2
REMARK VINA RESULT:      -8.2      3.056      7.703
REMARK  Name = 
REMARK  4 active torsions:
REMARK  status: ('A' for Active; 'I' for Inactive)
REMARK    1  A    between atoms: C_1  and  C_2
REMARK    2  A    between atoms: C_3  and  C_4
REMARK    3  A    between atoms: C_7  and  N_8
REMARK    4  A    between atoms: N_8  and  C_9
REMARK                            x       y       z     vdW  Elec       q    Type
REMARK                         _______ _______ _______ _____ _____    ______ ____
ROOT
ATOM      1  C   UNL     1       3.997   3.934  17.536  0.00  0.00    +0.000 A 
ATOM      2  N   UNL     1       4.587   3.440  18.631  0.00  0.00    +0.000 NA
ATOM      3  C   UNL     1       5.753   3.999  18.904  0.00  0.00    +0.000 A 
ATOM      4  N   UNL     1       6.374   4.898  18.131  0.00  0.00    +0.000 NA
ATOM      5  C   UNL     1       5.946   4.964  16.874  0.00  0.00    +0.000 A 
ATOM      6  C   UNL     1       6.819   5.533  15.975  0.00  0.00    +0.000 A 
ATOM      7  C   UNL     1       6.820   5.154  14.641  0.00  0.00    +0.000 A 
ATOM      8  C   UNL     1       5.871   4.249  14.185  0.00  0.00    +0.000 A 
ATOM      9  C   UNL     1       4.810   3.882  15.050  0.00  0.00    +0.000 A 
ATOM     10  C   UNL     1       4.797   4.318  16.435  0.00  0.00    +0.000 A 
ATOM     11  O   UNL     1       5.972   3.678  12.939  0.00  0.00    +0.000 OA
ATOM     12  C   UNL     1       7.288   3.822  12.359  0.00  0.00    +0.000 C 
ATOM     13  C   UNL     1       7.888   5.204  12.556  0.00  0.00    +0.000 C 
ATOM     14  O   UNL     1       7.879   5.623  13.917  0.00  0.00    +0.000 OA
ENDROOT
BRANCH   1  15
ATOM     15  N   UNL     1       2.751   4.487  17.950  0.00  0.00    +0.000 N 
ATOM     16  H   UNL     1       2.320   3.640  18.345  0.00  0.00    +0.000 HD
BRANCH  15  20
ATOM     17  C   UNL     1       1.554   7.687  20.551  0.00  0.00    +0.000 A 
ATOM     18  C   UNL     1       2.076   7.936  19.268  0.00  0.00    +0.000 A 
ATOM     19  C   UNL     1       2.498   6.882  18.425  0.00  0.00    +0.000 A 
ATOM     20  C   UNL     1       2.423   5.568  18.819  0.00  0.00    +0.000 A 
ATOM     21  C   UNL     1       1.828   5.312  20.075  0.00  0.00    +0.000 A 
ATOM     22  C   UNL     1       1.411   6.349  20.936  0.00  0.00    +0.000 A 
BRANCH  17  25
ATOM     23  C   UNL     1      -0.403  10.079  22.988  0.00  0.00    +0.000 C 
ATOM     24  C   UNL     1      -0.006   8.953  22.085  0.00  0.00    +0.000 C 
ATOM     25  C   UNL     1       1.196   8.784  21.494  0.00  0.00    +0.000 C 
ENDBRANCH  17  25
ENDBRANCH  15  20
ENDBRANCH   1  15
TORSDOF 3
ENDMDL
MODEL 3
REMARK VINA RESULT:      -8.2      4.175      9.006
REMARK  Name = 
REMARK  4 active torsions:
REMARK  status: ('A' for Active; 'I' for Inactive)
REMARK    1  A    between atoms: C_1  and  C_2
REMARK    2  A    between atoms: C_3  and  C_4
REMARK    3  A    between atoms: C_7  and  N_8
REMARK    4  A    between atoms: N_8  and  C_9
REMARK                            x       y       z     vdW  Elec       q    Type
REMARK                         _______ _______ _______ _____ _____    ______ ____
ROOT
ATOM      1  C   UNL     1       2.085   6.689  20.075  0.00  0.00    +0.000 A 
ATOM      2  N   UNL     1       1.241   5.722  20.455  0.00  0.00    +0.000 NA
ATOM      3  C   UNL     1       1.829   4.559  20.678  0.00  0.00    +0.000 A 
ATOM      4  N   UNL     1       3.123   4.299  20.455  0.00  0.00    +0.000 NA
ATOM      5  C   UNL     1       3.750   5.155  19.655  0.00  0.00    +0.000 A 
ATOM      6  C   UNL     1       4.908   4.691  19.073  0.00  0.00    +0.000 A 
ATOM      7  C   UNL     1       5.324   5.160  17.836  0.00  0.00    +0.000 A 
ATOM      8  C   UNL     1       4.608   6.171  17.211  0.00  0.00    +0.000 A 
ATOM      9  C   UNL     1       3.585   6.831  17.937  0.00  0.00    +0.000 A 
ATOM     10  C   UNL     1       3.185   6.358  19.250  0.00  0.00    +0.000 A 
ATOM     11  O   UNL     1       4.846   6.507  15.899  0.00  0.00    +0.000 OA
ATOM     12  C   UNL     1       5.598   5.498  15.188  0.00  0.00    +0.000 C 
ATOM     13  C   UNL     1       6.751   4.923  15.993  0.00  0.00    +0.000 C 
ATOM     14  O   UNL     1       6.352   4.454  17.278  0.00  0.00    +0.000 OA
ENDROOT
BRANCH   1  15
ATOM     15  N   UNL     1       2.001   7.721  21.053  0.00  0.00    +0.000 N 
ATOM     16  H   UNL     1       2.889   8.202  20.859  0.00  0.00    +0.000 HD
BRANCH  15  20
ATOM     17  C   UNL     1      -0.793  10.907  21.747  0.00  0.00    +0.000 A 
ATOM     18  C   UNL     1      -0.296  10.121  22.803  0.00  0.00    +0.000 A 
ATOM     19  C   UNL     1       0.601   9.052  22.569  0.00  0.00    +0.000 A 
ATOM     20  C   UNL     1       1.024   8.728  21.302  0.00  0.00    +0.000 A 
ATOM     21  C   UNL     1       0.586   9.566  20.250  0.00  0.00    +0.000 A 
ATOM     22  C   UNL     1      -0.317  10.629  20.461  0.00  0.00    +0.000 A 
BRANCH  17  25
ATOM     23  C   UNL     1      -3.520  13.258  23.337  0.00  0.00    +0.000 C 
ATOM     24  C   UNL     1      -2.452  12.232  23.119  0.00  0.00    +0.000 C 
ATOM     25  C   UNL     1      -1.814  11.973  21.958  0.00  0.00    +0.000 C 
ENDBRANCH  17  25
ENDBRANCH  15  20
ENDBRANCH   1  15
TORSDOF 3
ENDMDL
MODEL 4
REMARK VINA RESULT:      -8.0      3.849      8.003
REMARK  Name = 
REMARK  4 active torsions:
REMARK  status: ('A' for Active; 'I' for Inactive)
REMARK    1  A    between atoms: C_1  and  C_2
REMARK    2  A    between atoms: C_3  and  C_4
REMARK    3  A    between atoms: C_7  and  N_8
REMARK    4  A    between atoms: N_8  and  C_9
REMARK                            x       y       z     vdW  Elec       q    Type
REMARK                         _______ _______ _______ _____ _____    ______ ____
ROOT
ATOM      1  C   UNL     1       2.285   5.835  19.706  0.00  0.00    +0.000 A 
ATOM      2  N   UNL     1       1.596   4.754  20.091  0.00  0.00    +0.000 NA
ATOM      3  C   UNL     1       2.354   3.700  20.335  0.00  0.00    +0.000 A 
ATOM      4  N   UNL     1       3.675   3.639  20.127  0.00  0.00    +0.000 NA
ATOM      5  C   UNL     1       4.171   4.572  19.321  0.00  0.00    +0.000 A 
ATOM      6  C   UNL     1       5.392   4.286  18.756  0.00  0.00    +0.000 A 
ATOM      7  C   UNL     1       5.745   4.798  17.517  0.00  0.00    +0.000 A 
ATOM      8  C   UNL     1       4.889   5.680  16.872  0.00  0.00    +0.000 A 
ATOM      9  C   UNL     1       3.769   6.183  17.579  0.00  0.00    +0.000 A 
ATOM     10  C   UNL     1       3.432   5.669  18.895  0.00  0.00    +0.000 A 
ATOM     11  O   UNL     1       5.087   6.033  15.558  0.00  0.00    +0.000 OA
ATOM     12  C   UNL     1       5.993   5.143  14.867  0.00  0.00    +0.000 C 
ATOM     13  C   UNL     1       7.212   4.763  15.690  0.00  0.00    +0.000 C 
ATOM     14  O   UNL     1       6.875   4.253  16.977  0.00  0.00    +0.000 OA
ENDROOT
BRANCH   1  15
ATOM     15  N   UNL     1       2.032   6.854  20.670  0.00  0.00    +0.000 N 
ATOM     16  H   UNL     1       2.983   6.961  21.047  0.00  0.00    +0.000 HD
BRANCH  15  20
ATOM     17  C   UNL     1       0.552  10.866  20.284  0.00  0.00    +0.000 A 
ATOM     18  C   UNL     1       0.618  10.222  21.533  0.00  0.00    +0.000 A 
ATOM     19  C   UNL     1       1.077   8.890  21.654  0.00  0.00    +0.000 A 
ATOM     20  C   UNL     1       1.475   8.161  20.559  0.00  0.00    +0.000 A 
ATOM     21  C   UNL     1       1.482   8.832  19.315  0.00  0.00    +0.000 A 
ATOM     22  C   UNL     1       1.018  10.156  19.172  0.00  0.00    +0.000 A 
BRANCH  17  25
ATOM     23  C   UNL     1      -0.245  14.490  18.971  0.00  0.00    +0.000 C 
ATOM     24  C   UNL     1       0.274  13.094  19.122  0.00  0.00    +0.000 C 
ATOM     25  C   UNL     1      -0.021  12.232  20.119  0.00  0.00    +0.000 C 
ENDBRANCH  17  25
ENDBRANCH  15  20
ENDBRANCH   1  15
TORSDOF 3
ENDMDL
MODEL 5
REMARK VINA RESULT:      -8.0      4.063      8.767
REMARK  Name = 
REMARK  4 active torsions:
REMARK  status: ('A' for Active; 'I' for Inactive)
REMARK    1  A    between atoms: C_1  and  C_2
REMARK    2  A    between atoms: C_3  and  C_4
REMARK    3  A    between atoms: C_7  and  N_8
REMARK    4  A    between atoms: N_8  and  C_9
REMARK                            x       y       z     vdW  Elec       q    Type
REMARK                         _______ _______ _______ _____ _____    ______ ____
ROOT
ATOM      1  C   UNL     1       2.014   6.310  20.119  0.00  0.00    +0.000 A 
ATOM      2  N   UNL     1       1.213   5.288  20.443  0.00  0.00    +0.000 NA
ATOM      3  C   UNL     1       1.854   4.148  20.633  0.00  0.00    +0.000 A 
ATOM      4  N   UNL     1       3.163   3.960  20.427  0.00  0.00    +0.000 NA
ATOM      5  C   UNL     1       3.762   4.878  19.674  0.00  0.00    +0.000 A 
ATOM      6  C   UNL     1       4.951   4.495  19.099  0.00  0.00    +0.000 A 
ATOM      7  C   UNL     1       5.367   5.033  17.890  0.00  0.00    +0.000 A 
ATOM      8  C   UNL     1       4.614   6.032  17.290  0.00  0.00    +0.000 A 
ATOM      9  C   UNL     1       3.545   6.612  18.020  0.00  0.00    +0.000 A 
ATOM     10  C   UNL     1       3.145   6.067  19.305  0.00  0.00    +0.000 A 
ATOM     11  O   UNL     1       4.859   6.432  15.997  0.00  0.00    +0.000 OA
ATOM     12  C   UNL     1       5.673   5.490  15.263  0.00  0.00    +0.000 C 
ATOM     13  C   UNL     1       6.839   4.941  16.069  0.00  0.00    +0.000 C 
ATOM     14  O   UNL     1       6.439   4.402  17.325  0.00  0.00    +0.000 OA
ENDROOT
BRANCH   1  15
ATOM     15  N   UNL     1       1.860   7.296  21.135  0.00  0.00    +0.000 N 
ATOM     16  H   UNL     1       2.850   7.540  21.277  0.00  0.00    +0.000 HD
BRANCH  15  20
ATOM     17  C   UNL     1      -0.557  10.840  21.331  0.00  0.00    +0.000 A 
ATOM     18  C   UNL     1       0.014  10.404  20.121  0.00  0.00    +0.000 A 
ATOM     19  C   UNL     1       0.835   9.254  20.065  0.00  0.00    +0.000 A 
ATOM     20  C   UNL     1       1.117   8.511  21.187  0.00  0.00    +0.000 A 
ATOM     21  C   UNL     1       0.482   8.904  22.387  0.00  0.00    +0.000 A 
ATOM     22  C   UNL     1      -0.331  10.054  22.467  0.00  0.00    +0.000 A 
BRANCH  17  25
ATOM     23  C   UNL     1      -3.009  13.671  22.543  0.00  0.00    +0.000 C 
ATOM     24  C   UNL     1      -2.167  12.436  22.449  0.00  0.00    +0.000 C 
ATOM     25  C   UNL     1      -1.342  12.103  21.434  0.00  0.00    +0.000 C 
ENDBRANCH  17  25
ENDBRANCH  15  20
ENDBRANCH   1  15
TORSDOF 3
ENDMDL
MODEL 6
REMARK VINA RESULT:      -8.0      3.527      7.412
REMARK  Name = 
REMARK  4 active torsions:
REMARK  status: ('A' for Active; 'I' for Inactive)
REMARK    1  A    between atoms: C_1  and  C_2
REMARK    2  A    between atoms: C_3  and  C_4
REMARK    3  A    between atoms: C_7  and  N_8
REMARK    4  A    between atoms: N_8  and  C_9
REMARK                            x       y       z     vdW  Elec       q    Type
REMARK                         _______ _______ _______ _____ _____    ______ ____
ROOT
ATOM      1  C   UNL     1       3.195   5.161  19.221  0.00  0.00    +0.000 A 
ATOM      2  N   UNL     1       2.924   4.014  19.855  0.00  0.00    +0.000 NA
ATOM      3  C   UNL     1       3.994   3.284  20.116  0.00  0.00    +0.000 A 
ATOM      4  N   UNL     1       5.237   3.572  19.710  0.00  0.00    +0.000 NA
ATOM      5  C   UNL     1       5.325   4.449  18.715  0.00  0.00    +0.000 A 
ATOM      6  C   UNL     1       6.505   4.432  18.007  0.00  0.00    +0.000 A 
ATOM      7  C   UNL     1       6.540   4.795  16.669  0.00  0.00    +0.000 A 
ATOM      8  C   UNL     1       5.387   5.262  16.055  0.00  0.00    +0.000 A 
ATOM      9  C   UNL     1       4.251   5.537  16.858  0.00  0.00    +0.000 A 
ATOM     10  C   UNL     1       4.239   5.191  18.268  0.00  0.00    +0.000 A 
ATOM     11  O   UNL     1       5.318   5.416  14.691  0.00  0.00    +0.000 OA
ATOM     12  C   UNL     1       6.373   4.718  13.991  0.00  0.00    +0.000 C 
ATOM     13  C   UNL     1       7.733   4.860  14.653  0.00  0.00    +0.000 C 
ATOM     14  O   UNL     1       7.717   4.513  16.035  0.00  0.00    +0.000 OA
ENDROOT
BRANCH   1  15
ATOM     15  N   UNL     1       2.746   6.217  20.065  0.00  0.00    +0.000 N 
ATOM     16  H   UNL     1       3.624   6.409  20.567  0.00  0.00    +0.000 HD
BRANCH  15  20
ATOM     17  C   UNL     1       0.727   9.918  19.250  0.00  0.00    +0.000 A 
ATOM     18  C   UNL     1       1.428   9.225  18.246  0.00  0.00    +0.000 A 
ATOM     19  C   UNL     1       2.118   8.022  18.523  0.00  0.00    +0.000 A 
ATOM     20  C   UNL     1       2.141   7.477  19.785  0.00  0.00    +0.000 A 
ATOM     21  C   UNL     1       1.373   8.130  20.775  0.00  0.00    +0.000 A 
ATOM     22  C   UNL     1       0.687   9.336  20.522  0.00  0.00    +0.000 A 
BRANCH  17  25
ATOM     23  C   UNL     1       0.083  13.757  18.663  0.00  0.00    +0.000 C 
ATOM     24  C   UNL     1       0.719  12.415  18.853  0.00  0.00    +0.000 C 
ATOM     25  C   UNL     1       0.077  11.237  19.004  0.00  0.00    +0.000 C 
ENDBRANCH  17  25
ENDBRANCH  15  20
ENDBRANCH   1  15
TORSDOF 3
ENDMDL
MODEL 7
REMARK VINA RESULT:      -8.0      3.365      7.487
REMARK  Name = 
REMARK  4 active torsions:
REMARK  status: ('A' for Active; 'I' for Inactive)
REMARK    1  A    between atoms: C_1  and  C_2
REMARK    2  A    between atoms: C_3  and  C_4
REMARK    3  A    between atoms: C_7  and  N_8
REMARK    4  A    between atoms: N_8  and  C_9
REMARK                            x       y       z     vdW  Elec       q    Type
REMARK                         _______ _______ _______ _____ _____    ______ ____
ROOT
ATOM      1  C   UNL     1       3.299   5.122  19.315  0.00  0.00    +0.000 A 
ATOM      2  N   UNL     1       3.019   3.957  19.912  0.00  0.00    +0.000 NA
ATOM      3  C   UNL     1       4.078   3.193  20.111  0.00  0.00    +0.000 A 
ATOM      4  N   UNL     1       5.315   3.468  19.679  0.00  0.00    +0.000 NA
ATOM      5  C   UNL     1       5.396   4.382  18.718  0.00  0.00    +0.000 A 
ATOM      6  C   UNL     1       6.553   4.366  17.974  0.00  0.00    +0.000 A 
ATOM      7  C   UNL     1       6.558   4.781  16.650  0.00  0.00    +0.000 A 
ATOM      8  C   UNL     1       5.399   5.299  16.090  0.00  0.00    +0.000 A 
ATOM      9  C   UNL     1       4.294   5.568  16.937  0.00  0.00    +0.000 A 
ATOM     10  C   UNL     1       4.315   5.166  18.333  0.00  0.00    +0.000 A 
ATOM     11  O   UNL     1       5.294   5.509  14.736  0.00  0.00    +0.000 OA
ATOM     12  C   UNL     1       6.310   4.815  13.978  0.00  0.00    +0.000 C 
ATOM     13  C   UNL     1       7.693   4.899  14.604  0.00  0.00    +0.000 C 
ATOM     14  O   UNL     1       7.709   4.497  15.970  0.00  0.00    +0.000 OA
ENDROOT
BRANCH   1  15
ATOM     15  N   UNL     1       2.901   6.154  20.213  0.00  0.00    +0.000 N 
ATOM     16  H   UNL     1       3.831   6.502  20.483  0.00  0.00    +0.000 HD
BRANCH  15  20
ATOM     17  C   UNL     1       0.540   9.706  19.717  0.00  0.00    +0.000 A 
ATOM     18  C   UNL     1       0.554   8.994  20.931  0.00  0.00    +0.000 A 
ATOM     19  C   UNL     1       1.308   7.808  21.082  0.00  0.00    +0.000 A 
ATOM     20  C   UNL     1       2.058   7.292  20.053  0.00  0.00    +0.000 A 
ATOM     21  C   UNL     1       2.107   8.048  18.859  0.00  0.00    +0.000 A 
ATOM     22  C   UNL     1       1.353   9.227  18.684  0.00  0.00    +0.000 A 
BRANCH  17  25
ATOM     23  C   UNL     1      -2.373  12.105  18.598  0.00  0.00    +0.000 C 
ATOM     24  C   UNL     1      -1.519  10.907  18.875  0.00  0.00    +0.000 C 
ATOM     25  C   UNL     1      -0.324  10.902  19.502  0.00  0.00    +0.000 C 
ENDBRANCH  17  25
ENDBRANCH  15  20
ENDBRANCH   1  15
TORSDOF 3
ENDMDL
MODEL 8
REMARK VINA RESULT:      -7.8      1.218      1.669
REMARK  Name = 
REMARK  4 active torsions:
REMARK  status: ('A' for Active; 'I' for Inactive)
REMARK    1  A    between atoms: C_1  and  C_2
REMARK    2  A    between atoms: C_3  and  C_4
REMARK    3  A    between atoms: C_7  and  N_8
REMARK    4  A    between atoms: N_8  and  C_9
REMARK                            x       y       z     vdW  Elec       q    Type
REMARK                         _______ _______ _______ _____ _____    ______ ____
ROOT
ATOM      1  C   UNL     1       6.313   6.522  17.391  0.00  0.00    +0.000 A 
ATOM      2  N   UNL     1       7.376   6.894  18.113  0.00  0.00    +0.000 NA
ATOM      3  C   UNL     1       7.767   5.988  18.992  0.00  0.00    +0.000 A 
ATOM      4  N   UNL     1       7.127   4.840  19.246  0.00  0.00    +0.000 NA
ATOM      5  C   UNL     1       5.864   4.784  18.834  0.00  0.00    +0.000 A 
ATOM      6  C   UNL     1       5.078   3.835  19.445  0.00  0.00    +0.000 A 
ATOM      7  C   UNL     1       3.712   4.026  19.593  0.00  0.00    +0.000 A 
ATOM      8  C   UNL     1       3.114   5.152  19.045  0.00  0.00    +0.000 A 
ATOM      9  C   UNL     1       3.880   5.979  18.185  0.00  0.00    +0.000 A 
ATOM     10  C   UNL     1       5.301   5.746  18.003  0.00  0.00    +0.000 A 
ATOM     11  O   UNL     1       1.820   5.495  19.356  0.00  0.00    +0.000 OA
ATOM     12  C   UNL     1       1.326   4.817  20.533  0.00  0.00    +0.000 C 
ATOM     13  C   UNL     1       1.701   3.346  20.585  0.00  0.00    +0.000 C 
ATOM     14  O   UNL     1       3.098   3.123  20.413  0.00  0.00    +0.000 OA
ENDROOT
BRANCH   1  15
ATOM     15  N   UNL     1       6.721   6.511  16.026  0.00  0.00    +0.000 N 
ATOM     16  H   UNL     1       7.724   6.702  16.154  0.00  0.00    +0.000 HD
BRANCH  15  20
ATOM     17  C   UNL     1       6.355   3.712  12.790  0.00  0.00    +0.000 A 
ATOM     18  C   UNL     1       5.379   3.802  13.800  0.00  0.00    +0.000 A 
ATOM     19  C   UNL     1       5.517   4.703  14.881  0.00  0.00    +0.000 A 
ATOM     20  C   UNL     1       6.609   5.529  15.000  0.00  0.00    +0.000 A 
ATOM     21  C   UNL     1       7.551   5.494  13.946  0.00  0.00    +0.000 A 
ATOM     22  C   UNL     1       7.438   4.595  12.865  0.00  0.00    +0.000 A 
BRANCH  17  25
ATOM     23  C   UNL     1       6.037   0.343  10.781  0.00  0.00    +0.000 C 
ATOM     24  C   UNL     1       6.058   1.381  11.859  0.00  0.00    +0.000 C 
ATOM     25  C   UNL     1       6.281   2.702  11.696  0.00  0.00    +0.000 C 
ENDBRANCH  17  25
ENDBRANCH  15  20
ENDBRANCH   1  15
TORSDOF 3
ENDMDL
MODEL 9
REMARK VINA RESULT:      -7.7      3.109      7.210
REMARK  Name = 
REMARK  4 active torsions:
REMARK  status: ('A' for Active; 'I' for Inactive)
REMARK    1  A    between atoms: C_1  and  C_2
REMARK    2  A    between atoms: C_3  and  C_4
REMARK    3  A    between atoms: C_7  and  N_8
REMARK    4  A    between atoms: N_8  and  C_9
REMARK                            x       y       z     vdW  Elec       q    Type
REMARK                         _______ _______ _______ _____ _____    ______ ____
ROOT
ATOM      1  C   UNL     1       4.442   4.218  18.284  0.00  0.00    +0.000 A 
ATOM      2  N   UNL     1       5.172   3.751  19.304  0.00  0.00    +0.000 NA
ATOM      3  C   UNL     1       6.381   4.279  19.378  0.00  0.00    +0.000 A 
ATOM      4  N   UNL     1       6.908   5.120  18.480  0.00  0.00    +0.000 NA
ATOM      5  C   UNL     1       6.302   5.147  17.296  0.00  0.00    +0.000 A 
ATOM      6  C   UNL     1       7.050   5.644  16.254  0.00  0.00    +0.000 A 
ATOM      7  C   UNL     1       6.843   5.208  14.954  0.00  0.00    +0.000 A 
ATOM      8  C   UNL     1       5.812   4.319  14.685  0.00  0.00    +0.000 A 
ATOM      9  C   UNL     1       4.878   4.028  15.712  0.00  0.00    +0.000 A 
ATOM     10  C   UNL     1       5.082   4.524  17.061  0.00  0.00    +0.000 A 
ATOM     11  O   UNL     1       5.711   3.691  13.467  0.00  0.00    +0.000 OA
ATOM     12  C   UNL     1       6.931   3.761  12.695  0.00  0.00    +0.000 C 
ATOM     13  C   UNL     1       7.595   5.128  12.736  0.00  0.00    +0.000 C 
ATOM     14  O   UNL     1       7.799   5.606  14.062  0.00  0.00    +0.000 OA
ENDROOT
BRANCH   1  15
ATOM     15  N   UNL     1       3.287   4.833  18.848  0.00  0.00    +0.000 N 
ATOM     16  H   UNL     1       3.397   4.523  19.823  0.00  0.00    +0.000 HD
BRANCH  15  20
ATOM     17  C   UNL     1       1.749   8.840  18.981  0.00  0.00    +0.000 A 
ATOM     18  C   UNL     1       2.333   8.314  17.813  0.00  0.00    +0.000 A 
ATOM     19  C   UNL     1       2.866   7.004  17.781  0.00  0.00    +0.000 A 
ATOM     20  C   UNL     1       2.844   6.187  18.886  0.00  0.00    +0.000 A 
ATOM     21  C   UNL     1       2.189   6.687  20.035  0.00  0.00    +0.000 A 
ATOM     22  C   UNL     1       1.661   7.994  20.091  0.00  0.00    +0.000 A 
BRANCH  17  25
ATOM     23  C   UNL     1       0.039  12.177  20.178  0.00  0.00    +0.000 C 
ATOM     24  C   UNL     1       0.578  10.783  20.096  0.00  0.00    +0.000 C 
ATOM     25  C   UNL     1       1.271  10.250  19.068  0.00  0.00    +0.000 C 
ENDBRANCH  17  25
ENDBRANCH  15  20
ENDBRANCH   1  15
TORSDOF 3
ENDMDL
