MODEL 1
REMARK VINA RESULT:      -7.7      0.000      0.000
REMARK  Name = 
REMARK  8 active torsions:
REMARK  status: ('A' for Active; 'I' for Inactive)
REMARK    1  A    between atoms: C_2  and  C_23
REMARK    2  A    between atoms: N_3  and  C_4
REMARK    3  A    between atoms: C_4  and  C_5
REMARK    4  A    between atoms: C_5  and  C_6
REMARK    5  A    between atoms: C_6  and  C_7
REMARK    6  A    between atoms: C_7  and  N_8
REMARK    7  A    between atoms: C_26  and  N_27
REMARK    8  A    between atoms: N_28  and  C_29
REMARK                            x       y       z     vdW  Elec       q    Type
REMARK                         _______ _______ _______ _____ _____    ______ ____
ROOT
ATOM      1  C   UNL     1      -1.872  11.672  23.425  0.00  0.00    +0.000 C 
ENDROOT
BRANCH   1   4
ATOM      2  O   UNL     1       0.413  12.476  21.889  0.00  0.00    +0.000 OA
ATOM      3  C   UNL     1      -0.095  11.373  21.712  0.00  0.00    +0.000 C 
ATOM      4  N   UNL     1      -1.193  10.901  22.401  0.00  0.00    +0.000 N 
ATOM      5  H   UNL     1      -1.440   9.924  22.329  0.00  0.00    +0.000 HD
BRANCH   3   6
ATOM      6  C   UNL     1       0.500  10.448  20.715  0.00  0.00    +0.000 A 
ATOM      7  C   UNL     1       1.027   9.231  21.152  0.00  0.00    +0.000 A 
ATOM      8  C   UNL     1       1.612   8.356  20.231  0.00  0.00    +0.000 A 
ATOM      9  C   UNL     1       1.668   8.673  18.865  0.00  0.00    +0.000 A 
ATOM     10  C   UNL     1       1.142   9.903  18.444  0.00  0.00    +0.000 A 
ATOM     11  C   UNL     1       0.557  10.783  19.358  0.00  0.00    +0.000 A 
BRANCH   9  12
ATOM     12  N   UNL     1       2.272   7.734  18.005  0.00  0.00    +0.000 NA
ATOM     13  N   UNL     1       3.031   6.947  18.605  0.00  0.00    +0.000 NA
BRANCH  13  14
ATOM     14  C   UNL     1       3.741   6.111  17.718  0.00  0.00    +0.000 A 
ATOM     15  C   UNL     1       3.436   4.745  17.724  0.00  0.00    +0.000 A 
ATOM     16  C   UNL     1       4.116   3.855  16.889  0.00  0.00    +0.000 A 
ATOM     17  C   UNL     1       5.105   4.326  16.027  0.00  0.00    +0.000 A 
ATOM     18  C   UNL     1       5.402   5.687  15.990  0.00  0.00    +0.000 A 
ATOM     19  C   UNL     1       4.719   6.575  16.826  0.00  0.00    +0.000 A 
ENDBRANCH  13  14
ENDBRANCH   9  12
ENDBRANCH   3   6
ENDBRANCH   1   4
BRANCH   1  20
ATOM     20  C   UNL     1      -2.781  12.729  22.802  0.00  0.00    +0.000 C 
BRANCH  20  21
ATOM     21  C   UNL     1      -2.848  14.024  23.615  0.00  0.00    +0.000 C 
BRANCH  21  22
ATOM     22  C   UNL     1      -1.540  14.827  23.624  0.00  0.00    +0.000 C 
BRANCH  22  23
ATOM     23  N   UNL     1      -1.639  16.152  22.984  0.00  0.00    +0.000 NA
ATOM     24  C   UNL     1      -0.331  16.847  22.921  0.00  0.00    +0.000 C 
ATOM     25  C   UNL     1       0.715  16.100  22.073  0.00  0.00    +0.000 C 
ATOM     26  N   UNL     1       0.188  15.993  20.711  0.00  0.00    +0.000 N 
ATOM     27  C   UNL     1       1.036  16.198  19.671  0.00  0.00    +0.000 A 
ATOM     28  N   UNL     1       2.313  15.826  19.694  0.00  0.00    +0.000 NA
ATOM     29  S   UNL     1       3.086  16.410  18.365  0.00  0.00    +0.000 S 
ATOM     30  C   UNL     1       1.736  17.241  17.708  0.00  0.00    +0.000 A 
ATOM     31  C   UNL     1       1.660  18.049  16.561  0.00  0.00    +0.000 A 
ATOM     32  C   UNL     1       0.431  18.630  16.240  0.00  0.00    +0.000 A 
ATOM     33  C   UNL     1      -0.685  18.424  17.042  0.00  0.00    +0.000 A 
ATOM     34  C   UNL     1      -0.587  17.641  18.190  0.00  0.00    +0.000 A 
ATOM     35  C   UNL     1       0.638  17.009  18.535  0.00  0.00    +0.000 A 
ATOM     36  C   UNL     1      -1.129  15.359  20.586  0.00  0.00    +0.000 C 
ATOM     37  C   UNL     1      -2.135  16.001  21.587  0.00  0.00    +0.000 C 
ENDBRANCH  22  23
ENDBRANCH  21  22
ENDBRANCH  20  21
ENDBRANCH   1  20
TORSDOF 8
ENDMDL
MODEL 2
REMARK VINA RESULT:      -7.3      4.872      9.311
REMARK  Name = 
REMARK  8 active torsions:
REMARK  status: ('A' for Active; 'I' for Inactive)
REMARK    1  A    between atoms: C_2  and  C_23
REMARK    2  A    between atoms: N_3  and  C_4
REMARK    3  A    between atoms: C_4  and  C_5
REMARK    4  A    between atoms: C_5  and  C_6
REMARK    5  A    between atoms: C_6  and  C_7
REMARK    6  A    between atoms: C_7  and  N_8
REMARK    7  A    between atoms: C_26  and  N_27
REMARK    8  A    between atoms: N_28  and  C_29
REMARK                            x       y       z     vdW  Elec       q    Type
REMARK                         _______ _______ _______ _____ _____    ______ ____
ROOT
ATOM      1  C   UNL     1       4.855   2.434  18.819  0.00  0.00    +0.000 C 
ENDROOT
BRANCH   1   4
ATOM      2  O   UNL     1       5.256   4.123  16.536  0.00  0.00    +0.000 OA
ATOM      3  C   UNL     1       5.729   4.431  17.624  0.00  0.00    +0.000 C 
ATOM      4  N   UNL     1       5.589   3.684  18.776  0.00  0.00    +0.000 N 
ATOM      5  H   UNL     1       5.849   4.089  19.663  0.00  0.00    +0.000 HD
BRANCH   3   6
ATOM      6  C   UNL     1       6.489   5.700  17.756  0.00  0.00    +0.000 A 
ATOM      7  C   UNL     1       6.136   6.786  16.952  0.00  0.00    +0.000 A 
ATOM      8  C   UNL     1       6.854   7.983  17.045  0.00  0.00    +0.000 A 
ATOM      9  C   UNL     1       7.921   8.119  17.947  0.00  0.00    +0.000 A 
ATOM     10  C   UNL     1       8.267   7.016  18.740  0.00  0.00    +0.000 A 
ATOM     11  C   UNL     1       7.556   5.817  18.653  0.00  0.00    +0.000 A 
BRANCH   9  12
ATOM     12  N   UNL     1       8.589   9.359  17.979  0.00  0.00    +0.000 NA
ATOM     13  N   UNL     1       8.989   9.664  19.121  0.00  0.00    +0.000 NA
BRANCH  13  14
ATOM     14  C   UNL     1       9.522  10.969  19.168  0.00  0.00    +0.000 A 
ATOM     15  C   UNL     1      10.401  11.277  20.213  0.00  0.00    +0.000 A 
ATOM     16  C   UNL     1      10.949  12.556  20.336  0.00  0.00    +0.000 A 
ATOM     17  C   UNL     1      10.630  13.543  19.404  0.00  0.00    +0.000 A 
ATOM     18  C   UNL     1       9.777  13.245  18.343  0.00  0.00    +0.000 A 
ATOM     19  C   UNL     1       9.232  11.963  18.222  0.00  0.00    +0.000 A 
ENDBRANCH  13  14
ENDBRANCH   9  12
ENDBRANCH   3   6
ENDBRANCH   1   4
BRANCH   1  20
ATOM     20  C   UNL     1       4.287   2.179  20.213  0.00  0.00    +0.000 C 
BRANCH  20  21
ATOM     21  C   UNL     1       3.133   3.116  20.577  0.00  0.00    +0.000 C 
BRANCH  21  22
ATOM     22  C   UNL     1       3.225   4.505  19.930  0.00  0.00    +0.000 C 
BRANCH  22  23
ATOM     23  N   UNL     1       1.983   4.947  19.268  0.00  0.00    +0.000 NA
ATOM     24  C   UNL     1       0.892   5.213  20.237  0.00  0.00    +0.000 C 
ATOM     25  C   UNL     1       1.217   6.352  21.221  0.00  0.00    +0.000 C 
ATOM     26  N   UNL     1       1.439   7.568  20.436  0.00  0.00    +0.000 N 
ATOM     27  C   UNL     1       0.923   8.737  20.894  0.00  0.00    +0.000 A 
ATOM     28  N   UNL     1       0.853   9.039  22.189  0.00  0.00    +0.000 NA
ATOM     29  S   UNL     1      -0.007  10.427  22.389  0.00  0.00    +0.000 S 
ATOM     30  C   UNL     1      -0.369  10.670  20.730  0.00  0.00    +0.000 A 
ATOM     31  C   UNL     1      -1.152  11.668  20.126  0.00  0.00    +0.000 A 
ATOM     32  C   UNL     1      -1.306  11.641  18.738  0.00  0.00    +0.000 A 
ATOM     33  C   UNL     1      -0.711  10.643  17.974  0.00  0.00    +0.000 A 
ATOM     34  C   UNL     1       0.040   9.645  18.591  0.00  0.00    +0.000 A 
ATOM     35  C   UNL     1       0.245   9.654  19.997  0.00  0.00    +0.000 A 
ATOM     36  C   UNL     1       2.467   7.474  19.394  0.00  0.00    +0.000 C 
ATOM     37  C   UNL     1       2.234   6.209  18.516  0.00  0.00    +0.000 C 
ENDBRANCH  22  23
ENDBRANCH  21  22
ENDBRANCH  20  21
ENDBRANCH   1  20
TORSDOF 8
ENDMDL
MODEL 3
REMARK VINA RESULT:      -7.2      5.034      9.437
REMARK  Name = 
REMARK  8 active torsions:
REMARK  status: ('A' for Active; 'I' for Inactive)
REMARK    1  A    between atoms: C_2  and  C_23
REMARK    2  A    between atoms: N_3  and  C_4
REMARK    3  A    between atoms: C_4  and  C_5
REMARK    4  A    between atoms: C_5  and  C_6
REMARK    5  A    between atoms: C_6  and  C_7
REMARK    6  A    between atoms: C_7  and  N_8
REMARK    7  A    between atoms: C_26  and  N_27
REMARK    8  A    between atoms: N_28  and  C_29
REMARK                            x       y       z     vdW  Elec       q    Type
REMARK                         _______ _______ _______ _____ _____    ______ ____
ROOT
ATOM      1  C   UNL     1       0.195  14.646  20.006  0.00  0.00    +0.000 C 
ENDROOT
BRANCH   1   4
ATOM      2  O   UNL     1       1.863  16.980  19.961  0.00  0.00    +0.000 OA
ATOM      3  C   UNL     1       2.301  15.898  19.582  0.00  0.00    +0.000 C 
ATOM      4  N   UNL     1       1.576  14.725  19.567  0.00  0.00    +0.000 N 
ATOM      5  H   UNL     1       2.055  13.849  19.414  0.00  0.00    +0.000 HD
BRANCH   3   6
ATOM      6  C   UNL     1       3.710  15.803  19.124  0.00  0.00    +0.000 A 
ATOM      7  C   UNL     1       4.131  14.643  18.469  0.00  0.00    +0.000 A 
ATOM      8  C   UNL     1       5.460  14.524  18.051  0.00  0.00    +0.000 A 
ATOM      9  C   UNL     1       6.383  15.560  18.266  0.00  0.00    +0.000 A 
ATOM     10  C   UNL     1       5.946  16.713  18.934  0.00  0.00    +0.000 A 
ATOM     11  C   UNL     1       4.619  16.839  19.356  0.00  0.00    +0.000 A 
BRANCH   9  12
ATOM     12  N   UNL     1       7.701  15.360  17.811  0.00  0.00    +0.000 NA
ATOM     13  N   UNL     1       8.237  14.349  18.310  0.00  0.00    +0.000 NA
BRANCH  13  14
ATOM     14  C   UNL     1       9.600  14.243  17.963  0.00  0.00    +0.000 A 
ATOM     15  C   UNL     1      10.429  15.338  18.238  0.00  0.00    +0.000 A 
ATOM     16  C   UNL     1      11.784  15.313  17.901  0.00  0.00    +0.000 A 
ATOM     17  C   UNL     1      12.329  14.184  17.291  0.00  0.00    +0.000 A 
ATOM     18  C   UNL     1      11.523  13.077  17.034  0.00  0.00    +0.000 A 
ATOM     19  C   UNL     1      10.168  13.105  17.375  0.00  0.00    +0.000 A 
ENDBRANCH  13  14
ENDBRANCH   9  12
ENDBRANCH   3   6
ENDBRANCH   1   4
BRANCH   1  20
ATOM     20  C   UNL     1      -0.653  13.860  19.010  0.00  0.00    +0.000 C 
BRANCH  20  21
ATOM     21  C   UNL     1      -0.020  12.531  18.591  0.00  0.00    +0.000 C 
BRANCH  21  22
ATOM     22  C   UNL     1       0.300  11.592  19.762  0.00  0.00    +0.000 C 
BRANCH  22  23
ATOM     23  N   UNL     1      -0.379  10.285  19.692  0.00  0.00    +0.000 NA
ATOM     24  C   UNL     1      -0.169   9.611  18.387  0.00  0.00    +0.000 C 
ATOM     25  C   UNL     1       1.307   9.281  18.103  0.00  0.00    +0.000 C 
ATOM     26  N   UNL     1       1.773   8.383  19.163  0.00  0.00    +0.000 N 
ATOM     27  C   UNL     1       2.568   7.336  18.821  0.00  0.00    +0.000 A 
ATOM     28  N   UNL     1       3.476   7.403  17.850  0.00  0.00    +0.000 NA
ATOM     29  S   UNL     1       4.103   5.909  17.573  0.00  0.00    +0.000 S 
ATOM     30  C   UNL     1       3.141   5.079  18.727  0.00  0.00    +0.000 A 
ATOM     31  C   UNL     1       3.086   3.707  19.018  0.00  0.00    +0.000 A 
ATOM     32  C   UNL     1       2.200   3.273  20.007  0.00  0.00    +0.000 A 
ATOM     33  C   UNL     1       1.384   4.177  20.677  0.00  0.00    +0.000 A 
ATOM     34  C   UNL     1       1.432   5.532  20.358  0.00  0.00    +0.000 A 
ATOM     35  C   UNL     1       2.340   6.016  19.379  0.00  0.00    +0.000 A 
ATOM     36  C   UNL     1       1.607   8.877  20.534  0.00  0.00    +0.000 C 
ATOM     37  C   UNL     1       0.152   9.383  20.754  0.00  0.00    +0.000 C 
ENDBRANCH  22  23
ENDBRANCH  21  22
ENDBRANCH  20  21
ENDBRANCH   1  20
TORSDOF 8
ENDMDL
MODEL 4
REMARK VINA RESULT:      -7.2      3.919      6.408
REMARK  Name = 
REMARK  8 active torsions:
REMARK  status: ('A' for Active; 'I' for Inactive)
REMARK    1  A    between atoms: C_2  and  C_23
REMARK    2  A    between atoms: N_3  and  C_4
REMARK    3  A    between atoms: C_4  and  C_5
REMARK    4  A    between atoms: C_5  and  C_6
REMARK    5  A    between atoms: C_6  and  C_7
REMARK    6  A    between atoms: C_7  and  N_8
REMARK    7  A    between atoms: C_26  and  N_27
REMARK    8  A    between atoms: N_28  and  C_29
REMARK                            x       y       z     vdW  Elec       q    Type
REMARK                         _______ _______ _______ _____ _____    ______ ____
ROOT
ATOM      1  C   UNL     1       0.973   7.557  21.622  0.00  0.00    +0.000 C 
ENDROOT
BRANCH   1   4
ATOM      2  O   UNL     1       1.858   4.833  21.464  0.00  0.00    +0.000 OA
ATOM      3  C   UNL     1       2.144   5.629  20.576  0.00  0.00    +0.000 C 
ATOM      4  N   UNL     1       1.764   6.955  20.566  0.00  0.00    +0.000 N 
ATOM      5  H   UNL     1       1.882   7.497  19.722  0.00  0.00    +0.000 HD
BRANCH   3   6
ATOM      6  C   UNL     1       2.930   5.164  19.406  0.00  0.00    +0.000 A 
ATOM      7  C   UNL     1       3.619   6.105  18.637  0.00  0.00    +0.000 A 
ATOM      8  C   UNL     1       4.347   5.690  17.517  0.00  0.00    +0.000 A 
ATOM      9  C   UNL     1       4.409   4.335  17.156  0.00  0.00    +0.000 A 
ATOM     10  C   UNL     1       3.704   3.405  17.933  0.00  0.00    +0.000 A 
ATOM     11  C   UNL     1       2.974   3.812  19.053  0.00  0.00    +0.000 A 
BRANCH   9  12
ATOM     12  N   UNL     1       5.166   4.003  16.015  0.00  0.00    +0.000 NA
ATOM     13  N   UNL     1       5.443   4.996  15.311  0.00  0.00    +0.000 NA
BRANCH  13  14
ATOM     14  C   UNL     1       6.070   4.632  14.101  0.00  0.00    +0.000 A 
ATOM     15  C   UNL     1       7.241   5.311  13.745  0.00  0.00    +0.000 A 
ATOM     16  C   UNL     1       7.903   5.020  12.549  0.00  0.00    +0.000 A 
ATOM     17  C   UNL     1       7.403   4.036  11.698  0.00  0.00    +0.000 A 
ATOM     18  C   UNL     1       6.252   3.333  12.051  0.00  0.00    +0.000 A 
ATOM     19  C   UNL     1       5.594   3.625  13.249  0.00  0.00    +0.000 A 
ENDBRANCH  13  14
ENDBRANCH   9  12
ENDBRANCH   3   6
ENDBRANCH   1   4
BRANCH   1  20
ATOM     20  C   UNL     1       1.099   9.078  21.604  0.00  0.00    +0.000 C 
BRANCH  20  21
ATOM     21  C   UNL     1      -0.246   9.799  21.721  0.00  0.00    +0.000 C 
BRANCH  21  22
ATOM     22  C   UNL     1      -0.550  10.752  20.557  0.00  0.00    +0.000 C 
BRANCH  22  23
ATOM     23  N   UNL     1      -0.417  12.181  20.895  0.00  0.00    +0.000 NA
ATOM     24  C   UNL     1      -1.355  13.032  20.123  0.00  0.00    +0.000 C 
ATOM     25  C   UNL     1      -2.836  12.717  20.405  0.00  0.00    +0.000 C 
ATOM     26  N   UNL     1      -3.075  12.949  21.832  0.00  0.00    +0.000 N 
ATOM     27  C   UNL     1      -4.227  13.565  22.203  0.00  0.00    +0.000 A 
ATOM     28  N   UNL     1      -5.384  13.376  21.573  0.00  0.00    +0.000 NA
ATOM     29  S   UNL     1      -6.509  14.426  22.153  0.00  0.00    +0.000 S 
ATOM     30  C   UNL     1      -5.472  15.226  23.262  0.00  0.00    +0.000 A 
ATOM     31  C   UNL     1      -5.740  16.320  24.101  0.00  0.00    +0.000 A 
ATOM     32  C   UNL     1      -4.710  16.800  24.914  0.00  0.00    +0.000 A 
ATOM     33  C   UNL     1      -3.448  16.219  24.882  0.00  0.00    +0.000 A 
ATOM     34  C   UNL     1      -3.191  15.151  24.025  0.00  0.00    +0.000 A 
ATOM     35  C   UNL     1      -4.220  14.615  23.204  0.00  0.00    +0.000 A 
ATOM     36  C   UNL     1      -2.203  12.210  22.752  0.00  0.00    +0.000 C 
ATOM     37  C   UNL     1      -0.712  12.386  22.342  0.00  0.00    +0.000 C 
ENDBRANCH  22  23
ENDBRANCH  21  22
ENDBRANCH  20  21
ENDBRANCH   1  20
TORSDOF 8
ENDMDL
MODEL 5
REMARK VINA RESULT:      -7.1      4.879      6.082
REMARK  Name = 
REMARK  8 active torsions:
REMARK  status: ('A' for Active; 'I' for Inactive)
REMARK    1  A    between atoms: C_2  and  C_23
REMARK    2  A    between atoms: N_3  and  C_4
REMARK    3  A    between atoms: C_4  and  C_5
REMARK    4  A    between atoms: C_5  and  C_6
REMARK    5  A    between atoms: C_6  and  C_7
REMARK    6  A    between atoms: C_7  and  N_8
REMARK    7  A    between atoms: C_26  and  N_27
REMARK    8  A    between atoms: N_28  and  C_29
REMARK                            x       y       z     vdW  Elec       q    Type
REMARK                         _______ _______ _______ _____ _____    ______ ____
ROOT
ATOM      1  C   UNL     1       0.423  14.466  21.539  0.00  0.00    +0.000 C 
ENDROOT
BRANCH   1   4
ATOM      2  O   UNL     1      -1.087  12.046  21.837  0.00  0.00    +0.000 OA
ATOM      3  C   UNL     1       0.033  12.019  21.337  0.00  0.00    +0.000 C 
ATOM      4  N   UNL     1       0.831  13.129  21.153  0.00  0.00    +0.000 N 
ATOM      5  H   UNL     1       1.656  13.054  20.576  0.00  0.00    +0.000 HD
BRANCH   3   6
ATOM      6  C   UNL     1       0.589  10.727  20.863  0.00  0.00    +0.000 A 
ATOM      7  C   UNL     1       0.728   9.676  21.773  0.00  0.00    +0.000 A 
ATOM      8  C   UNL     1       1.270   8.458  21.351  0.00  0.00    +0.000 A 
ATOM      9  C   UNL     1       1.668   8.265  20.019  0.00  0.00    +0.000 A 
ATOM     10  C   UNL     1       1.530   9.333  19.121  0.00  0.00    +0.000 A 
ATOM     11  C   UNL     1       0.990  10.554  19.535  0.00  0.00    +0.000 A 
BRANCH   9  12
ATOM     12  N   UNL     1       2.203   7.007  19.678  0.00  0.00    +0.000 NA
ATOM     13  N   UNL     1       2.260   6.824  18.444  0.00  0.00    +0.000 NA
BRANCH  13  14
ATOM     14  C   UNL     1       2.655   5.510  18.119  0.00  0.00    +0.000 A 
ATOM     15  C   UNL     1       4.027   5.228  18.101  0.00  0.00    +0.000 A 
ATOM     16  C   UNL     1       4.492   3.954  17.764  0.00  0.00    +0.000 A 
ATOM     17  C   UNL     1       3.586   2.942  17.451  0.00  0.00    +0.000 A 
ATOM     18  C   UNL     1       2.217   3.200  17.490  0.00  0.00    +0.000 A 
ATOM     19  C   UNL     1       1.755   4.475  17.829  0.00  0.00    +0.000 A 
ENDBRANCH  13  14
ENDBRANCH   9  12
ENDBRANCH   3   6
ENDBRANCH   1   4
BRANCH   1  20
ATOM     20  C   UNL     1       1.477  15.497  21.144  0.00  0.00    +0.000 C 
BRANCH  20  21
ATOM     21  C   UNL     1       2.911  14.977  21.272  0.00  0.00    +0.000 C 
BRANCH  21  22
ATOM     22  C   UNL     1       3.715  15.029  19.966  0.00  0.00    +0.000 C 
BRANCH  22  23
ATOM     23  N   UNL     1       4.756  16.073  19.938  0.00  0.00    +0.000 NA
ATOM     24  C   UNL     1       5.844  15.810  20.911  0.00  0.00    +0.000 C 
ATOM     25  C   UNL     1       6.614  14.508  20.627  0.00  0.00    +0.000 C 
ATOM     26  N   UNL     1       7.210  14.627  19.294  0.00  0.00    +0.000 N 
ATOM     27  C   UNL     1       8.478  14.176  19.110  0.00  0.00    +0.000 A 
ATOM     28  N   UNL     1       8.961  13.102  19.730  0.00  0.00    +0.000 NA
ATOM     29  S   UNL     1      10.574  12.969  19.434  0.00  0.00    +0.000 S 
ATOM     30  C   UNL     1      10.713  14.391  18.484  0.00  0.00    +0.000 A 
ATOM     31  C   UNL     1      11.856  14.970  17.911  0.00  0.00    +0.000 A 
ATOM     32  C   UNL     1      11.707  16.152  17.181  0.00  0.00    +0.000 A 
ATOM     33  C   UNL     1      10.458  16.746  17.037  0.00  0.00    +0.000 A 
ATOM     34  C   UNL     1       9.338  16.173  17.634  0.00  0.00    +0.000 A 
ATOM     35  C   UNL     1       9.444  14.956  18.359  0.00  0.00    +0.000 A 
ATOM     36  C   UNL     1       6.277  14.926  18.203  0.00  0.00    +0.000 C 
ATOM     37  C   UNL     1       5.372  16.135  18.582  0.00  0.00    +0.000 C 
ENDBRANCH  22  23
ENDBRANCH  21  22
ENDBRANCH  20  21
ENDBRANCH   1  20
TORSDOF 8
ENDMDL
MODEL 6
REMARK VINA RESULT:      -7.0      2.808      4.941
REMARK  Name = 
REMARK  8 active torsions:
REMARK  status: ('A' for Active; 'I' for Inactive)
REMARK    1  A    between atoms: C_2  and  C_23
REMARK    2  A    between atoms: N_3  and  C_4
REMARK    3  A    between atoms: C_4  and  C_5
REMARK    4  A    between atoms: C_5  and  C_6
REMARK    5  A    between atoms: C_6  and  C_7
REMARK    6  A    between atoms: C_7  and  N_8
REMARK    7  A    between atoms: C_26  and  N_27
REMARK    8  A    between atoms: N_28  and  C_29
REMARK                            x       y       z     vdW  Elec       q    Type
REMARK                         _______ _______ _______ _____ _____    ______ ____
ROOT
ATOM      1  C   UNL     1       0.885   7.617  21.567  0.00  0.00    +0.000 C 
ENDROOT
BRANCH   1   4
ATOM      2  O   UNL     1       1.475   4.839  21.163  0.00  0.00    +0.000 OA
ATOM      3  C   UNL     1       1.930   5.686  20.401  0.00  0.00    +0.000 C 
ATOM      4  N   UNL     1       1.702   7.041  20.515  0.00  0.00    +0.000 N 
ATOM      5  H   UNL     1       1.958   7.652  19.753  0.00  0.00    +0.000 HD
BRANCH   3   6
ATOM      6  C   UNL     1       2.767   5.257  19.252  0.00  0.00    +0.000 A 
ATOM      7  C   UNL     1       3.903   6.003  18.928  0.00  0.00    +0.000 A 
ATOM      8  C   UNL     1       4.692   5.629  17.836  0.00  0.00    +0.000 A 
ATOM      9  C   UNL     1       4.370   4.504  17.061  0.00  0.00    +0.000 A 
ATOM     10  C   UNL     1       3.221   3.772  17.394  0.00  0.00    +0.000 A 
ATOM     11  C   UNL     1       2.427   4.139  18.484  0.00  0.00    +0.000 A 
BRANCH   9  12
ATOM     12  N   UNL     1       5.219   4.196  15.980  0.00  0.00    +0.000 NA
ATOM     13  N   UNL     1       4.900   4.790  14.930  0.00  0.00    +0.000 NA
BRANCH  13  14
ATOM     14  C   UNL     1       5.663   4.362  13.823  0.00  0.00    +0.000 A 
ATOM     15  C   UNL     1       5.074   3.448  12.940  0.00  0.00    +0.000 A 
ATOM     16  C   UNL     1       5.778   2.962  11.836  0.00  0.00    +0.000 A 
ATOM     17  C   UNL     1       7.082   3.395  11.597  0.00  0.00    +0.000 A 
ATOM     18  C   UNL     1       7.673   4.323  12.451  0.00  0.00    +0.000 A 
ATOM     19  C   UNL     1       6.964   4.809  13.554  0.00  0.00    +0.000 A 
ENDBRANCH  13  14
ENDBRANCH   9  12
ENDBRANCH   3   6
ENDBRANCH   1   4
BRANCH   1  20
ATOM     20  C   UNL     1       1.462   8.947  22.044  0.00  0.00    +0.000 C 
BRANCH  20  21
ATOM     21  C   UNL     1       0.394  10.010  22.313  0.00  0.00    +0.000 C 
BRANCH  21  22
ATOM     22  C   UNL     1      -0.562  10.249  21.136  0.00  0.00    +0.000 C 
BRANCH  22  23
ATOM     23  N   UNL     1       0.112  10.596  19.871  0.00  0.00    +0.000 NA
ATOM     24  C   UNL     1      -0.764  11.371  18.959  0.00  0.00    +0.000 C 
ATOM     25  C   UNL     1      -1.194  12.731  19.538  0.00  0.00    +0.000 C 
ATOM     26  N   UNL     1       0.021  13.513  19.782  0.00  0.00    +0.000 N 
ATOM     27  C   UNL     1       0.014  14.834  19.465  0.00  0.00    +0.000 A 
ATOM     28  N   UNL     1      -1.060  15.607  19.607  0.00  0.00    +0.000 NA
ATOM     29  S   UNL     1      -0.774  17.083  18.940  0.00  0.00    +0.000 S 
ATOM     30  C   UNL     1       0.811  16.737  18.381  0.00  0.00    +0.000 A 
ATOM     31  C   UNL     1       1.688  17.543  17.637  0.00  0.00    +0.000 A 
ATOM     32  C   UNL     1       2.937  17.021  17.291  0.00  0.00    +0.000 A 
ATOM     33  C   UNL     1       3.297  15.731  17.663  0.00  0.00    +0.000 A 
ATOM     34  C   UNL     1       2.405  14.935  18.378  0.00  0.00    +0.000 A 
ATOM     35  C   UNL     1       1.138  15.439  18.775  0.00  0.00    +0.000 A 
ATOM     36  C   UNL     1       1.026  12.878  20.640  0.00  0.00    +0.000 C 
ATOM     37  C   UNL     1       1.316  11.429  20.153  0.00  0.00    +0.000 C 
ENDBRANCH  22  23
ENDBRANCH  21  22
ENDBRANCH  20  21
ENDBRANCH   1  20
TORSDOF 8
ENDMDL
MODEL 7
REMARK VINA RESULT:      -7.0      1.996      2.761
REMARK  Name = 
REMARK  8 active torsions:
REMARK  status: ('A' for Active; 'I' for Inactive)
REMARK    1  A    between atoms: C_2  and  C_23
REMARK    2  A    between atoms: N_3  and  C_4
REMARK    3  A    between atoms: C_4  and  C_5
REMARK    4  A    between atoms: C_5  and  C_6
REMARK    5  A    between atoms: C_6  and  C_7
REMARK    6  A    between atoms: C_7  and  N_8
REMARK    7  A    between atoms: C_26  and  N_27
REMARK    8  A    between atoms: N_28  and  C_29
REMARK                            x       y       z     vdW  Elec       q    Type
REMARK                         _______ _______ _______ _____ _____    ______ ____
ROOT
ATOM      1  C   UNL     1      -3.405  12.728  23.141  0.00  0.00    +0.000 C 
ENDROOT
BRANCH   1   4
ATOM      2  O   UNL     1      -0.541  12.798  23.276  0.00  0.00    +0.000 OA
ATOM      3  C   UNL     1      -1.111  11.871  22.709  0.00  0.00    +0.000 C 
ATOM      4  N   UNL     1      -2.481  11.752  22.594  0.00  0.00    +0.000 N 
ATOM      5  H   UNL     1      -2.877  10.879  22.277  0.00  0.00    +0.000 HD
BRANCH   3   6
ATOM      6  C   UNL     1      -0.307  10.773  22.117  0.00  0.00    +0.000 A 
ATOM      7  C   UNL     1       0.472  11.038  20.989  0.00  0.00    +0.000 A 
ATOM      8  C   UNL     1       1.220  10.011  20.403  0.00  0.00    +0.000 A 
ATOM      9  C   UNL     1       1.212   8.713  20.938  0.00  0.00    +0.000 A 
ATOM     10  C   UNL     1       0.417   8.462  22.065  0.00  0.00    +0.000 A 
ATOM     11  C   UNL     1      -0.333   9.483  22.656  0.00  0.00    +0.000 A 
BRANCH   9  12
ATOM     12  N   UNL     1       1.994   7.739  20.288  0.00  0.00    +0.000 NA
ATOM     13  N   UNL     1       1.922   7.811  19.044  0.00  0.00    +0.000 NA
BRANCH  13  14
ATOM     14  C   UNL     1       2.589   6.742  18.409  0.00  0.00    +0.000 A 
ATOM     15  C   UNL     1       2.009   5.470  18.495  0.00  0.00    +0.000 A 
ATOM     16  C   UNL     1       2.625   4.361  17.910  0.00  0.00    +0.000 A 
ATOM     17  C   UNL     1       3.828   4.515  17.222  0.00  0.00    +0.000 A 
ATOM     18  C   UNL     1       4.404   5.778  17.106  0.00  0.00    +0.000 A 
ATOM     19  C   UNL     1       3.784   6.886  17.690  0.00  0.00    +0.000 A 
ENDBRANCH  13  14
ENDBRANCH   9  12
ENDBRANCH   3   6
ENDBRANCH   1   4
BRANCH   1  20
ATOM     20  C   UNL     1      -4.152  13.459  22.029  0.00  0.00    +0.000 C 
BRANCH  20  21
ATOM     21  C   UNL     1      -3.240  14.321  21.152  0.00  0.00    +0.000 C 
BRANCH  21  22
ATOM     22  C   UNL     1      -2.468  15.401  21.923  0.00  0.00    +0.000 C 
BRANCH  22  23
ATOM     23  N   UNL     1      -1.659  16.291  21.070  0.00  0.00    +0.000 NA
ATOM     24  C   UNL     1      -0.514  16.886  21.801  0.00  0.00    +0.000 C 
ATOM     25  C   UNL     1       0.494  15.839  22.309  0.00  0.00    +0.000 C 
ATOM     26  N   UNL     1       1.017  15.124  21.142  0.00  0.00    +0.000 N 
ATOM     27  C   UNL     1       2.343  14.838  21.100  0.00  0.00    +0.000 A 
ATOM     28  N   UNL     1       3.050  14.519  22.182  0.00  0.00    +0.000 NA
ATOM     29  S   UNL     1       4.647  14.439  21.798  0.00  0.00    +0.000 S 
ATOM     30  C   UNL     1       4.471  14.878  20.149  0.00  0.00    +0.000 A 
ATOM     31  C   UNL     1       5.458  15.079  19.170  0.00  0.00    +0.000 A 
ATOM     32  C   UNL     1       5.053  15.448  17.885  0.00  0.00    +0.000 A 
ATOM     33  C   UNL     1       3.707  15.626  17.586  0.00  0.00    +0.000 A 
ATOM     34  C   UNL     1       2.742  15.448  18.575  0.00  0.00    +0.000 A 
ATOM     35  C   UNL     1       3.111  15.044  19.886  0.00  0.00    +0.000 A 
ATOM     36  C   UNL     1       0.012  14.499  20.275  0.00  0.00    +0.000 C 
ATOM     37  C   UNL     1      -1.107  15.522  19.919  0.00  0.00    +0.000 C 
ENDBRANCH  22  23
ENDBRANCH  21  22
ENDBRANCH  20  21
ENDBRANCH   1  20
TORSDOF 8
ENDMDL
MODEL 8
REMARK VINA RESULT:      -6.9      5.062      9.850
REMARK  Name = 
REMARK  8 active torsions:
REMARK  status: ('A' for Active; 'I' for Inactive)
REMARK    1  A    between atoms: C_2  and  C_23
REMARK    2  A    between atoms: N_3  and  C_4
REMARK    3  A    between atoms: C_4  and  C_5
REMARK    4  A    between atoms: C_5  and  C_6
REMARK    5  A    between atoms: C_6  and  C_7
REMARK    6  A    between atoms: C_7  and  N_8
REMARK    7  A    between atoms: C_26  and  N_27
REMARK    8  A    between atoms: N_28  and  C_29
REMARK                            x       y       z     vdW  Elec       q    Type
REMARK                         _______ _______ _______ _____ _____    ______ ____
ROOT
ATOM      1  C   UNL     1       7.057   6.232  16.833  0.00  0.00    +0.000 C 
ENDROOT
BRANCH   1   4
ATOM      2  O   UNL     1       8.569   7.183  19.078  0.00  0.00    +0.000 OA
ATOM      3  C   UNL     1       8.181   7.966  18.217  0.00  0.00    +0.000 C 
ATOM      4  N   UNL     1       7.450   7.602  17.105  0.00  0.00    +0.000 N 
ATOM      5  H   UNL     1       7.324   8.268  16.356  0.00  0.00    +0.000 HD
BRANCH   3   6
ATOM      6  C   UNL     1       8.523   9.406  18.333  0.00  0.00    +0.000 A 
ATOM      7  C   UNL     1       7.966  10.308  17.425  0.00  0.00    +0.000 A 
ATOM      8  C   UNL     1       8.293  11.666  17.504  0.00  0.00    +0.000 A 
ATOM      9  C   UNL     1       9.168  12.144  18.492  0.00  0.00    +0.000 A 
ATOM     10  C   UNL     1       9.726  11.222  19.390  0.00  0.00    +0.000 A 
ATOM     11  C   UNL     1       9.404   9.865  19.317  0.00  0.00    +0.000 A 
BRANCH   9  12
ATOM     12  N   UNL     1       9.443  13.526  18.502  0.00  0.00    +0.000 NA
ATOM     13  N   UNL     1       8.485  14.206  18.925  0.00  0.00    +0.000 NA
BRANCH  13  14
ATOM     14  C   UNL     1       8.717  15.591  18.790  0.00  0.00    +0.000 A 
ATOM     15  C   UNL     1       9.799  15.997  17.999  0.00  0.00    +0.000 A 
ATOM     16  C   UNL     1      10.102  17.351  17.840  0.00  0.00    +0.000 A 
ATOM     17  C   UNL     1       9.318  18.319  18.466  0.00  0.00    +0.000 A 
ATOM     18  C   UNL     1       8.222  17.932  19.236  0.00  0.00    +0.000 A 
ATOM     19  C   UNL     1       7.921  16.576  19.391  0.00  0.00    +0.000 A 
ENDBRANCH  13  14
ENDBRANCH   9  12
ENDBRANCH   3   6
ENDBRANCH   1   4
BRANCH   1  20
ATOM     20  C   UNL     1       5.565   6.141  16.521  0.00  0.00    +0.000 C 
BRANCH  20  21
ATOM     21  C   UNL     1       4.711   7.093  17.361  0.00  0.00    +0.000 C 
BRANCH  21  22
ATOM     22  C   UNL     1       3.954   6.409  18.508  0.00  0.00    +0.000 C 
BRANCH  22  23
ATOM     23  N   UNL     1       2.495   6.334  18.309  0.00  0.00    +0.000 NA
ATOM     24  C   UNL     1       1.745   6.470  19.582  0.00  0.00    +0.000 C 
ATOM     25  C   UNL     1       1.959   7.830  20.272  0.00  0.00    +0.000 C 
ATOM     26  N   UNL     1       1.495   8.871  19.352  0.00  0.00    +0.000 N 
ATOM     27  C   UNL     1       0.787   9.914  19.860  0.00  0.00    +0.000 A 
ATOM     28  N   UNL     1       1.033  10.441  21.057  0.00  0.00    +0.000 NA
ATOM     29  S   UNL     1      -0.135  11.536  21.431  0.00  0.00    +0.000 S 
ATOM     30  C   UNL     1      -1.064  11.322  20.005  0.00  0.00    +0.000 A 
ATOM     31  C   UNL     1      -2.287  11.911  19.641  0.00  0.00    +0.000 A 
ATOM     32  C   UNL     1      -2.854  11.558  18.414  0.00  0.00    +0.000 A 
ATOM     33  C   UNL     1      -2.231  10.638  17.580  0.00  0.00    +0.000 A 
ATOM     34  C   UNL     1      -1.032  10.043  17.967  0.00  0.00    +0.000 A 
ATOM     35  C   UNL     1      -0.408  10.396  19.193  0.00  0.00    +0.000 A 
ATOM     36  C   UNL     1       2.107   8.864  18.020  0.00  0.00    +0.000 C 
ATOM     37  C   UNL     1       2.052   7.434  17.407  0.00  0.00    +0.000 C 
ENDBRANCH  22  23
ENDBRANCH  21  22
ENDBRANCH  20  21
ENDBRANCH   1  20
TORSDOF 8
ENDMDL
MODEL 9
REMARK VINA RESULT:      -6.9      3.915      6.240
REMARK  Name = 
REMARK  8 active torsions:
REMARK  status: ('A' for Active; 'I' for Inactive)
REMARK    1  A    between atoms: C_2  and  C_23
REMARK    2  A    between atoms: N_3  and  C_4
REMARK    3  A    between atoms: C_4  and  C_5
REMARK    4  A    between atoms: C_5  and  C_6
REMARK    5  A    between atoms: C_6  and  C_7
REMARK    6  A    between atoms: C_7  and  N_8
REMARK    7  A    between atoms: C_26  and  N_27
REMARK    8  A    between atoms: N_28  and  C_29
REMARK                            x       y       z     vdW  Elec       q    Type
REMARK                         _______ _______ _______ _____ _____    ______ ____
ROOT
ATOM      1  C   UNL     1       0.713   7.673  21.795  0.00  0.00    +0.000 C 
ENDROOT
BRANCH   1   4
ATOM      2  O   UNL     1       1.877   5.109  21.252  0.00  0.00    +0.000 OA
ATOM      3  C   UNL     1       2.106   6.061  20.514  0.00  0.00    +0.000 C 
ATOM      4  N   UNL     1       1.592   7.329  20.694  0.00  0.00    +0.000 N 
ATOM      5  H   UNL     1       1.678   8.008  19.951  0.00  0.00    +0.000 HD
BRANCH   3   6
ATOM      6  C   UNL     1       2.970   5.868  19.322  0.00  0.00    +0.000 A 
ATOM      7  C   UNL     1       3.198   6.951  18.470  0.00  0.00    +0.000 A 
ATOM      8  C   UNL     1       3.991   6.785  17.330  0.00  0.00    +0.000 A 
ATOM      9  C   UNL     1       4.575   5.544  17.029  0.00  0.00    +0.000 A 
ATOM     10  C   UNL     1       4.328   4.465  17.890  0.00  0.00    +0.000 A 
ATOM     11  C   UNL     1       3.537   4.624  19.031  0.00  0.00    +0.000 A 
BRANCH   9  12
ATOM     12  N   UNL     1       5.361   5.463  15.862  0.00  0.00    +0.000 NA
ATOM     13  N   UNL     1       4.952   4.596  15.063  0.00  0.00    +0.000 NA
BRANCH  13  14
ATOM     14  C   UNL     1       5.830   4.422  13.972  0.00  0.00    +0.000 A 
ATOM     15  C   UNL     1       5.475   3.485  12.994  0.00  0.00    +0.000 A 
ATOM     16  C   UNL     1       6.307   3.244  11.898  0.00  0.00    +0.000 A 
ATOM     17  C   UNL     1       7.502   3.947  11.763  0.00  0.00    +0.000 A 
ATOM     18  C   UNL     1       7.857   4.901  12.715  0.00  0.00    +0.000 A 
ATOM     19  C   UNL     1       7.022   5.142  13.809  0.00  0.00    +0.000 A 
ENDBRANCH  13  14
ENDBRANCH   9  12
ENDBRANCH   3   6
ENDBRANCH   1   4
BRANCH   1  20
ATOM     20  C   UNL     1       0.238   9.120  21.685  0.00  0.00    +0.000 C 
BRANCH  20  21
ATOM     21  C   UNL     1       0.753   9.833  20.433  0.00  0.00    +0.000 C 
BRANCH  21  22
ATOM     22  C   UNL     1      -0.332  10.586  19.650  0.00  0.00    +0.000 C 
BRANCH  22  23
ATOM     23  N   UNL     1      -0.345  12.042  19.884  0.00  0.00    +0.000 NA
ATOM     24  C   UNL     1      -1.551  12.693  19.316  0.00  0.00    +0.000 C 
ATOM     25  C   UNL     1      -2.865  12.201  19.952  0.00  0.00    +0.000 C 
ATOM     26  N   UNL     1      -2.808  12.509  21.383  0.00  0.00    +0.000 N 
ATOM     27  C   UNL     1      -3.926  12.989  21.986  0.00  0.00    +0.000 A 
ATOM     28  N   UNL     1      -5.153  12.594  21.655  0.00  0.00    +0.000 NA
ATOM     29  S   UNL     1      -6.264  13.522  22.435  0.00  0.00    +0.000 S 
ATOM     30  C   UNL     1      -5.137  14.542  23.232  0.00  0.00    +0.000 A 
ATOM     31  C   UNL     1      -5.371  15.651  24.061  0.00  0.00    +0.000 A 
ATOM     32  C   UNL     1      -4.270  16.331  24.587  0.00  0.00    +0.000 A 
ATOM     33  C   UNL     1      -2.974  15.928  24.285  0.00  0.00    +0.000 A 
ATOM     34  C   UNL     1      -2.759  14.841  23.440  0.00  0.00    +0.000 A 
ATOM     35  C   UNL     1      -3.852  14.106  22.910  0.00  0.00    +0.000 A 
ATOM     36  C   UNL     1      -1.649  11.972  22.105  0.00  0.00    +0.000 C 
ATOM     37  C   UNL     1      -0.333  12.318  21.349  0.00  0.00    +0.000 C 
ENDBRANCH  22  23
ENDBRANCH  21  22
ENDBRANCH  20  21
ENDBRANCH   1  20
TORSDOF 8
ENDMDL
