MODEL 1
REMARK VINA RESULT:      -6.9      0.000      0.000
REMARK  Name = 
REMARK  3 active torsions:
REMARK  status: ('A' for Active; 'I' for Inactive)
REMARK    1  A    between atoms: C_2  and  C_3
REMARK    2  A    between atoms: C_5  and  C_6
REMARK    3  A    between atoms: C_20  and  O_21
REMARK                            x       y       z     vdW  Elec       q    Type
REMARK                         _______ _______ _______ _____ _____    ______ ____
ROOT
ATOM      1  C   UNL     1       3.808   6.799  17.667  0.00  0.00    +0.000 A 
ATOM      2  C   UNL     1       3.020   7.975  17.744  0.00  0.00    +0.000 A 
ATOM      3  C   UNL     1       2.027   8.081  18.712  0.00  0.00    +0.000 A 
ATOM      4  C   UNL     1       1.827   6.994  19.598  0.00  0.00    +0.000 A 
ATOM      5  C   UNL     1       2.599   5.828  19.514  0.00  0.00    +0.000 A 
ATOM      6  I   UNL     1       2.239   4.268  20.860  0.00  0.00    +0.000 I 
ATOM      7  C   UNL     1       3.601   5.733  18.553  0.00  0.00    +0.000 A 
ENDROOT
BRANCH   3   8
ATOM      8  C   UNL     1       1.217   9.318  18.919  0.00  0.00    +0.000 C 
ATOM      9  O   UNL     1       0.448   9.592  17.988  0.00  0.00    +0.000 OA
ATOM     10  N   UNL     1       1.530  10.264  19.936  0.00  0.00    +0.000 N 
ATOM     11  C   UNL     1       1.449  11.655  19.364  0.00  0.00    +0.000 C 
ATOM     12  C   UNL     1       1.253  12.602  20.522  0.00  0.00    +0.000 C 
ATOM     13  C   UNL     1       0.322  11.733  21.288  0.00  0.00    +0.000 A 
ATOM     14  C   UNL     1      -0.753  12.120  22.069  0.00  0.00    +0.000 A 
ATOM     15  C   UNL     1      -1.276  11.179  22.937  0.00  0.00    +0.000 A 
ATOM     16  C   UNL     1      -0.647   9.928  23.052  0.00  0.00    +0.000 A 
ATOM     17  C   UNL     1       0.333   9.508  22.122  0.00  0.00    +0.000 A 
ATOM     18  C   UNL     1       0.715  10.396  21.134  0.00  0.00    +0.000 A 
ENDBRANCH   3   8
BRANCH   1  20
ATOM     19  N   UNL     1       5.672   6.664  15.896  0.00  0.00    +0.000 NA
ATOM     20  C   UNL     1       4.857   6.748  16.698  0.00  0.00    +0.000 C 
ENDBRANCH   1  20
BRANCH   7  21
ATOM     21  O   UNL     1       4.383   4.616  18.440  0.00  0.00    +0.000 OA
ATOM     22  H   UNL     1       4.309   4.263  17.535  0.00  0.00    +0.000 HD
ENDBRANCH   7  21
TORSDOF 3
ENDMDL
MODEL 2
REMARK VINA RESULT:      -6.7      1.768      2.751
REMARK  Name = 
REMARK  3 active torsions:
REMARK  status: ('A' for Active; 'I' for Inactive)
REMARK    1  A    between atoms: C_2  and  C_3
REMARK    2  A    between atoms: C_5  and  C_6
REMARK    3  A    between atoms: C_20  and  O_21
REMARK                            x       y       z     vdW  Elec       q    Type
REMARK                         _______ _______ _______ _____ _____    ______ ____
ROOT
ATOM      1  C   UNL     1       3.478   6.176  18.202  0.00  0.00    +0.000 A 
ATOM      2  C   UNL     1       2.867   7.397  18.584  0.00  0.00    +0.000 A 
ATOM      3  C   UNL     1       2.037   7.438  19.699  0.00  0.00    +0.000 A 
ATOM      4  C   UNL     1       1.820   6.240  20.424  0.00  0.00    +0.000 A 
ATOM      5  C   UNL     1       2.414   5.032  20.039  0.00  0.00    +0.000 A 
ATOM      6  I   UNL     1       2.041   3.308  21.163  0.00  0.00    +0.000 I 
ATOM      7  C   UNL     1       3.256   5.000  18.931  0.00  0.00    +0.000 A 
ENDROOT
BRANCH   3   8
ATOM      8  C   UNL     1       1.431   8.699  20.221  0.00  0.00    +0.000 C 
ATOM      9  O   UNL     1       1.432   8.799  21.455  0.00  0.00    +0.000 OA
ATOM     10  N   UNL     1       0.639   9.552  19.400  0.00  0.00    +0.000 N 
ATOM     11  C   UNL     1      -0.594   9.968  20.159  0.00  0.00    +0.000 C 
ATOM     12  C   UNL     1      -1.107  11.232  19.515  0.00  0.00    +0.000 C 
ATOM     13  C   UNL     1       0.226  11.844  19.274  0.00  0.00    +0.000 A 
ATOM     14  C   UNL     1       0.568  13.184  19.331  0.00  0.00    +0.000 A 
ATOM     15  C   UNL     1       1.773  13.555  18.761  0.00  0.00    +0.000 A 
ATOM     16  C   UNL     1       2.535  12.590  18.082  0.00  0.00    +0.000 A 
ATOM     17  C   UNL     1       2.244  11.209  18.193  0.00  0.00    +0.000 A 
ATOM     18  C   UNL     1       1.136  10.835  18.928  0.00  0.00    +0.000 A 
ENDBRANCH   3   8
BRANCH   1  20
ATOM     19  N   UNL     1       5.107   6.237  16.209  0.00  0.00    +0.000 NA
ATOM     20  C   UNL     1       4.369   6.184  17.085  0.00  0.00    +0.000 C 
ENDBRANCH   1  20
BRANCH   7  21
ATOM     21  O   UNL     1       3.863   3.844  18.524  0.00  0.00    +0.000 OA
ATOM     22  H   UNL     1       4.501   3.560  19.205  0.00  0.00    +0.000 HD
ENDBRANCH   7  21
TORSDOF 3
ENDMDL
MODEL 3
REMARK VINA RESULT:      -6.7      2.058      2.667
REMARK  Name = 
REMARK  3 active torsions:
REMARK  status: ('A' for Active; 'I' for Inactive)
REMARK    1  A    between atoms: C_2  and  C_3
REMARK    2  A    between atoms: C_5  and  C_6
REMARK    3  A    between atoms: C_20  and  O_21
REMARK                            x       y       z     vdW  Elec       q    Type
REMARK                         _______ _______ _______ _____ _____    ______ ____
ROOT
ATOM      1  C   UNL     1       4.096   6.687  17.344  0.00  0.00    +0.000 A 
ATOM      2  C   UNL     1       3.510   7.975  17.258  0.00  0.00    +0.000 A 
ATOM      3  C   UNL     1       2.486   8.329  18.129  0.00  0.00    +0.000 A 
ATOM      4  C   UNL     1       2.050   7.376  19.083  0.00  0.00    +0.000 A 
ATOM      5  C   UNL     1       2.622   6.101  19.159  0.00  0.00    +0.000 A 
ATOM      6  I   UNL     1       1.920   4.752  20.597  0.00  0.00    +0.000 I 
ATOM      7  C   UNL     1       3.657   5.756  18.295  0.00  0.00    +0.000 A 
ENDROOT
BRANCH   3   8
ATOM      8  C   UNL     1       1.879   9.693  18.166  0.00  0.00    +0.000 C 
ATOM      9  O   UNL     1       2.588  10.585  17.682  0.00  0.00    +0.000 OA
ATOM     10  N   UNL     1       0.741   9.992  18.967  0.00  0.00    +0.000 N 
ATOM     11  C   UNL     1       0.966  11.296  19.686  0.00  0.00    +0.000 C 
ATOM     12  C   UNL     1      -0.390  11.833  20.070  0.00  0.00    +0.000 C 
ATOM     13  C   UNL     1      -1.082  11.440  18.814  0.00  0.00    +0.000 A 
ATOM     14  C   UNL     1      -2.093  12.116  18.155  0.00  0.00    +0.000 A 
ATOM     15  C   UNL     1      -2.803  11.415  17.195  0.00  0.00    +0.000 A 
ATOM     16  C   UNL     1      -2.532  10.050  17.004  0.00  0.00    +0.000 A 
ATOM     17  C   UNL     1      -1.385   9.441  17.567  0.00  0.00    +0.000 A 
ATOM     18  C   UNL     1      -0.572  10.209  18.379  0.00  0.00    +0.000 A 
ENDBRANCH   3   8
BRANCH   1  20
ATOM     19  N   UNL     1       6.062   6.184  15.758  0.00  0.00    +0.000 NA
ATOM     20  C   UNL     1       5.185   6.378  16.471  0.00  0.00    +0.000 C 
ENDBRANCH   1  20
BRANCH   7  21
ATOM     21  O   UNL     1       4.250   4.524  18.340  0.00  0.00    +0.000 OA
ATOM     22  H   UNL     1       4.607   4.372  19.234  0.00  0.00    +0.000 HD
ENDBRANCH   7  21
TORSDOF 3
ENDMDL
MODEL 4
REMARK VINA RESULT:      -6.6      5.209      6.635
REMARK  Name = 
REMARK  3 active torsions:
REMARK  status: ('A' for Active; 'I' for Inactive)
REMARK    1  A    between atoms: C_2  and  C_3
REMARK    2  A    between atoms: C_5  and  C_6
REMARK    3  A    between atoms: C_20  and  O_21
REMARK                            x       y       z     vdW  Elec       q    Type
REMARK                         _______ _______ _______ _____ _____    ______ ____
ROOT
ATOM      1  C   UNL     1       5.937   4.298  14.773  0.00  0.00    +0.000 A 
ATOM      2  C   UNL     1       4.765   3.841  15.426  0.00  0.00    +0.000 A 
ATOM      3  C   UNL     1       4.418   4.357  16.670  0.00  0.00    +0.000 A 
ATOM      4  C   UNL     1       5.262   5.333  17.255  0.00  0.00    +0.000 A 
ATOM      5  C   UNL     1       6.425   5.777  16.614  0.00  0.00    +0.000 A 
ATOM      6  I   UNL     1       7.617   7.221  17.547  0.00  0.00    +0.000 I 
ATOM      7  C   UNL     1       6.759   5.267  15.364  0.00  0.00    +0.000 A 
ENDROOT
BRANCH   3   8
ATOM      8  C   UNL     1       3.156   3.997  17.381  0.00  0.00    +0.000 C 
ATOM      9  O   UNL     1       2.290   3.478  16.664  0.00  0.00    +0.000 OA
ATOM     10  N   UNL     1       2.853   4.494  18.681  0.00  0.00    +0.000 N 
ATOM     11  C   UNL     1       1.420   4.955  18.716  0.00  0.00    +0.000 C 
ATOM     12  C   UNL     1       0.990   4.963  20.162  0.00  0.00    +0.000 C 
ATOM     13  C   UNL     1       1.692   3.710  20.547  0.00  0.00    +0.000 A 
ATOM     14  C   UNL     1       1.280   2.749  21.453  0.00  0.00    +0.000 A 
ATOM     15  C   UNL     1       2.229   1.842  21.890  0.00  0.00    +0.000 A 
ATOM     16  C   UNL     1       3.563   1.992  21.474  0.00  0.00    +0.000 A 
ATOM     17  C   UNL     1       3.911   2.871  20.421  0.00  0.00    +0.000 A 
ATOM     18  C   UNL     1       2.912   3.641  19.858  0.00  0.00    +0.000 A 
ENDBRANCH   3   8
BRANCH   1  20
ATOM     19  N   UNL     1       6.413   3.368  12.420  0.00  0.00    +0.000 NA
ATOM     20  C   UNL     1       6.231   3.787  13.471  0.00  0.00    +0.000 C 
ENDBRANCH   1  20
BRANCH   7  21
ATOM     21  O   UNL     1       7.882   5.677  14.698  0.00  0.00    +0.000 OA
ATOM     22  H   UNL     1       8.055   6.613  14.908  0.00  0.00    +0.000 HD
ENDBRANCH   7  21
TORSDOF 3
ENDMDL
MODEL 5
REMARK VINA RESULT:      -6.6      2.028      2.574
REMARK  Name = 
REMARK  3 active torsions:
REMARK  status: ('A' for Active; 'I' for Inactive)
REMARK    1  A    between atoms: C_2  and  C_3
REMARK    2  A    between atoms: C_5  and  C_6
REMARK    3  A    between atoms: C_20  and  O_21
REMARK                            x       y       z     vdW  Elec       q    Type
REMARK                         _______ _______ _______ _____ _____    ______ ____
ROOT
ATOM      1  C   UNL     1       2.592   5.738  19.963  0.00  0.00    +0.000 A 
ATOM      2  C   UNL     1       1.852   6.939  20.104  0.00  0.00    +0.000 A 
ATOM      3  C   UNL     1       2.028   7.972  19.190  0.00  0.00    +0.000 A 
ATOM      4  C   UNL     1       2.958   7.791  18.136  0.00  0.00    +0.000 A 
ATOM      5  C   UNL     1       3.695   6.609  18.004  0.00  0.00    +0.000 A 
ATOM      6  I   UNL     1       5.049   6.422  16.419  0.00  0.00    +0.000 I 
ATOM      7  C   UNL     1       3.505   5.573  18.913  0.00  0.00    +0.000 A 
ENDROOT
BRANCH   3   8
ATOM      8  C   UNL     1       1.224   9.230  19.214  0.00  0.00    +0.000 C 
ATOM      9  O   UNL     1       0.524   9.413  18.209  0.00  0.00    +0.000 OA
ATOM     10  N   UNL     1       1.481  10.273  20.149  0.00  0.00    +0.000 N 
ATOM     11  C   UNL     1       1.459  11.598  19.435  0.00  0.00    +0.000 C 
ATOM     12  C   UNL     1       1.199  12.660  20.474  0.00  0.00    +0.000 C 
ATOM     13  C   UNL     1       0.205  11.881  21.258  0.00  0.00    +0.000 A 
ATOM     14  C   UNL     1      -0.914  12.354  21.920  0.00  0.00    +0.000 A 
ATOM     15  C   UNL     1      -1.508  11.510  22.842  0.00  0.00    +0.000 A 
ATOM     16  C   UNL     1      -0.906  10.273  23.126  0.00  0.00    +0.000 A 
ATOM     17  C   UNL     1       0.128   9.753  22.313  0.00  0.00    +0.000 A 
ATOM     18  C   UNL     1       0.589  10.532  21.269  0.00  0.00    +0.000 A 
ENDBRANCH   3   8
BRANCH   1  20
ATOM     19  N   UNL     1       2.131   3.793  21.586  0.00  0.00    +0.000 NA
ATOM     20  C   UNL     1       2.344   4.676  20.887  0.00  0.00    +0.000 C 
ENDBRANCH   1  20
BRANCH   7  21
ATOM     21  O   UNL     1       4.199   4.397  18.817  0.00  0.00    +0.000 OA
ATOM     22  H   UNL     1       4.746   4.282  19.616  0.00  0.00    +0.000 HD
ENDBRANCH   7  21
TORSDOF 3
ENDMDL
MODEL 6
REMARK VINA RESULT:      -6.6      2.658      3.943
REMARK  Name = 
REMARK  3 active torsions:
REMARK  status: ('A' for Active; 'I' for Inactive)
REMARK    1  A    between atoms: C_2  and  C_3
REMARK    2  A    between atoms: C_5  and  C_6
REMARK    3  A    between atoms: C_20  and  O_21
REMARK                            x       y       z     vdW  Elec       q    Type
REMARK                         _______ _______ _______ _____ _____    ______ ____
ROOT
ATOM      1  C   UNL     1       2.229   4.851  20.550  0.00  0.00    +0.000 A 
ATOM      2  C   UNL     1       1.669   6.088  20.957  0.00  0.00    +0.000 A 
ATOM      3  C   UNL     1       1.969   7.249  20.253  0.00  0.00    +0.000 A 
ATOM      4  C   UNL     1       2.842   7.158  19.141  0.00  0.00    +0.000 A 
ATOM      5  C   UNL     1       3.403   5.938  18.747  0.00  0.00    +0.000 A 
ATOM      6  I   UNL     1       4.684   5.890  17.093  0.00  0.00    +0.000 I 
ATOM      7  C   UNL     1       3.089   4.777  19.445  0.00  0.00    +0.000 A 
ENDROOT
BRANCH   3   8
ATOM      8  C   UNL     1       1.351   8.573  20.559  0.00  0.00    +0.000 C 
ATOM      9  O   UNL     1       1.313   8.858  21.764  0.00  0.00    +0.000 OA
ATOM     10  N   UNL     1       0.588   9.291  19.595  0.00  0.00    +0.000 N 
ATOM     11  C   UNL     1      -0.667   9.815  20.242  0.00  0.00    +0.000 C 
ATOM     12  C   UNL     1      -1.155  10.967  19.399  0.00  0.00    +0.000 C 
ATOM     13  C   UNL     1       0.187  11.538  19.111  0.00  0.00    +0.000 A 
ATOM     14  C   UNL     1       0.531  12.871  18.977  0.00  0.00    +0.000 A 
ATOM     15  C   UNL     1       1.755  13.153  18.396  0.00  0.00    +0.000 A 
ATOM     16  C   UNL     1       2.535  12.098  17.894  0.00  0.00    +0.000 A 
ATOM     17  C   UNL     1       2.236  10.750  18.203  0.00  0.00    +0.000 A 
ATOM     18  C   UNL     1       1.104  10.489  18.951  0.00  0.00    +0.000 A 
ENDBRANCH   3   8
BRANCH   1  20
ATOM     19  N   UNL     1       1.507   2.749  21.851  0.00  0.00    +0.000 NA
ATOM     20  C   UNL     1       1.854   3.670  21.262  0.00  0.00    +0.000 C 
ENDBRANCH   1  20
BRANCH   7  21
ATOM     21  O   UNL     1       3.608   3.562  19.091  0.00  0.00    +0.000 OA
ATOM     22  H   UNL     1       3.145   2.859  19.582  0.00  0.00    +0.000 HD
ENDBRANCH   7  21
TORSDOF 3
ENDMDL
MODEL 7
REMARK VINA RESULT:      -6.4      1.316      1.641
REMARK  Name = 
REMARK  3 active torsions:
REMARK  status: ('A' for Active; 'I' for Inactive)
REMARK    1  A    between atoms: C_2  and  C_3
REMARK    2  A    between atoms: C_5  and  C_6
REMARK    3  A    between atoms: C_20  and  O_21
REMARK                            x       y       z     vdW  Elec       q    Type
REMARK                         _______ _______ _______ _____ _____    ______ ____
ROOT
ATOM      1  C   UNL     1       5.164   6.059  17.661  0.00  0.00    +0.000 A 
ATOM      2  C   UNL     1       4.186   7.082  17.592  0.00  0.00    +0.000 A 
ATOM      3  C   UNL     1       2.954   6.906  18.212  0.00  0.00    +0.000 A 
ATOM      4  C   UNL     1       2.711   5.690  18.899  0.00  0.00    +0.000 A 
ATOM      5  C   UNL     1       3.674   4.676  18.957  0.00  0.00    +0.000 A 
ATOM      6  I   UNL     1       3.235   2.911  19.991  0.00  0.00    +0.000 I 
ATOM      7  C   UNL     1       4.910   4.863  18.346  0.00  0.00    +0.000 A 
ENDROOT
BRANCH   3   8
ATOM      8  C   UNL     1       1.906   7.968  18.265  0.00  0.00    +0.000 C 
ATOM      9  O   UNL     1       1.035   7.876  17.389  0.00  0.00    +0.000 OA
ATOM     10  N   UNL     1       2.069   9.153  19.038  0.00  0.00    +0.000 N 
ATOM     11  C   UNL     1       1.644  10.344  18.220  0.00  0.00    +0.000 C 
ATOM     12  C   UNL     1       1.322  11.456  19.188  0.00  0.00    +0.000 C 
ATOM     13  C   UNL     1       0.659  10.599  20.206  0.00  0.00    +0.000 A 
ATOM     14  C   UNL     1      -0.420  10.918  21.011  0.00  0.00    +0.000 A 
ATOM     15  C   UNL     1      -0.662  10.097  22.099  0.00  0.00    +0.000 A 
ATOM     16  C   UNL     1       0.234   9.054  22.383  0.00  0.00    +0.000 A 
ATOM     17  C   UNL     1       1.218   8.653  21.448  0.00  0.00    +0.000 A 
ATOM     18  C   UNL     1       1.327   9.368  20.271  0.00  0.00    +0.000 A 
ENDBRANCH   3   8
BRANCH   1  20
ATOM     19  N   UNL     1       7.437   6.485  16.528  0.00  0.00    +0.000 NA
ATOM     20  C   UNL     1       6.439   6.298  17.060  0.00  0.00    +0.000 C 
ENDBRANCH   1  20
BRANCH   7  21
ATOM     21  O   UNL     1       5.883   3.902  18.385  0.00  0.00    +0.000 OA
ATOM     22  H   UNL     1       6.388   3.990  19.214  0.00  0.00    +0.000 HD
ENDBRANCH   7  21
TORSDOF 3
ENDMDL
MODEL 8
REMARK VINA RESULT:      -6.4      2.746      3.653
REMARK  Name = 
REMARK  3 active torsions:
REMARK  status: ('A' for Active; 'I' for Inactive)
REMARK    1  A    between atoms: C_2  and  C_3
REMARK    2  A    between atoms: C_5  and  C_6
REMARK    3  A    between atoms: C_20  and  O_21
REMARK                            x       y       z     vdW  Elec       q    Type
REMARK                         _______ _______ _______ _____ _____    ______ ____
ROOT
ATOM      1  C   UNL     1       2.470   5.895  19.299  0.00  0.00    +0.000 A 
ATOM      2  C   UNL     1       1.981   7.226  19.274  0.00  0.00    +0.000 A 
ATOM      3  C   UNL     1       2.481   8.130  18.343  0.00  0.00    +0.000 A 
ATOM      4  C   UNL     1       3.481   7.689  17.442  0.00  0.00    +0.000 A 
ATOM      5  C   UNL     1       3.971   6.377  17.475  0.00  0.00    +0.000 A 
ATOM      6  I   UNL     1       5.449   5.806  16.108  0.00  0.00    +0.000 I 
ATOM      7  C   UNL     1       3.457   5.473  18.398  0.00  0.00    +0.000 A 
ENDROOT
BRANCH   3   8
ATOM      8  C   UNL     1       1.956   9.519  18.190  0.00  0.00    +0.000 C 
ATOM      9  O   UNL     1       2.706  10.289  17.576  0.00  0.00    +0.000 OA
ATOM     10  N   UNL     1       0.853   9.998  18.953  0.00  0.00    +0.000 N 
ATOM     11  C   UNL     1       1.169  11.375  19.475  0.00  0.00    +0.000 C 
ATOM     12  C   UNL     1      -0.146  12.043  19.793  0.00  0.00    +0.000 C 
ATOM     13  C   UNL     1      -0.885  11.517  18.615  0.00  0.00    +0.000 A 
ATOM     14  C   UNL     1      -1.868  12.152  17.877  0.00  0.00    +0.000 A 
ATOM     15  C   UNL     1      -2.636  11.366  17.036  0.00  0.00    +0.000 A 
ATOM     16  C   UNL     1      -2.449   9.974  17.040  0.00  0.00    +0.000 A 
ATOM     17  C   UNL     1      -1.329   9.383  17.671  0.00  0.00    +0.000 A 
ATOM     18  C   UNL     1      -0.456  10.208  18.355  0.00  0.00    +0.000 A 
ENDBRANCH   3   8
BRANCH   1  20
ATOM     19  N   UNL     1       1.399   4.223  20.938  0.00  0.00    +0.000 NA
ATOM     20  C   UNL     1       1.893   4.979  20.231  0.00  0.00    +0.000 C 
ENDBRANCH   1  20
BRANCH   7  21
ATOM     21  O   UNL     1       3.901   4.180  18.461  0.00  0.00    +0.000 OA
ATOM     22  H   UNL     1       3.697   3.813  19.341  0.00  0.00    +0.000 HD
ENDBRANCH   7  21
TORSDOF 3
ENDMDL
MODEL 9
REMARK VINA RESULT:      -6.3      4.246      9.348
REMARK  Name = 
REMARK  3 active torsions:
REMARK  status: ('A' for Active; 'I' for Inactive)
REMARK    1  A    between atoms: C_2  and  C_3
REMARK    2  A    between atoms: C_5  and  C_6
REMARK    3  A    between atoms: C_20  and  O_21
REMARK                            x       y       z     vdW  Elec       q    Type
REMARK                         _______ _______ _______ _____ _____    ______ ____
ROOT
ATOM      1  C   UNL     1       3.490   6.288  17.544  0.00  0.00    +0.000 A 
ATOM      2  C   UNL     1       4.642   6.052  16.753  0.00  0.00    +0.000 A 
ATOM      3  C   UNL     1       5.064   4.749  16.515  0.00  0.00    +0.000 A 
ATOM      4  C   UNL     1       4.323   3.684  17.084  0.00  0.00    +0.000 A 
ATOM      5  C   UNL     1       3.191   3.919  17.875  0.00  0.00    +0.000 A 
ATOM      6  I   UNL     1       2.153   2.290  18.678  0.00  0.00    +0.000 I 
ATOM      7  C   UNL     1       2.765   5.224  18.098  0.00  0.00    +0.000 A 
ENDROOT
BRANCH   3   8
ATOM      8  C   UNL     1       6.211   4.412  15.620  0.00  0.00    +0.000 C 
ATOM      9  O   UNL     1       7.204   3.959  16.204  0.00  0.00    +0.000 OA
ATOM     10  N   UNL     1       6.276   4.867  14.273  0.00  0.00    +0.000 N 
ATOM     11  C   UNL     1       7.661   5.385  13.988  0.00  0.00    +0.000 C 
ATOM     12  C   UNL     1       7.851   5.350  12.492  0.00  0.00    +0.000 C 
ATOM     13  C   UNL     1       7.155   4.055  12.270  0.00  0.00    +0.000 A 
ATOM     14  C   UNL     1       7.461   3.075  11.342  0.00  0.00    +0.000 A 
ATOM     15  C   UNL     1       6.497   2.113  11.097  0.00  0.00    +0.000 A 
ATOM     16  C   UNL     1       5.243   2.225  11.720  0.00  0.00    +0.000 A 
ATOM     17  C   UNL     1       5.028   3.131  12.785  0.00  0.00    +0.000 A 
ATOM     18  C   UNL     1       6.068   3.965  13.150  0.00  0.00    +0.000 A 
ENDBRANCH   3   8
BRANCH   1  20
ATOM     19  N   UNL     1       2.745   8.728  17.896  0.00  0.00    +0.000 NA
ATOM     20  C   UNL     1       3.053   7.638  17.721  0.00  0.00    +0.000 C 
ENDBRANCH   1  20
BRANCH   7  21
ATOM     21  O   UNL     1       1.660   5.499  18.857  0.00  0.00    +0.000 OA
ATOM     22  H   UNL     1       1.637   6.453  19.055  0.00  0.00    +0.000 HD
ENDBRANCH   7  21
TORSDOF 3
ENDMDL
