MODEL 1
REMARK VINA RESULT:      -9.3      0.000      0.000
REMARK  Name = 
REMARK  5 active torsions:
REMARK  status: ('A' for Active; 'I' for Inactive)
REMARK    1  A    between atoms: C_1  and  C_2
REMARK    2  A    between atoms: C_6  and  N_7
REMARK    3  A    between atoms: N_10  and  C_11
REMARK    4  A    between atoms: C_14  and  C_15
REMARK    5  A    between atoms: C_26  and  C_27
REMARK                            x       y       z     vdW  Elec       q    Type
REMARK                         _______ _______ _______ _____ _____    ______ ____
ROOT
ATOM      1  C   UNL     1       1.395   9.620  19.497  0.00  0.00    +0.000 A 
ATOM      2  C   UNL     1       1.716   9.571  18.138  0.00  0.00    +0.000 A 
ATOM      3  C   UNL     1       2.310   8.432  17.579  0.00  0.00    +0.000 A 
ATOM      4  C   UNL     1       2.571   7.284  18.339  0.00  0.00    +0.000 A 
ATOM      5  C   UNL     1       2.208   7.352  19.703  0.00  0.00    +0.000 A 
ATOM      6  C   UNL     1       1.651   8.507  20.298  0.00  0.00    +0.000 A 
ATOM      7  C   UNL     1       1.289   8.481  21.755  0.00  0.00    +0.000 C 
ENDROOT
BRANCH   4   8
ATOM      8  C   UNL     1       3.286   6.101  17.775  0.00  0.00    +0.000 A 
ATOM      9  C   UNL     1       2.636   4.839  17.727  0.00  0.00    +0.000 A 
ATOM     10  C   UNL     1       3.274   3.651  17.317  0.00  0.00    +0.000 A 
ATOM     11  C   UNL     1       4.617   3.663  16.977  0.00  0.00    +0.000 A 
ATOM     12  C   UNL     1       5.248   4.888  16.989  0.00  0.00    +0.000 A 
ATOM     13  C   UNL     1       4.613   6.097  17.327  0.00  0.00    +0.000 A 
ATOM     14  C   UNL     1       5.586   7.213  17.083  0.00  0.00    +0.000 C 
ATOM     15  N   UNL     1       6.761   6.535  16.587  0.00  0.00    +0.000 N 
ATOM     16  C   UNL     1       6.645   5.169  16.648  0.00  0.00    +0.000 C 
ATOM     17  O   UNL     1       7.525   4.349  16.486  0.00  0.00    +0.000 OA
ATOM     18  H   UNL     1       7.661   6.967  16.429  0.00  0.00    +0.000 HD
ENDBRANCH   4   8
BRANCH   1  22
ATOM     19  N   UNL     1      -0.963  12.067  20.777  0.00  0.00    +0.000 N 
ATOM     20  C   UNL     1      -0.566  10.874  20.199  0.00  0.00    +0.000 C 
ATOM     21  O   UNL     1      -1.320   9.953  19.893  0.00  0.00    +0.000 OA
ATOM     22  N   UNL     1       0.811  10.792  20.046  0.00  0.00    +0.000 N 
ATOM     23  H   UNL     1      -0.243  12.746  20.988  0.00  0.00    +0.000 HD
ATOM     24  H   UNL     1       1.339  11.269  20.760  0.00  0.00    +0.000 HD
BRANCH  19  30
ATOM     25  C   UNL     1      -4.323  12.632  24.368  0.00  0.00    +0.000 C 
ATOM     26  C   UNL     1      -3.949  12.680  22.915  0.00  0.00    +0.000 A 
ATOM     27  C   UNL     1      -4.922  12.976  21.954  0.00  0.00    +0.000 A 
ATOM     28  C   UNL     1      -4.584  13.003  20.608  0.00  0.00    +0.000 A 
ATOM     29  C   UNL     1      -3.278  12.719  20.214  0.00  0.00    +0.000 A 
ATOM     30  C   UNL     1      -2.289  12.403  21.143  0.00  0.00    +0.000 A 
ATOM     31  C   UNL     1      -2.628  12.408  22.502  0.00  0.00    +0.000 A 
ENDBRANCH  19  30
ENDBRANCH   1  22
TORSDOF 3
ENDMDL
MODEL 2
REMARK VINA RESULT:      -9.1      0.833      1.675
REMARK  Name = 
REMARK  5 active torsions:
REMARK  status: ('A' for Active; 'I' for Inactive)
REMARK    1  A    between atoms: C_1  and  C_2
REMARK    2  A    between atoms: C_6  and  N_7
REMARK    3  A    between atoms: N_10  and  C_11
REMARK    4  A    between atoms: C_14  and  C_15
REMARK    5  A    between atoms: C_26  and  C_27
REMARK                            x       y       z     vdW  Elec       q    Type
REMARK                         _______ _______ _______ _____ _____    ______ ____
ROOT
ATOM      1  C   UNL     1       1.352   9.468  19.293  0.00  0.00    +0.000 A 
ATOM      2  C   UNL     1       1.760   9.408  17.959  0.00  0.00    +0.000 A 
ATOM      3  C   UNL     1       2.437   8.287  17.462  0.00  0.00    +0.000 A 
ATOM      4  C   UNL     1       2.699   7.166  18.260  0.00  0.00    +0.000 A 
ATOM      5  C   UNL     1       2.249   7.242  19.598  0.00  0.00    +0.000 A 
ATOM      6  C   UNL     1       1.606   8.382  20.133  0.00  0.00    +0.000 A 
ATOM      7  C   UNL     1       1.154   8.367  21.565  0.00  0.00    +0.000 C 
ENDROOT
BRANCH   4   8
ATOM      8  C   UNL     1       3.499   6.005  17.768  0.00  0.00    +0.000 A 
ATOM      9  C   UNL     1       2.909   4.714  17.710  0.00  0.00    +0.000 A 
ATOM     10  C   UNL     1       3.624   3.549  17.366  0.00  0.00    +0.000 A 
ATOM     11  C   UNL     1       4.983   3.615  17.105  0.00  0.00    +0.000 A 
ATOM     12  C   UNL     1       5.556   4.868  17.127  0.00  0.00    +0.000 A 
ATOM     13  C   UNL     1       4.849   6.053  17.399  0.00  0.00    +0.000 A 
ATOM     14  C   UNL     1       5.784   7.207  17.186  0.00  0.00    +0.000 C 
ATOM     15  N   UNL     1       7.016   6.574  16.776  0.00  0.00    +0.000 N 
ATOM     16  C   UNL     1       6.957   5.206  16.862  0.00  0.00    +0.000 C 
ATOM     17  O   UNL     1       7.881   4.424  16.771  0.00  0.00    +0.000 OA
ATOM     18  H   UNL     1       7.904   7.044  16.661  0.00  0.00    +0.000 HD
ENDBRANCH   4   8
BRANCH   1  22
ATOM     19  N   UNL     1      -1.180  11.915  20.181  0.00  0.00    +0.000 N 
ATOM     20  C   UNL     1      -0.688  10.748  19.622  0.00  0.00    +0.000 C 
ATOM     21  O   UNL     1      -1.372   9.880  19.085  0.00  0.00    +0.000 OA
ATOM     22  N   UNL     1       0.685  10.622  19.780  0.00  0.00    +0.000 N 
ATOM     23  H   UNL     1      -0.512  12.549  20.600  0.00  0.00    +0.000 HD
ATOM     24  H   UNL     1       1.045  11.030  20.629  0.00  0.00    +0.000 HD
BRANCH  19  30
ATOM     25  C   UNL     1      -5.586  12.231  17.947  0.00  0.00    +0.000 C 
ATOM     26  C   UNL     1      -4.721  12.436  19.156  0.00  0.00    +0.000 A 
ATOM     27  C   UNL     1      -5.253  13.044  20.299  0.00  0.00    +0.000 A 
ATOM     28  C   UNL     1      -4.453  13.252  21.413  0.00  0.00    +0.000 A 
ATOM     29  C   UNL     1      -3.113  12.869  21.387  0.00  0.00    +0.000 A 
ATOM     30  C   UNL     1      -2.546  12.277  20.259  0.00  0.00    +0.000 A 
ATOM     31  C   UNL     1      -3.367  12.041  19.150  0.00  0.00    +0.000 A 
ENDBRANCH  19  30
ENDBRANCH   1  22
TORSDOF 3
ENDMDL
MODEL 3
REMARK VINA RESULT:      -8.9      0.732      1.420
REMARK  Name = 
REMARK  5 active torsions:
REMARK  status: ('A' for Active; 'I' for Inactive)
REMARK    1  A    between atoms: C_1  and  C_2
REMARK    2  A    between atoms: C_6  and  N_7
REMARK    3  A    between atoms: N_10  and  C_11
REMARK    4  A    between atoms: C_14  and  C_15
REMARK    5  A    between atoms: C_26  and  C_27
REMARK                            x       y       z     vdW  Elec       q    Type
REMARK                         _______ _______ _______ _____ _____    ______ ____
ROOT
ATOM      1  C   UNL     1       1.477   9.297  19.989  0.00  0.00    +0.000 A 
ATOM      2  C   UNL     1       1.599   8.072  20.649  0.00  0.00    +0.000 A 
ATOM      3  C   UNL     1       2.087   6.940  19.983  0.00  0.00    +0.000 A 
ATOM      4  C   UNL     1       2.511   6.991  18.649  0.00  0.00    +0.000 A 
ATOM      5  C   UNL     1       2.405   8.250  18.016  0.00  0.00    +0.000 A 
ATOM      6  C   UNL     1       1.871   9.394  18.654  0.00  0.00    +0.000 A 
ATOM      7  C   UNL     1       1.807  10.692  17.902  0.00  0.00    +0.000 C 
ENDROOT
BRANCH   4   8
ATOM      8  C   UNL     1       2.946   5.773  17.903  0.00  0.00    +0.000 A 
ATOM      9  C   UNL     1       2.167   4.587  17.971  0.00  0.00    +0.000 A 
ATOM     10  C   UNL     1       2.562   3.364  17.392  0.00  0.00    +0.000 A 
ATOM     11  C   UNL     1       3.786   3.258  16.752  0.00  0.00    +0.000 A 
ATOM     12  C   UNL     1       4.534   4.412  16.653  0.00  0.00    +0.000 A 
ATOM     13  C   UNL     1       4.129   5.658  17.161  0.00  0.00    +0.000 A 
ATOM     14  C   UNL     1       5.138   6.682  16.731  0.00  0.00    +0.000 C 
ATOM     15  N   UNL     1       6.089   5.916  15.959  0.00  0.00    +0.000 N 
ATOM     16  C   UNL     1       5.840   4.568  16.007  0.00  0.00    +0.000 C 
ATOM     17  O   UNL     1       6.565   3.673  15.624  0.00  0.00    +0.000 OA
ATOM     18  H   UNL     1       6.972   6.263  15.609  0.00  0.00    +0.000 HD
ENDBRANCH   4   8
BRANCH   1  22
ATOM     19  N   UNL     1      -0.738  11.792  21.421  0.00  0.00    +0.000 N 
ATOM     20  C   UNL     1      -0.404  10.673  20.679  0.00  0.00    +0.000 C 
ATOM     21  O   UNL     1      -1.208   9.934  20.114  0.00  0.00    +0.000 OA
ATOM     22  N   UNL     1       0.962  10.425  20.678  0.00  0.00    +0.000 N 
ATOM     23  H   UNL     1       0.018  12.316  21.842  0.00  0.00    +0.000 HD
ATOM     24  H   UNL     1       1.433  10.693  21.527  0.00  0.00    +0.000 HD
BRANCH  19  30
ATOM     25  C   UNL     1      -4.390  12.439  24.699  0.00  0.00    +0.000 C 
ATOM     26  C   UNL     1      -3.859  12.560  23.301  0.00  0.00    +0.000 A 
ATOM     27  C   UNL     1      -4.687  13.038  22.279  0.00  0.00    +0.000 A 
ATOM     28  C   UNL     1      -4.206  13.134  20.982  0.00  0.00    +0.000 A 
ATOM     29  C   UNL     1      -2.901  12.739  20.694  0.00  0.00    +0.000 A 
ATOM     30  C   UNL     1      -2.054  12.242  21.684  0.00  0.00    +0.000 A 
ATOM     31  C   UNL     1      -2.536  12.177  22.997  0.00  0.00    +0.000 A 
ENDBRANCH  19  30
ENDBRANCH   1  22
TORSDOF 3
ENDMDL
MODEL 4
REMARK VINA RESULT:      -8.8      1.696      2.261
REMARK  Name = 
REMARK  5 active torsions:
REMARK  status: ('A' for Active; 'I' for Inactive)
REMARK    1  A    between atoms: C_1  and  C_2
REMARK    2  A    between atoms: C_6  and  N_7
REMARK    3  A    between atoms: N_10  and  C_11
REMARK    4  A    between atoms: C_14  and  C_15
REMARK    5  A    between atoms: C_26  and  C_27
REMARK                            x       y       z     vdW  Elec       q    Type
REMARK                         _______ _______ _______ _____ _____    ______ ____
ROOT
ATOM      1  C   UNL     1       1.164   9.689  19.417  0.00  0.00    +0.000 A 
ATOM      2  C   UNL     1       1.537   9.566  18.077  0.00  0.00    +0.000 A 
ATOM      3  C   UNL     1       2.229   8.436  17.622  0.00  0.00    +0.000 A 
ATOM      4  C   UNL     1       2.541   7.367  18.472  0.00  0.00    +0.000 A 
ATOM      5  C   UNL     1       2.126   7.506  19.816  0.00  0.00    +0.000 A 
ATOM      6  C   UNL     1       1.468   8.657  20.306  0.00  0.00    +0.000 A 
ATOM      7  C   UNL     1       1.057   8.710  21.749  0.00  0.00    +0.000 C 
ENDROOT
BRANCH   4   8
ATOM      8  C   UNL     1       3.357   6.201  18.021  0.00  0.00    +0.000 A 
ATOM      9  C   UNL     1       4.423   6.398  17.102  0.00  0.00    +0.000 A 
ATOM     10  C   UNL     1       5.168   5.342  16.540  0.00  0.00    +0.000 A 
ATOM     11  C   UNL     1       4.849   4.026  16.837  0.00  0.00    +0.000 A 
ATOM     12  C   UNL     1       3.838   3.827  17.752  0.00  0.00    +0.000 A 
ATOM     13  C   UNL     1       3.128   4.866  18.379  0.00  0.00    +0.000 A 
ATOM     14  C   UNL     1       2.220   4.252  19.403  0.00  0.00    +0.000 C 
ATOM     15  N   UNL     1       2.495   2.838  19.295  0.00  0.00    +0.000 N 
ATOM     16  C   UNL     1       3.333   2.545  18.249  0.00  0.00    +0.000 C 
ATOM     17  O   UNL     1       3.588   1.448  17.797  0.00  0.00    +0.000 OA
ATOM     18  H   UNL     1       1.975   2.105  19.757  0.00  0.00    +0.000 HD
ENDBRANCH   4   8
BRANCH   1  22
ATOM     19  N   UNL     1      -1.409  12.094  20.303  0.00  0.00    +0.000 N 
ATOM     20  C   UNL     1      -0.905  10.905  19.805  0.00  0.00    +0.000 C 
ATOM     21  O   UNL     1      -1.585   9.965  19.399  0.00  0.00    +0.000 OA
ATOM     22  N   UNL     1       0.481  10.852  19.859  0.00  0.00    +0.000 N 
ATOM     23  H   UNL     1      -0.742  12.790  20.611  0.00  0.00    +0.000 HD
ATOM     24  H   UNL     1       0.886  11.347  20.639  0.00  0.00    +0.000 HD
BRANCH  19  30
ATOM     25  C   UNL     1      -5.131  13.266  23.347  0.00  0.00    +0.000 C 
ATOM     26  C   UNL     1      -4.620  12.980  21.966  0.00  0.00    +0.000 A 
ATOM     27  C   UNL     1      -5.509  12.948  20.886  0.00  0.00    +0.000 A 
ATOM     28  C   UNL     1      -5.043  12.665  19.610  0.00  0.00    +0.000 A 
ATOM     29  C   UNL     1      -3.691  12.397  19.407  0.00  0.00    +0.000 A 
ATOM     30  C   UNL     1      -2.780  12.403  20.463  0.00  0.00    +0.000 A 
ATOM     31  C   UNL     1      -3.251  12.720  21.743  0.00  0.00    +0.000 A 
ENDBRANCH  19  30
ENDBRANCH   1  22
TORSDOF 3
ENDMDL
MODEL 5
REMARK VINA RESULT:      -8.8      1.874      2.854
REMARK  Name = 
REMARK  5 active torsions:
REMARK  status: ('A' for Active; 'I' for Inactive)
REMARK    1  A    between atoms: C_1  and  C_2
REMARK    2  A    between atoms: C_6  and  N_7
REMARK    3  A    between atoms: N_10  and  C_11
REMARK    4  A    between atoms: C_14  and  C_15
REMARK    5  A    between atoms: C_26  and  C_27
REMARK                            x       y       z     vdW  Elec       q    Type
REMARK                         _______ _______ _______ _____ _____    ______ ____
ROOT
ATOM      1  C   UNL     1       1.063   9.658  19.316  0.00  0.00    +0.000 A 
ATOM      2  C   UNL     1       1.477   9.502  17.992  0.00  0.00    +0.000 A 
ATOM      3  C   UNL     1       2.212   8.377  17.594  0.00  0.00    +0.000 A 
ATOM      4  C   UNL     1       2.531   7.347  18.489  0.00  0.00    +0.000 A 
ATOM      5  C   UNL     1       2.074   7.518  19.815  0.00  0.00    +0.000 A 
ATOM      6  C   UNL     1       1.371   8.666  20.248  0.00  0.00    +0.000 A 
ATOM      7  C   UNL     1       0.918   8.755  21.677  0.00  0.00    +0.000 C 
ENDROOT
BRANCH   4   8
ATOM      8  C   UNL     1       3.391   6.191  18.099  0.00  0.00    +0.000 A 
ATOM      9  C   UNL     1       4.528   6.402  17.274  0.00  0.00    +0.000 A 
ATOM     10  C   UNL     1       5.327   5.357  16.769  0.00  0.00    +0.000 A 
ATOM     11  C   UNL     1       4.995   4.037  17.029  0.00  0.00    +0.000 A 
ATOM     12  C   UNL     1       3.913   3.823  17.856  0.00  0.00    +0.000 A 
ATOM     13  C   UNL     1       3.144   4.852  18.428  0.00  0.00    +0.000 A 
ATOM     14  C   UNL     1       2.159   4.223  19.369  0.00  0.00    +0.000 C 
ATOM     15  N   UNL     1       2.455   2.812  19.274  0.00  0.00    +0.000 N 
ATOM     16  C   UNL     1       3.380   2.533  18.300  0.00  0.00    +0.000 C 
ATOM     17  O   UNL     1       3.680   1.441  17.864  0.00  0.00    +0.000 OA
ATOM     18  H   UNL     1       1.904   2.071  19.687  0.00  0.00    +0.000 HD
ENDBRANCH   4   8
BRANCH   1  22
ATOM     19  N   UNL     1      -1.591  12.055  19.949  0.00  0.00    +0.000 N 
ATOM     20  C   UNL     1      -1.035  10.874  19.489  0.00  0.00    +0.000 C 
ATOM     21  O   UNL     1      -1.665   9.945  18.990  0.00  0.00    +0.000 OA
ATOM     22  N   UNL     1       0.336  10.815  19.701  0.00  0.00    +0.000 N 
ATOM     23  H   UNL     1      -0.963  12.742  20.345  0.00  0.00    +0.000 HD
ATOM     24  H   UNL     1       0.649  11.293  20.531  0.00  0.00    +0.000 HD
BRANCH  19  30
ATOM     25  C   UNL     1      -5.927  12.021  17.564  0.00  0.00    +0.000 C 
ATOM     26  C   UNL     1      -5.113  12.352  18.779  0.00  0.00    +0.000 A 
ATOM     27  C   UNL     1      -5.706  13.022  19.855  0.00  0.00    +0.000 A 
ATOM     28  C   UNL     1      -4.952  13.347  20.974  0.00  0.00    +0.000 A 
ATOM     29  C   UNL     1      -3.598  13.018  21.019  0.00  0.00    +0.000 A 
ATOM     30  C   UNL     1      -2.971  12.366  19.958  0.00  0.00    +0.000 A 
ATOM     31  C   UNL     1      -3.744  12.013  18.845  0.00  0.00    +0.000 A 
ENDBRANCH  19  30
ENDBRANCH   1  22
TORSDOF 3
ENDMDL
MODEL 6
REMARK VINA RESULT:      -8.7      2.788      3.444
REMARK  Name = 
REMARK  5 active torsions:
REMARK  status: ('A' for Active; 'I' for Inactive)
REMARK    1  A    between atoms: C_1  and  C_2
REMARK    2  A    between atoms: C_6  and  N_7
REMARK    3  A    between atoms: N_10  and  C_11
REMARK    4  A    between atoms: C_14  and  C_15
REMARK    5  A    between atoms: C_26  and  C_27
REMARK                            x       y       z     vdW  Elec       q    Type
REMARK                         _______ _______ _______ _____ _____    ______ ____
ROOT
ATOM      1  C   UNL     1       1.177   9.587  19.348  0.00  0.00    +0.000 A 
ATOM      2  C   UNL     1       1.468   9.456  17.988  0.00  0.00    +0.000 A 
ATOM      3  C   UNL     1       2.134   8.324  17.499  0.00  0.00    +0.000 A 
ATOM      4  C   UNL     1       2.500   7.261  18.336  0.00  0.00    +0.000 A 
ATOM      5  C   UNL     1       2.166   7.408  19.701  0.00  0.00    +0.000 A 
ATOM      6  C   UNL     1       1.537   8.561  20.224  0.00  0.00    +0.000 A 
ATOM      7  C   UNL     1       1.213   8.622  21.688  0.00  0.00    +0.000 C 
ENDROOT
BRANCH   4   8
ATOM      8  C   UNL     1       3.290   6.094  17.843  0.00  0.00    +0.000 A 
ATOM      9  C   UNL     1       2.700   4.802  17.818  0.00  0.00    +0.000 A 
ATOM     10  C   UNL     1       3.408   3.632  17.475  0.00  0.00    +0.000 A 
ATOM     11  C   UNL     1       4.761   3.695  17.183  0.00  0.00    +0.000 A 
ATOM     12  C   UNL     1       5.334   4.948  17.174  0.00  0.00    +0.000 A 
ATOM     13  C   UNL     1       4.632   6.136  17.444  0.00  0.00    +0.000 A 
ATOM     14  C   UNL     1       5.561   7.288  17.194  0.00  0.00    +0.000 C 
ATOM     15  N   UNL     1       6.784   6.649  16.767  0.00  0.00    +0.000 N 
ATOM     16  C   UNL     1       6.728   5.283  16.874  0.00  0.00    +0.000 C 
ATOM     17  O   UNL     1       7.650   4.500  16.774  0.00  0.00    +0.000 OA
ATOM     18  H   UNL     1       7.668   7.118  16.625  0.00  0.00    +0.000 HD
ENDBRANCH   4   8
BRANCH   1  22
ATOM     19  N   UNL     1       0.310  13.025  20.130  0.00  0.00    +0.000 N 
ATOM     20  C   UNL     1       1.096  11.999  19.635  0.00  0.00    +0.000 C 
ATOM     21  O   UNL     1       2.164  12.150  19.045  0.00  0.00    +0.000 OA
ATOM     22  N   UNL     1       0.520  10.751  19.824  0.00  0.00    +0.000 N 
ATOM     23  H   UNL     1      -0.553  12.770  20.592  0.00  0.00    +0.000 HD
ATOM     24  H   UNL     1      -0.488  10.748  19.790  0.00  0.00    +0.000 HD
BRANCH  19  30
ATOM     25  C   UNL     1      -0.636  17.316  17.851  0.00  0.00    +0.000 C 
ATOM     26  C   UNL     1       0.122  16.526  18.877  0.00  0.00    +0.000 A 
ATOM     27  C   UNL     1       1.128  17.144  19.629  0.00  0.00    +0.000 A 
ATOM     28  C   UNL     1       1.843  16.413  20.566  0.00  0.00    +0.000 A 
ATOM     29  C   UNL     1       1.570  15.058  20.748  0.00  0.00    +0.000 A 
ATOM     30  C   UNL     1       0.586  14.407  20.004  0.00  0.00    +0.000 A 
ATOM     31  C   UNL     1      -0.154  15.157  19.082  0.00  0.00    +0.000 A 
ENDBRANCH  19  30
ENDBRANCH   1  22
TORSDOF 3
ENDMDL
MODEL 7
REMARK VINA RESULT:      -8.7      1.592      1.914
REMARK  Name = 
REMARK  5 active torsions:
REMARK  status: ('A' for Active; 'I' for Inactive)
REMARK    1  A    between atoms: C_1  and  C_2
REMARK    2  A    between atoms: C_6  and  N_7
REMARK    3  A    between atoms: N_10  and  C_11
REMARK    4  A    between atoms: C_14  and  C_15
REMARK    5  A    between atoms: C_26  and  C_27
REMARK                            x       y       z     vdW  Elec       q    Type
REMARK                         _______ _______ _______ _____ _____    ______ ____
ROOT
ATOM      1  C   UNL     1       0.910   9.566  19.164  0.00  0.00    +0.000 A 
ATOM      2  C   UNL     1       1.495   9.341  17.916  0.00  0.00    +0.000 A 
ATOM      3  C   UNL     1       2.351   8.251  17.707  0.00  0.00    +0.000 A 
ATOM      4  C   UNL     1       2.626   7.321  18.719  0.00  0.00    +0.000 A 
ATOM      5  C   UNL     1       1.996   7.558  19.962  0.00  0.00    +0.000 A 
ATOM      6  C   UNL     1       1.167   8.676  20.208  0.00  0.00    +0.000 A 
ATOM      7  C   UNL     1       0.534   8.838  21.559  0.00  0.00    +0.000 C 
ENDROOT
BRANCH   4   8
ATOM      8  C   UNL     1       3.606   6.210  18.536  0.00  0.00    +0.000 A 
ATOM      9  C   UNL     1       3.633   5.132  19.459  0.00  0.00    +0.000 A 
ATOM     10  C   UNL     1       4.596   4.103  19.425  0.00  0.00    +0.000 A 
ATOM     11  C   UNL     1       5.614   4.131  18.485  0.00  0.00    +0.000 A 
ATOM     12  C   UNL     1       5.578   5.157  17.565  0.00  0.00    +0.000 A 
ATOM     13  C   UNL     1       4.587   6.154  17.536  0.00  0.00    +0.000 A 
ATOM     14  C   UNL     1       4.811   6.993  16.313  0.00  0.00    +0.000 C 
ATOM     15  N   UNL     1       5.962   6.381  15.690  0.00  0.00    +0.000 N 
ATOM     16  C   UNL     1       6.515   5.393  16.464  0.00  0.00    +0.000 C 
ATOM     17  O   UNL     1       7.583   4.841  16.298  0.00  0.00    +0.000 OA
ATOM     18  H   UNL     1       6.468   6.759  14.900  0.00  0.00    +0.000 HD
ENDBRANCH   4   8
BRANCH   1  22
ATOM     19  N   UNL     1      -1.949  11.805  19.216  0.00  0.00    +0.000 N 
ATOM     20  C   UNL     1      -1.255  10.644  18.921  0.00  0.00    +0.000 C 
ATOM     21  O   UNL     1      -1.738   9.653  18.378  0.00  0.00    +0.000 OA
ATOM     22  N   UNL     1       0.062  10.687  19.358  0.00  0.00    +0.000 N 
ATOM     23  H   UNL     1      -1.438  12.551  19.671  0.00  0.00    +0.000 HD
ATOM     24  H   UNL     1       0.203  11.223  20.199  0.00  0.00    +0.000 HD
BRANCH  19  30
ATOM     25  C   UNL     1      -6.338  13.274  20.969  0.00  0.00    +0.000 C 
ATOM     26  C   UNL     1      -5.496  12.745  19.846  0.00  0.00    +0.000 A 
ATOM     27  C   UNL     1      -6.092  12.409  18.625  0.00  0.00    +0.000 A 
ATOM     28  C   UNL     1      -5.319  11.903  17.590  0.00  0.00    +0.000 A 
ATOM     29  C   UNL     1      -3.951  11.715  17.772  0.00  0.00    +0.000 A 
ATOM     30  C   UNL     1      -3.327  12.022  18.980  0.00  0.00    +0.000 A 
ATOM     31  C   UNL     1      -4.106  12.562  20.011  0.00  0.00    +0.000 A 
ENDBRANCH  19  30
ENDBRANCH   1  22
TORSDOF 3
ENDMDL
MODEL 8
REMARK VINA RESULT:      -8.6      3.104      4.001
REMARK  Name = 
REMARK  5 active torsions:
REMARK  status: ('A' for Active; 'I' for Inactive)
REMARK    1  A    between atoms: C_1  and  C_2
REMARK    2  A    between atoms: C_6  and  N_7
REMARK    3  A    between atoms: N_10  and  C_11
REMARK    4  A    between atoms: C_14  and  C_15
REMARK    5  A    between atoms: C_26  and  C_27
REMARK                            x       y       z     vdW  Elec       q    Type
REMARK                         _______ _______ _______ _____ _____    ______ ____
ROOT
ATOM      1  C   UNL     1       0.838   9.772  19.494  0.00  0.00    +0.000 A 
ATOM      2  C   UNL     1       1.124   9.575  18.142  0.00  0.00    +0.000 A 
ATOM      3  C   UNL     1       1.862   8.463  17.715  0.00  0.00    +0.000 A 
ATOM      4  C   UNL     1       2.310   7.484  18.611  0.00  0.00    +0.000 A 
ATOM      5  C   UNL     1       1.981   7.694  19.969  0.00  0.00    +0.000 A 
ATOM      6  C   UNL     1       1.278   8.831  20.428  0.00  0.00    +0.000 A 
ATOM      7  C   UNL     1       0.966   8.963  21.890  0.00  0.00    +0.000 C 
ENDROOT
BRANCH   4   8
ATOM      8  C   UNL     1       3.175   6.345  18.181  0.00  0.00    +0.000 A 
ATOM      9  C   UNL     1       4.306   6.589  17.356  0.00  0.00    +0.000 A 
ATOM     10  C   UNL     1       5.107   5.564  16.814  0.00  0.00    +0.000 A 
ATOM     11  C   UNL     1       4.785   4.234  17.036  0.00  0.00    +0.000 A 
ATOM     12  C   UNL     1       3.708   3.989  17.862  0.00  0.00    +0.000 A 
ATOM     13  C   UNL     1       2.938   4.995  18.470  0.00  0.00    +0.000 A 
ATOM     14  C   UNL     1       1.962   4.332  19.397  0.00  0.00    +0.000 C 
ATOM     15  N   UNL     1       2.265   2.927  19.258  0.00  0.00    +0.000 N 
ATOM     16  C   UNL     1       3.185   2.683  18.270  0.00  0.00    +0.000 C 
ATOM     17  O   UNL     1       3.489   1.607  17.799  0.00  0.00    +0.000 OA
ATOM     18  H   UNL     1       1.721   2.170  19.651  0.00  0.00    +0.000 HD
ENDBRANCH   4   8
BRANCH   1  22
ATOM     19  N   UNL     1      -0.177  13.178  20.237  0.00  0.00    +0.000 N 
ATOM     20  C   UNL     1       0.684  12.175  19.828  0.00  0.00    +0.000 C 
ATOM     21  O   UNL     1       1.819  12.353  19.392  0.00  0.00    +0.000 OA
ATOM     22  N   UNL     1       0.105  10.915  19.906  0.00  0.00    +0.000 N 
ATOM     23  H   UNL     1      -1.090  12.901  20.573  0.00  0.00    +0.000 HD
ATOM     24  H   UNL     1      -0.888  10.902  19.736  0.00  0.00    +0.000 HD
BRANCH  19  30
ATOM     25  C   UNL     1      -0.520  17.440  17.745  0.00  0.00    +0.000 C 
ATOM     26  C   UNL     1      -0.073  16.671  18.953  0.00  0.00    +0.000 A 
ATOM     27  C   UNL     1       0.660  17.314  19.957  0.00  0.00    +0.000 A 
ATOM     28  C   UNL     1       1.091  16.602  21.067  0.00  0.00    +0.000 A 
ATOM     29  C   UNL     1       0.806  15.242  21.174  0.00  0.00    +0.000 A 
ATOM     30  C   UNL     1       0.094  14.566  20.184  0.00  0.00    +0.000 A 
ATOM     31  C   UNL     1      -0.366  15.297  19.081  0.00  0.00    +0.000 A 
ENDBRANCH  19  30
ENDBRANCH   1  22
TORSDOF 3
ENDMDL
MODEL 9
REMARK VINA RESULT:      -8.6      2.828      3.360
REMARK  Name = 
REMARK  5 active torsions:
REMARK  status: ('A' for Active; 'I' for Inactive)
REMARK    1  A    between atoms: C_1  and  C_2
REMARK    2  A    between atoms: C_6  and  N_7
REMARK    3  A    between atoms: N_10  and  C_11
REMARK    4  A    between atoms: C_14  and  C_15
REMARK    5  A    between atoms: C_26  and  C_27
REMARK                            x       y       z     vdW  Elec       q    Type
REMARK                         _______ _______ _______ _____ _____    ______ ____
ROOT
ATOM      1  C   UNL     1       1.304   9.489  19.254  0.00  0.00    +0.000 A 
ATOM      2  C   UNL     1       1.640   9.371  17.903  0.00  0.00    +0.000 A 
ATOM      3  C   UNL     1       2.314   8.240  17.424  0.00  0.00    +0.000 A 
ATOM      4  C   UNL     1       2.643   7.165  18.261  0.00  0.00    +0.000 A 
ATOM      5  C   UNL     1       2.264   7.299  19.615  0.00  0.00    +0.000 A 
ATOM      6  C   UNL     1       1.626   8.451  20.129  0.00  0.00    +0.000 A 
ATOM      7  C   UNL     1       1.253   8.498  21.583  0.00  0.00    +0.000 C 
ENDROOT
BRANCH   4   8
ATOM      8  C   UNL     1       3.441   5.997  17.782  0.00  0.00    +0.000 A 
ATOM      9  C   UNL     1       2.852   4.705  17.748  0.00  0.00    +0.000 A 
ATOM     10  C   UNL     1       3.565   3.535  17.417  0.00  0.00    +0.000 A 
ATOM     11  C   UNL     1       4.923   3.597  17.148  0.00  0.00    +0.000 A 
ATOM     12  C   UNL     1       5.496   4.851  17.146  0.00  0.00    +0.000 A 
ATOM     13  C   UNL     1       4.789   6.040  17.404  0.00  0.00    +0.000 A 
ATOM     14  C   UNL     1       5.722   7.191  17.168  0.00  0.00    +0.000 C 
ATOM     15  N   UNL     1       6.952   6.552  16.761  0.00  0.00    +0.000 N 
ATOM     16  C   UNL     1       6.895   5.185  16.868  0.00  0.00    +0.000 C 
ATOM     17  O   UNL     1       7.818   4.403  16.784  0.00  0.00    +0.000 OA
ATOM     18  H   UNL     1       7.839   7.020  16.633  0.00  0.00    +0.000 HD
ENDBRANCH   4   8
BRANCH   1  22
ATOM     19  N   UNL     1       0.347  12.931  19.902  0.00  0.00    +0.000 N 
ATOM     20  C   UNL     1       1.130  11.910  19.395  0.00  0.00    +0.000 C 
ATOM     21  O   UNL     1       2.125  12.067  18.690  0.00  0.00    +0.000 OA
ATOM     22  N   UNL     1       0.639  10.653  19.720  0.00  0.00    +0.000 N 
ATOM     23  H   UNL     1      -0.452  12.671  20.466  0.00  0.00    +0.000 HD
ATOM     24  H   UNL     1      -0.365  10.604  19.790  0.00  0.00    +0.000 HD
BRANCH  19  30
ATOM     25  C   UNL     1       2.802  17.090  20.984  0.00  0.00    +0.000 C 
ATOM     26  C   UNL     1       1.749  16.368  20.197  0.00  0.00    +0.000 A 
ATOM     27  C   UNL     1       0.934  17.077  19.307  0.00  0.00    +0.000 A 
ATOM     28  C   UNL     1      -0.053  16.415  18.590  0.00  0.00    +0.000 A 
ATOM     29  C   UNL     1      -0.243  15.046  18.770  0.00  0.00    +0.000 A 
ATOM     30  C   UNL     1       0.539  14.313  19.661  0.00  0.00    +0.000 A 
ATOM     31  C   UNL     1       1.554  14.979  20.358  0.00  0.00    +0.000 A 
ENDBRANCH  19  30
ENDBRANCH   1  22
TORSDOF 3
ENDMDL
