MODEL 1
REMARK VINA RESULT:      -6.8      0.000      0.000
REMARK  Name = 
REMARK  7 active torsions:
REMARK  status: ('A' for Active; 'I' for Inactive)
REMARK    1  A    between atoms: C_1  and  O_2
REMARK    2  A    between atoms: O_2  and  C_3
REMARK    3  A    between atoms: C_6  and  C_7
REMARK    4  A    between atoms: N_11  and  C_12
REMARK    5  A    between atoms: N_15  and  C_16
REMARK    6  A    between atoms: N_19  and  C_20
REMARK    7  A    between atoms: C_23  and  O_24
REMARK                            x       y       z     vdW  Elec       q    Type
REMARK                         _______ _______ _______ _____ _____    ______ ____
ROOT
ATOM      1  C   UNL     1      -2.807  12.353  19.950  0.00  0.00    +0.000 A 
ATOM      2  C   UNL     1      -3.508  12.758  21.092  0.00  0.00    +0.000 A 
ATOM      3  C   UNL     1      -3.054  13.305  22.360  0.00  0.00    +0.000 A 
ATOM      4  O   UNL     1      -1.883  13.571  22.605  0.00  0.00    +0.000 OA
ATOM      5  N   UNL     1      -4.084  13.513  23.289  0.00  0.00    +0.000 N 
ATOM      6  C   UNL     1      -3.712  13.981  24.609  0.00  0.00    +0.000 C 
ATOM      7  C   UNL     1      -5.459  13.371  23.049  0.00  0.00    +0.000 A 
ATOM      8  O   UNL     1      -6.290  13.644  23.927  0.00  0.00    +0.000 OA
ATOM      9  N   UNL     1      -5.850  12.925  21.783  0.00  0.00    +0.000 N 
ATOM     10  C   UNL     1      -7.268  12.776  21.496  0.00  0.00    +0.000 C 
ATOM     11  C   UNL     1      -4.880  12.611  20.845  0.00  0.00    +0.000 A 
ATOM     12  C   UNL     1      -5.034  12.146  19.567  0.00  0.00    +0.000 A 
ATOM     13  N   UNL     1      -3.780  11.879  19.038  0.00  0.00    +0.000 N 
ENDROOT
BRANCH   1  17
ATOM     14  C   UNL     1       1.424  12.705  19.164  0.00  0.00    +0.000 A 
ATOM     15  C   UNL     1       0.521  13.594  18.590  0.00  0.00    +0.000 A 
ATOM     16  C   UNL     1      -0.845  13.505  18.878  0.00  0.00    +0.000 A 
ATOM     17  C   UNL     1      -1.352  12.463  19.657  0.00  0.00    +0.000 A 
ATOM     18  C   UNL     1      -0.435  11.526  20.161  0.00  0.00    +0.000 A 
ATOM     19  C   UNL     1       0.943  11.675  19.964  0.00  0.00    +0.000 A 
BRANCH  14  21
ATOM     20  C   UNL     1       3.032  14.161  18.236  0.00  0.00    +0.000 C 
ATOM     21  O   UNL     1       2.736  12.906  18.838  0.00  0.00    +0.000 OA
ENDBRANCH  14  21
ENDBRANCH   1  17
BRANCH  13  22
ATOM     22  C   UNL     1      -3.576  11.249  17.767  0.00  0.00    +0.000 A 
ATOM     23  C   UNL     1      -4.339  11.633  16.653  0.00  0.00    +0.000 A 
ATOM     24  C   UNL     1      -4.021  11.144  15.380  0.00  0.00    +0.000 A 
ATOM     25  C   UNL     1      -2.952  10.268  15.227  0.00  0.00    +0.000 A 
ATOM     26  C   UNL     1      -2.236   9.825  16.329  0.00  0.00    +0.000 A 
ATOM     27  C   UNL     1      -2.568  10.289  17.603  0.00  0.00    +0.000 A 
BRANCH  25  28
ATOM     28  O   UNL     1      -2.563   9.820  13.999  0.00  0.00    +0.000 OA
ATOM     29  H   UNL     1      -1.631  10.055  13.859  0.00  0.00    +0.000 HD
ENDBRANCH  25  28
ENDBRANCH  13  22
TORSDOF 4
ENDMDL
MODEL 2
REMARK VINA RESULT:      -6.6      3.701      6.921
REMARK  Name = 
REMARK  7 active torsions:
REMARK  status: ('A' for Active; 'I' for Inactive)
REMARK    1  A    between atoms: C_1  and  O_2
REMARK    2  A    between atoms: O_2  and  C_3
REMARK    3  A    between atoms: C_6  and  C_7
REMARK    4  A    between atoms: N_11  and  C_12
REMARK    5  A    between atoms: N_15  and  C_16
REMARK    6  A    between atoms: N_19  and  C_20
REMARK    7  A    between atoms: C_23  and  O_24
REMARK                            x       y       z     vdW  Elec       q    Type
REMARK                         _______ _______ _______ _____ _____    ______ ____
ROOT
ATOM      1  C   UNL     1      -0.025  13.424  20.010  0.00  0.00    +0.000 A 
ATOM      2  C   UNL     1       0.390  14.637  19.450  0.00  0.00    +0.000 A 
ATOM      3  C   UNL     1      -0.250  15.940  19.385  0.00  0.00    +0.000 A 
ATOM      4  O   UNL     1      -1.322  16.198  19.919  0.00  0.00    +0.000 OA
ATOM      5  N   UNL     1       0.477  16.894  18.657  0.00  0.00    +0.000 N 
ATOM      6  C   UNL     1      -0.125  18.199  18.473  0.00  0.00    +0.000 C 
ATOM      7  C   UNL     1       1.769  16.731  18.135  0.00  0.00    +0.000 A 
ATOM      8  O   UNL     1       2.346  17.664  17.560  0.00  0.00    +0.000 OA
ATOM      9  N   UNL     1       2.379  15.483  18.300  0.00  0.00    +0.000 N 
ATOM     10  C   UNL     1       3.722  15.282  17.780  0.00  0.00    +0.000 C 
ATOM     11  C   UNL     1       1.680  14.465  18.929  0.00  0.00    +0.000 A 
ATOM     12  C   UNL     1       2.072  13.177  19.179  0.00  0.00    +0.000 A 
ATOM     13  N   UNL     1       1.006  12.492  19.742  0.00  0.00    +0.000 N 
ENDROOT
BRANCH   1  17
ATOM     14  C   UNL     1      -3.578  12.651  22.340  0.00  0.00    +0.000 A 
ATOM     15  C   UNL     1      -2.356  12.876  22.965  0.00  0.00    +0.000 A 
ATOM     16  C   UNL     1      -1.214  13.167  22.212  0.00  0.00    +0.000 A 
ATOM     17  C   UNL     1      -1.243  13.134  20.816  0.00  0.00    +0.000 A 
ATOM     18  C   UNL     1      -2.466  12.824  20.201  0.00  0.00    +0.000 A 
ATOM     19  C   UNL     1      -3.634  12.639  20.951  0.00  0.00    +0.000 A 
BRANCH  14  21
ATOM     20  C   UNL     1      -4.335  12.461  24.566  0.00  0.00    +0.000 C 
ATOM     21  O   UNL     1      -4.632  12.409  23.176  0.00  0.00    +0.000 OA
ENDBRANCH  14  21
ENDBRANCH   1  17
BRANCH  13  22
ATOM     22  C   UNL     1       1.021  11.083  20.003  0.00  0.00    +0.000 A 
ATOM     23  C   UNL     1       1.251  10.170  18.961  0.00  0.00    +0.000 A 
ATOM     24  C   UNL     1       1.440   8.812  19.245  0.00  0.00    +0.000 A 
ATOM     25  C   UNL     1       1.388   8.370  20.562  0.00  0.00    +0.000 A 
ATOM     26  C   UNL     1       1.091   9.250  21.593  0.00  0.00    +0.000 A 
ATOM     27  C   UNL     1       0.875  10.600  21.311  0.00  0.00    +0.000 A 
BRANCH  25  28
ATOM     28  O   UNL     1       1.633   7.070  20.892  0.00  0.00    +0.000 OA
ATOM     29  H   UNL     1       2.368   6.740  20.349  0.00  0.00    +0.000 HD
ENDBRANCH  25  28
ENDBRANCH  13  22
TORSDOF 4
ENDMDL
MODEL 3
REMARK VINA RESULT:      -6.6      3.218      7.354
REMARK  Name = 
REMARK  7 active torsions:
REMARK  status: ('A' for Active; 'I' for Inactive)
REMARK    1  A    between atoms: C_1  and  O_2
REMARK    2  A    between atoms: O_2  and  C_3
REMARK    3  A    between atoms: C_6  and  C_7
REMARK    4  A    between atoms: N_11  and  C_12
REMARK    5  A    between atoms: N_15  and  C_16
REMARK    6  A    between atoms: N_19  and  C_20
REMARK    7  A    between atoms: C_23  and  O_24
REMARK                            x       y       z     vdW  Elec       q    Type
REMARK                         _______ _______ _______ _____ _____    ______ ____
ROOT
ATOM      1  C   UNL     1       0.802  13.308  20.276  0.00  0.00    +0.000 A 
ATOM      2  C   UNL     1       2.002  13.974  20.002  0.00  0.00    +0.000 A 
ATOM      3  C   UNL     1       2.923  13.883  18.881  0.00  0.00    +0.000 A 
ATOM      4  O   UNL     1       2.724  13.186  17.893  0.00  0.00    +0.000 OA
ATOM      5  N   UNL     1       4.070  14.678  19.023  0.00  0.00    +0.000 N 
ATOM      6  C   UNL     1       5.080  14.588  17.988  0.00  0.00    +0.000 C 
ATOM      7  C   UNL     1       4.313  15.608  20.045  0.00  0.00    +0.000 A 
ATOM      8  O   UNL     1       5.336  16.307  20.039  0.00  0.00    +0.000 OA
ATOM      9  N   UNL     1       3.354  15.721  21.057  0.00  0.00    +0.000 N 
ATOM     10  C   UNL     1       3.570  16.682  22.127  0.00  0.00    +0.000 C 
ATOM     11  C   UNL     1       2.240  14.899  21.029  0.00  0.00    +0.000 A 
ATOM     12  C   UNL     1       1.197  14.828  21.914  0.00  0.00    +0.000 A 
ATOM     13  N   UNL     1       0.362  13.789  21.532  0.00  0.00    +0.000 N 
ENDROOT
BRANCH   1  17
ATOM     14  C   UNL     1      -1.342  10.544  17.744  0.00  0.00    +0.000 A 
ATOM     15  C   UNL     1      -1.721  11.881  17.814  0.00  0.00    +0.000 A 
ATOM     16  C   UNL     1      -1.001  12.784  18.602  0.00  0.00    +0.000 A 
ATOM     17  C   UNL     1       0.046  12.353  19.420  0.00  0.00    +0.000 A 
ATOM     18  C   UNL     1       0.362  10.985  19.401  0.00  0.00    +0.000 A 
ATOM     19  C   UNL     1      -0.286  10.099  18.532  0.00  0.00    +0.000 A 
BRANCH  14  21
ATOM     20  C   UNL     1      -2.758  10.445  15.861  0.00  0.00    +0.000 C 
ATOM     21  O   UNL     1      -2.096   9.760  16.917  0.00  0.00    +0.000 OA
ENDBRANCH  14  21
ENDBRANCH   1  17
BRANCH  13  22
ATOM     22  C   UNL     1      -0.754  13.344  22.314  0.00  0.00    +0.000 A 
ATOM     23  C   UNL     1      -1.789  14.234  22.645  0.00  0.00    +0.000 A 
ATOM     24  C   UNL     1      -2.957  13.759  23.255  0.00  0.00    +0.000 A 
ATOM     25  C   UNL     1      -3.081  12.404  23.541  0.00  0.00    +0.000 A 
ATOM     26  C   UNL     1      -2.037  11.527  23.285  0.00  0.00    +0.000 A 
ATOM     27  C   UNL     1      -0.861  12.002  22.702  0.00  0.00    +0.000 A 
BRANCH  25  28
ATOM     28  O   UNL     1      -4.225  11.886  24.072  0.00  0.00    +0.000 OA
ATOM     29  H   UNL     1      -4.733  11.454  23.365  0.00  0.00    +0.000 HD
ENDBRANCH  25  28
ENDBRANCH  13  22
TORSDOF 4
ENDMDL
MODEL 4
REMARK VINA RESULT:      -6.4      1.350      4.806
REMARK  Name = 
REMARK  7 active torsions:
REMARK  status: ('A' for Active; 'I' for Inactive)
REMARK    1  A    between atoms: C_1  and  O_2
REMARK    2  A    between atoms: O_2  and  C_3
REMARK    3  A    between atoms: C_6  and  C_7
REMARK    4  A    between atoms: N_11  and  C_12
REMARK    5  A    between atoms: N_15  and  C_16
REMARK    6  A    between atoms: N_19  and  C_20
REMARK    7  A    between atoms: C_23  and  O_24
REMARK                            x       y       z     vdW  Elec       q    Type
REMARK                         _______ _______ _______ _____ _____    ______ ____
ROOT
ATOM      1  C   UNL     1      -3.177  12.103  19.587  0.00  0.00    +0.000 A 
ATOM      2  C   UNL     1      -4.278  12.265  20.437  0.00  0.00    +0.000 A 
ATOM      3  C   UNL     1      -5.680  11.919  20.277  0.00  0.00    +0.000 A 
ATOM      4  O   UNL     1      -6.126  11.320  19.306  0.00  0.00    +0.000 OA
ATOM      5  N   UNL     1      -6.490  12.324  21.349  0.00  0.00    +0.000 N 
ATOM      6  C   UNL     1      -7.915  12.090  21.238  0.00  0.00    +0.000 C 
ATOM      7  C   UNL     1      -6.048  12.884  22.557  0.00  0.00    +0.000 A 
ATOM      8  O   UNL     1      -6.847  13.148  23.466  0.00  0.00    +0.000 OA
ATOM      9  N   UNL     1      -4.676  13.118  22.696  0.00  0.00    +0.000 N 
ATOM     10  C   UNL     1      -4.182  13.689  23.939  0.00  0.00    +0.000 C 
ATOM     11  C   UNL     1      -3.828  12.827  21.640  0.00  0.00    +0.000 A 
ATOM     12  C   UNL     1      -2.472  12.991  21.552  0.00  0.00    +0.000 A 
ATOM     13  N   UNL     1      -2.068  12.655  20.269  0.00  0.00    +0.000 N 
ENDROOT
BRANCH   1  17
ATOM     14  C   UNL     1      -2.914  10.140  15.749  0.00  0.00    +0.000 A 
ATOM     15  C   UNL     1      -3.811  11.184  15.951  0.00  0.00    +0.000 A 
ATOM     16  C   UNL     1      -3.867  11.847  17.181  0.00  0.00    +0.000 A 
ATOM     17  C   UNL     1      -3.107  11.413  18.270  0.00  0.00    +0.000 A 
ATOM     18  C   UNL     1      -2.267  10.305  18.072  0.00  0.00    +0.000 A 
ATOM     19  C   UNL     1      -2.129   9.709  16.813  0.00  0.00    +0.000 A 
BRANCH  14  21
ATOM     20  C   UNL     1      -4.027   9.951  13.678  0.00  0.00    +0.000 C 
ATOM     21  O   UNL     1      -2.923   9.589  14.499  0.00  0.00    +0.000 OA
ENDBRANCH  14  21
ENDBRANCH   1  17
BRANCH  13  22
ATOM     22  C   UNL     1      -0.730  12.843  19.787  0.00  0.00    +0.000 A 
ATOM     23  C   UNL     1       0.227  11.826  19.938  0.00  0.00    +0.000 A 
ATOM     24  C   UNL     1       1.477  11.940  19.315  0.00  0.00    +0.000 A 
ATOM     25  C   UNL     1       1.768  13.068  18.556  0.00  0.00    +0.000 A 
ATOM     26  C   UNL     1       0.857  14.111  18.460  0.00  0.00    +0.000 A 
ATOM     27  C   UNL     1      -0.379  14.013  19.102  0.00  0.00    +0.000 A 
BRANCH  25  28
ATOM     28  O   UNL     1       2.943  13.192  17.877  0.00  0.00    +0.000 OA
ATOM     29  H   UNL     1       2.752  13.277  16.928  0.00  0.00    +0.000 HD
ENDBRANCH  25  28
ENDBRANCH  13  22
TORSDOF 4
ENDMDL
MODEL 5
REMARK VINA RESULT:      -6.4      1.323      4.822
REMARK  Name = 
REMARK  7 active torsions:
REMARK  status: ('A' for Active; 'I' for Inactive)
REMARK    1  A    between atoms: C_1  and  O_2
REMARK    2  A    between atoms: O_2  and  C_3
REMARK    3  A    between atoms: C_6  and  C_7
REMARK    4  A    between atoms: N_11  and  C_12
REMARK    5  A    between atoms: N_15  and  C_16
REMARK    6  A    between atoms: N_19  and  C_20
REMARK    7  A    between atoms: C_23  and  O_24
REMARK                            x       y       z     vdW  Elec       q    Type
REMARK                         _______ _______ _______ _____ _____    ______ ____
ROOT
ATOM      1  C   UNL     1      -3.085  12.352  19.930  0.00  0.00    +0.000 A 
ATOM      2  C   UNL     1      -4.144  12.542  20.826  0.00  0.00    +0.000 A 
ATOM      3  C   UNL     1      -5.550  12.185  20.748  0.00  0.00    +0.000 A 
ATOM      4  O   UNL     1      -6.040  11.548  19.822  0.00  0.00    +0.000 OA
ATOM      5  N   UNL     1      -6.309  12.626  21.842  0.00  0.00    +0.000 N 
ATOM      6  C   UNL     1      -7.737  12.383  21.809  0.00  0.00    +0.000 C 
ATOM      7  C   UNL     1      -5.812  13.233  23.006  0.00  0.00    +0.000 A 
ATOM      8  O   UNL     1      -6.568  13.528  23.942  0.00  0.00    +0.000 OA
ATOM      9  N   UNL     1      -4.437  13.478  23.069  0.00  0.00    +0.000 N 
ATOM     10  C   UNL     1      -3.887  14.096  24.264  0.00  0.00    +0.000 C 
ATOM     11  C   UNL     1      -3.640  13.150  21.984  0.00  0.00    +0.000 A 
ATOM     12  C   UNL     1      -2.290  13.316  21.824  0.00  0.00    +0.000 A 
ATOM     13  N   UNL     1      -1.947  12.934  20.536  0.00  0.00    +0.000 N 
ENDROOT
BRANCH   1  17
ATOM     14  C   UNL     1      -3.107  10.169  16.205  0.00  0.00    +0.000 A 
ATOM     15  C   UNL     1      -2.137   9.915  17.169  0.00  0.00    +0.000 A 
ATOM     16  C   UNL     1      -2.154  10.593  18.392  0.00  0.00    +0.000 A 
ATOM     17  C   UNL     1      -3.075  11.614  18.637  0.00  0.00    +0.000 A 
ATOM     18  C   UNL     1      -3.996  11.914  17.621  0.00  0.00    +0.000 A 
ATOM     19  C   UNL     1      -4.049  11.164  16.439  0.00  0.00    +0.000 A 
BRANCH  14  21
ATOM     20  C   UNL     1      -3.468  10.061  13.876  0.00  0.00    +0.000 C 
ATOM     21  O   UNL     1      -3.011   9.424  15.063  0.00  0.00    +0.000 OA
ENDBRANCH  14  21
ENDBRANCH   1  17
BRANCH  13  22
ATOM     22  C   UNL     1      -0.636  13.108  19.983  0.00  0.00    +0.000 A 
ATOM     23  C   UNL     1       0.396  12.211  20.306  0.00  0.00    +0.000 A 
ATOM     24  C   UNL     1       1.622  12.278  19.633  0.00  0.00    +0.000 A 
ATOM     25  C   UNL     1       1.816  13.245  18.651  0.00  0.00    +0.000 A 
ATOM     26  C   UNL     1       0.831  14.182  18.375  0.00  0.00    +0.000 A 
ATOM     27  C   UNL     1      -0.382  14.135  19.063  0.00  0.00    +0.000 A 
BRANCH  25  28
ATOM     28  O   UNL     1       2.967  13.305  17.923  0.00  0.00    +0.000 OA
ATOM     29  H   UNL     1       2.840  12.819  17.092  0.00  0.00    +0.000 HD
ENDBRANCH  25  28
ENDBRANCH  13  22
TORSDOF 4
ENDMDL
MODEL 6
REMARK VINA RESULT:      -6.3      3.033      6.276
REMARK  Name = 
REMARK  7 active torsions:
REMARK  status: ('A' for Active; 'I' for Inactive)
REMARK    1  A    between atoms: C_1  and  O_2
REMARK    2  A    between atoms: O_2  and  C_3
REMARK    3  A    between atoms: C_6  and  C_7
REMARK    4  A    between atoms: N_11  and  C_12
REMARK    5  A    between atoms: N_15  and  C_16
REMARK    6  A    between atoms: N_19  and  C_20
REMARK    7  A    between atoms: C_23  and  O_24
REMARK                            x       y       z     vdW  Elec       q    Type
REMARK                         _______ _______ _______ _____ _____    ______ ____
ROOT
ATOM      1  C   UNL     1       0.097  13.205  20.553  0.00  0.00    +0.000 A 
ATOM      2  C   UNL     1       1.188  14.062  20.733  0.00  0.00    +0.000 A 
ATOM      3  C   UNL     1       1.541  14.962  21.818  0.00  0.00    +0.000 A 
ATOM      4  O   UNL     1       0.899  15.058  22.858  0.00  0.00    +0.000 OA
ATOM      5  N   UNL     1       2.700  15.714  21.578  0.00  0.00    +0.000 N 
ATOM      6  C   UNL     1       3.081  16.696  22.573  0.00  0.00    +0.000 C 
ATOM      7  C   UNL     1       3.572  15.569  20.488  0.00  0.00    +0.000 A 
ATOM      8  O   UNL     1       4.606  16.247  20.405  0.00  0.00    +0.000 OA
ATOM      9  N   UNL     1       3.233  14.627  19.512  0.00  0.00    +0.000 N 
ATOM     10  C   UNL     1       4.119  14.444  18.373  0.00  0.00    +0.000 C 
ATOM     11  C   UNL     1       2.052  13.913  19.639  0.00  0.00    +0.000 A 
ATOM     12  C   UNL     1       1.522  12.966  18.804  0.00  0.00    +0.000 A 
ATOM     13  N   UNL     1       0.276  12.598  19.288  0.00  0.00    +0.000 N 
ENDROOT
BRANCH   1  17
ATOM     14  C   UNL     1      -3.078  12.323  23.344  0.00  0.00    +0.000 A 
ATOM     15  C   UNL     1      -1.947  11.514  23.279  0.00  0.00    +0.000 A 
ATOM     16  C   UNL     1      -0.901  11.824  22.404  0.00  0.00    +0.000 A 
ATOM     17  C   UNL     1      -1.006  12.884  21.500  0.00  0.00    +0.000 A 
ATOM     18  C   UNL     1      -2.190  13.640  21.523  0.00  0.00    +0.000 A 
ATOM     19  C   UNL     1      -3.192  13.398  22.471  0.00  0.00    +0.000 A 
BRANCH  14  21
ATOM     20  C   UNL     1      -5.218  12.712  24.258  0.00  0.00    +0.000 C 
ATOM     21  O   UNL     1      -4.021  11.943  24.258  0.00  0.00    +0.000 OA
ENDBRANCH  14  21
ENDBRANCH   1  17
BRANCH  13  22
ATOM     22  C   UNL     1      -0.619  11.727  18.583  0.00  0.00    +0.000 A 
ATOM     23  C   UNL     1      -1.828  12.220  18.066  0.00  0.00    +0.000 A 
ATOM     24  C   UNL     1      -2.615  11.416  17.231  0.00  0.00    +0.000 A 
ATOM     25  C   UNL     1      -2.197  10.125  16.926  0.00  0.00    +0.000 A 
ATOM     26  C   UNL     1      -1.042   9.603  17.489  0.00  0.00    +0.000 A 
ATOM     27  C   UNL     1      -0.269  10.392  18.343  0.00  0.00    +0.000 A 
BRANCH  25  28
ATOM     28  O   UNL     1      -2.895   9.331  16.065  0.00  0.00    +0.000 OA
ATOM     29  H   UNL     1      -3.807   9.660  16.001  0.00  0.00    +0.000 HD
ENDBRANCH  25  28
ENDBRANCH  13  22
TORSDOF 4
ENDMDL
MODEL 7
REMARK VINA RESULT:      -6.3      3.191      6.457
REMARK  Name = 
REMARK  7 active torsions:
REMARK  status: ('A' for Active; 'I' for Inactive)
REMARK    1  A    between atoms: C_1  and  O_2
REMARK    2  A    between atoms: O_2  and  C_3
REMARK    3  A    between atoms: C_6  and  C_7
REMARK    4  A    between atoms: N_11  and  C_12
REMARK    5  A    between atoms: N_15  and  C_16
REMARK    6  A    between atoms: N_19  and  C_20
REMARK    7  A    between atoms: C_23  and  O_24
REMARK                            x       y       z     vdW  Elec       q    Type
REMARK                         _______ _______ _______ _____ _____    ______ ____
ROOT
ATOM      1  C   UNL     1       0.515  13.251  20.477  0.00  0.00    +0.000 A 
ATOM      2  C   UNL     1       1.614  14.099  20.657  0.00  0.00    +0.000 A 
ATOM      3  C   UNL     1       1.995  14.965  21.760  0.00  0.00    +0.000 A 
ATOM      4  O   UNL     1       1.378  15.031  22.817  0.00  0.00    +0.000 OA
ATOM      5  N   UNL     1       3.149  15.722  21.515  0.00  0.00    +0.000 N 
ATOM      6  C   UNL     1       3.557  16.672  22.530  0.00  0.00    +0.000 C 
ATOM      7  C   UNL     1       3.994  15.609  20.400  0.00  0.00    +0.000 A 
ATOM      8  O   UNL     1       5.028  16.287  20.313  0.00  0.00    +0.000 OA
ATOM      9  N   UNL     1       3.629  14.698  19.404  0.00  0.00    +0.000 N 
ATOM     10  C   UNL     1       4.487  14.548  18.239  0.00  0.00    +0.000 C 
ATOM     11  C   UNL     1       2.451  13.983  19.538  0.00  0.00    +0.000 A 
ATOM     12  C   UNL     1       1.898  13.063  18.688  0.00  0.00    +0.000 A 
ATOM     13  N   UNL     1       0.663  12.682  19.190  0.00  0.00    +0.000 N 
ENDROOT
BRANCH   1  17
ATOM     14  C   UNL     1      -2.647  12.197  23.222  0.00  0.00    +0.000 A 
ATOM     15  C   UNL     1      -2.688  13.398  22.522  0.00  0.00    +0.000 A 
ATOM     16  C   UNL     1      -1.685  13.721  21.602  0.00  0.00    +0.000 A 
ATOM     17  C   UNL     1      -0.565  12.902  21.440  0.00  0.00    +0.000 A 
ATOM     18  C   UNL     1      -0.499  11.734  22.216  0.00  0.00    +0.000 A 
ATOM     19  C   UNL     1      -1.553  11.355  23.057  0.00  0.00    +0.000 A 
BRANCH  14  21
ATOM     20  C   UNL     1      -4.779  12.889  23.957  0.00  0.00    +0.000 C 
ATOM     21  O   UNL     1      -3.697  11.973  24.068  0.00  0.00    +0.000 OA
ENDBRANCH  14  21
ENDBRANCH   1  17
BRANCH  13  22
ATOM     22  C   UNL     1      -0.251  11.835  18.481  0.00  0.00    +0.000 A 
ATOM     23  C   UNL     1       0.012  10.463  18.345  0.00  0.00    +0.000 A 
ATOM     24  C   UNL     1      -0.960   9.610  17.809  0.00  0.00    +0.000 A 
ATOM     25  C   UNL     1      -2.184  10.131  17.401  0.00  0.00    +0.000 A 
ATOM     26  C   UNL     1      -2.429  11.495  17.464  0.00  0.00    +0.000 A 
ATOM     27  C   UNL     1      -1.451  12.352  17.973  0.00  0.00    +0.000 A 
BRANCH  25  28
ATOM     28  O   UNL     1      -3.185   9.330  16.937  0.00  0.00    +0.000 OA
ATOM     29  H   UNL     1      -2.861   8.838  16.165  0.00  0.00    +0.000 HD
ENDBRANCH  25  28
ENDBRANCH  13  22
TORSDOF 4
ENDMDL
MODEL 8
REMARK VINA RESULT:      -6.3      0.341      1.328
REMARK  Name = 
REMARK  7 active torsions:
REMARK  status: ('A' for Active; 'I' for Inactive)
REMARK    1  A    between atoms: C_1  and  O_2
REMARK    2  A    between atoms: O_2  and  C_3
REMARK    3  A    between atoms: C_6  and  C_7
REMARK    4  A    between atoms: N_11  and  C_12
REMARK    5  A    between atoms: N_15  and  C_16
REMARK    6  A    between atoms: N_19  and  C_20
REMARK    7  A    between atoms: C_23  and  O_24
REMARK                            x       y       z     vdW  Elec       q    Type
REMARK                         _______ _______ _______ _____ _____    ______ ____
ROOT
ATOM      1  C   UNL     1      -2.714  12.517  20.132  0.00  0.00    +0.000 A 
ATOM      2  C   UNL     1      -3.465  12.818  21.273  0.00  0.00    +0.000 A 
ATOM      3  C   UNL     1      -3.080  13.343  22.572  0.00  0.00    +0.000 A 
ATOM      4  O   UNL     1      -1.938  13.688  22.855  0.00  0.00    +0.000 OA
ATOM      5  N   UNL     1      -4.140  13.432  23.486  0.00  0.00    +0.000 N 
ATOM      6  C   UNL     1      -3.831  13.870  24.832  0.00  0.00    +0.000 C 
ATOM      7  C   UNL     1      -5.496  13.195  23.209  0.00  0.00    +0.000 A 
ATOM      8  O   UNL     1      -6.362  13.365  24.079  0.00  0.00    +0.000 OA
ATOM      9  N   UNL     1      -5.827  12.775  21.918  0.00  0.00    +0.000 N 
ATOM     10  C   UNL     1      -7.223  12.530  21.593  0.00  0.00    +0.000 C 
ATOM     11  C   UNL     1      -4.817  12.577  20.990  0.00  0.00    +0.000 A 
ATOM     12  C   UNL     1      -4.910  12.156  19.690  0.00  0.00    +0.000 A 
ATOM     13  N   UNL     1      -3.629  12.010  19.180  0.00  0.00    +0.000 N 
ENDROOT
BRANCH   1  17
ATOM     14  C   UNL     1       1.479  13.165  19.327  0.00  0.00    +0.000 A 
ATOM     15  C   UNL     1       1.067  12.106  20.130  0.00  0.00    +0.000 A 
ATOM     16  C   UNL     1      -0.293  11.872  20.357  0.00  0.00    +0.000 A 
ATOM     17  C   UNL     1      -1.266  12.751  19.876  0.00  0.00    +0.000 A 
ATOM     18  C   UNL     1      -0.827  13.861  19.137  0.00  0.00    +0.000 A 
ATOM     19  C   UNL     1       0.525  14.037  18.817  0.00  0.00    +0.000 A 
BRANCH  14  21
ATOM     20  C   UNL     1       3.246  14.318  18.274  0.00  0.00    +0.000 C 
ATOM     21  O   UNL     1       2.829  13.277  19.148  0.00  0.00    +0.000 OA
ENDBRANCH  14  21
ENDBRANCH   1  17
BRANCH  13  22
ATOM     22  C   UNL     1      -3.352  11.451  17.888  0.00  0.00    +0.000 A 
ATOM     23  C   UNL     1      -2.256  10.593  17.706  0.00  0.00    +0.000 A 
ATOM     24  C   UNL     1      -2.089   9.913  16.493  0.00  0.00    +0.000 A 
ATOM     25  C   UNL     1      -3.010  10.100  15.467  0.00  0.00    +0.000 A 
ATOM     26  C   UNL     1      -4.056  11.000  15.610  0.00  0.00    +0.000 A 
ATOM     27  C   UNL     1      -4.209  11.700  16.808  0.00  0.00    +0.000 A 
BRANCH  25  28
ATOM     28  O   UNL     1      -2.926   9.408  14.295  0.00  0.00    +0.000 OA
ATOM     29  H   UNL     1      -2.560   8.527  14.475  0.00  0.00    +0.000 HD
ENDBRANCH  25  28
ENDBRANCH  13  22
TORSDOF 4
ENDMDL
MODEL 9
REMARK VINA RESULT:      -6.2      1.429      4.816
REMARK  Name = 
REMARK  7 active torsions:
REMARK  status: ('A' for Active; 'I' for Inactive)
REMARK    1  A    between atoms: C_1  and  O_2
REMARK    2  A    between atoms: O_2  and  C_3
REMARK    3  A    between atoms: C_6  and  C_7
REMARK    4  A    between atoms: N_11  and  C_12
REMARK    5  A    between atoms: N_15  and  C_16
REMARK    6  A    between atoms: N_19  and  C_20
REMARK    7  A    between atoms: C_23  and  O_24
REMARK                            x       y       z     vdW  Elec       q    Type
REMARK                         _______ _______ _______ _____ _____    ______ ____
ROOT
ATOM      1  C   UNL     1      -3.034  12.502  20.024  0.00  0.00    +0.000 A 
ATOM      2  C   UNL     1      -4.127  12.705  20.874  0.00  0.00    +0.000 A 
ATOM      3  C   UNL     1      -5.516  12.290  20.777  0.00  0.00    +0.000 A 
ATOM      4  O   UNL     1      -5.952  11.581  19.878  0.00  0.00    +0.000 OA
ATOM      5  N   UNL     1      -6.326  12.767  21.818  0.00  0.00    +0.000 N 
ATOM      6  C   UNL     1      -7.742  12.468  21.758  0.00  0.00    +0.000 C 
ATOM      7  C   UNL     1      -5.889  13.462  22.957  0.00  0.00    +0.000 A 
ATOM      8  O   UNL     1      -6.685  13.783  23.850  0.00  0.00    +0.000 OA
ATOM      9  N   UNL     1      -4.527  13.762  23.046  0.00  0.00    +0.000 N 
ATOM     10  C   UNL     1      -4.038  14.473  24.217  0.00  0.00    +0.000 C 
ATOM     11  C   UNL     1      -3.683  13.401  22.007  0.00  0.00    +0.000 A 
ATOM     12  C   UNL     1      -2.336  13.609  21.878  0.00  0.00    +0.000 A 
ATOM     13  N   UNL     1      -1.938  13.163  20.627  0.00  0.00    +0.000 N 
ENDROOT
BRANCH   1  17
ATOM     14  C   UNL     1      -2.753  10.184  16.392  0.00  0.00    +0.000 A 
ATOM     15  C   UNL     1      -3.767  11.123  16.556  0.00  0.00    +0.000 A 
ATOM     16  C   UNL     1      -3.833  11.902  17.715  0.00  0.00    +0.000 A 
ATOM     17  C   UNL     1      -2.955  11.689  18.780  0.00  0.00    +0.000 A 
ATOM     18  C   UNL     1      -1.989  10.680  18.630  0.00  0.00    +0.000 A 
ATOM     19  C   UNL     1      -1.852   9.973  17.429  0.00  0.00    +0.000 A 
BRANCH  14  21
ATOM     20  C   UNL     1      -3.530  10.103  14.166  0.00  0.00    +0.000 C 
ATOM     21  O   UNL     1      -2.767   9.504  15.206  0.00  0.00    +0.000 OA
ENDBRANCH  14  21
ENDBRANCH   1  17
BRANCH  13  22
ATOM     22  C   UNL     1      -0.617  13.354  20.104  0.00  0.00    +0.000 A 
ATOM     23  C   UNL     1      -0.367  14.356  19.152  0.00  0.00    +0.000 A 
ATOM     24  C   UNL     1       0.948  14.656  18.775  0.00  0.00    +0.000 A 
ATOM     25  C   UNL     1       2.004  13.949  19.340  0.00  0.00    +0.000 A 
ATOM     26  C   UNL     1       1.766  12.909  20.226  0.00  0.00    +0.000 A 
ATOM     27  C   UNL     1       0.455  12.589  20.584  0.00  0.00    +0.000 A 
BRANCH  25  28
ATOM     28  O   UNL     1       3.302  14.252  19.055  0.00  0.00    +0.000 OA
ATOM     29  H   UNL     1       3.370  15.202  18.866  0.00  0.00    +0.000 HD
ENDBRANCH  25  28
ENDBRANCH  13  22
TORSDOF 4
ENDMDL
