MODEL 1
REMARK VINA RESULT:      -6.9      0.000      0.000
REMARK  Name = 
REMARK  6 active torsions:
REMARK  status: ('A' for Active; 'I' for Inactive)
REMARK    1  A    between atoms: C_1  and  C_2
REMARK    2  A    between atoms: C_11  and  C_12
REMARK    3  A    between atoms: C_12  and  C_13
REMARK    4  A    between atoms: C_13  and  C_14
REMARK    5  A    between atoms: C_14  and  O_16
REMARK    6  A    between atoms: N_20  and  C_21
REMARK                            x       y       z     vdW  Elec       q    Type
REMARK                         _______ _______ _______ _____ _____    ______ ____
ROOT
ATOM      1  C   UNL     1       3.365   7.549  16.809  0.00  0.00    +0.000 C 
ATOM      2  C   UNL     1       2.793   7.555  18.197  0.00  0.00    +0.000 A 
ATOM      3  C   UNL     1       2.794   6.407  19.010  0.00  0.00    +0.000 A 
ATOM      4  C   UNL     1       2.131   6.413  20.241  0.00  0.00    +0.000 A 
ATOM      5 CL   UNL     1       2.103   4.996  21.213  0.00  0.00    +0.000 Cl
ATOM      6  C   UNL     1       1.439   7.557  20.608  0.00  0.00    +0.000 A 
ATOM      7  C   UNL     1       1.424   8.706  19.818  0.00  0.00    +0.000 A 
ATOM      8  C   UNL     1       2.145   8.718  18.631  0.00  0.00    +0.000 A 
ATOM      9  C   UNL     1       0.395   9.694  20.360  0.00  0.00    +0.000 C 
ATOM     10  N   UNL     1      -0.704   9.804  19.357  0.00  0.00    +0.000 NA
ATOM     11  C   UNL     1      -0.297  10.901  18.421  0.00  0.00    +0.000 C 
ATOM     12  C   UNL     1       0.841  11.684  19.124  0.00  0.00    +0.000 C 
ATOM     13  C   UNL     1       0.720  13.156  19.397  0.00  0.00    +0.000 C 
ATOM     14  O   UNL     1       1.241  13.997  18.682  0.00  0.00    +0.000 OA
ATOM     15  N   UNL     1      -0.004  13.327  20.539  0.00  0.00    +0.000 N 
ATOM     16  C   UNL     1      -0.229  12.094  21.100  0.00  0.00    +0.000 C 
ATOM     17  O   UNL     1      -1.157  11.811  21.828  0.00  0.00    +0.000 OA
ATOM     18  C   UNL     1       0.808  11.132  20.536  0.00  0.00    +0.000 C 
ATOM     19  C   UNL     1      -0.013   8.969  21.694  0.00  0.00    +0.000 C 
ATOM     20  O   UNL     1      -0.733   9.354  22.599  0.00  0.00    +0.000 OA
ATOM     21  N   UNL     1       0.632   7.739  21.719  0.00  0.00    +0.000 N 
ATOM     22  H   UNL     1      -1.560  10.065  19.864  0.00  0.00    +0.000 HD
ATOM     23  H   UNL     1       0.498   7.065  22.459  0.00  0.00    +0.000 HD
ENDROOT
BRANCH  15  24
ATOM     24  C   UNL     1      -0.239  14.583  21.283  0.00  0.00    +0.000 C 
ATOM     25  C   UNL     1       1.018  15.369  21.706  0.00  0.00    +0.000 C 
ATOM     26  C   UNL     1       1.655  16.157  20.563  0.00  0.00    +0.000 C 
ATOM     27  C   UNL     1       0.650  17.049  19.839  0.00  0.00    +0.000 C 
ATOM     28  C   UNL     1      -0.617  16.304  19.439  0.00  0.00    +0.000 C 
ATOM     29  C   UNL     1      -1.227  15.551  20.618  0.00  0.00    +0.000 C 
ENDBRANCH  15  24
BRANCH  11  30
ATOM     30  C   UNL     1      -1.527  11.667  17.926  0.00  0.00    +0.000 C 
BRANCH  30  31
ATOM     31  C   UNL     1      -2.717  10.762  17.597  0.00  0.00    +0.000 C 
BRANCH  31  32
ATOM     32  C   UNL     1      -2.866  10.581  16.113  0.00  0.00    +0.000 C 
ATOM     33  O   UNL     1      -2.671   9.520  15.526  0.00  0.00    +0.000 OA
BRANCH  32  34
ATOM     34  O   UNL     1      -3.217  11.714  15.461  0.00  0.00    +0.000 OA
ATOM     35  H   UNL     1      -3.710  11.567  14.632  0.00  0.00    +0.000 HD
ENDBRANCH  32  34
ENDBRANCH  31  32
ENDBRANCH  30  31
ENDBRANCH  11  30
TORSDOF 5
ENDMDL
MODEL 2
REMARK VINA RESULT:      -6.9      0.748      1.191
REMARK  Name = 
REMARK  6 active torsions:
REMARK  status: ('A' for Active; 'I' for Inactive)
REMARK    1  A    between atoms: C_1  and  C_2
REMARK    2  A    between atoms: C_11  and  C_12
REMARK    3  A    between atoms: C_12  and  C_13
REMARK    4  A    between atoms: C_13  and  C_14
REMARK    5  A    between atoms: C_14  and  O_16
REMARK    6  A    between atoms: N_20  and  C_21
REMARK                            x       y       z     vdW  Elec       q    Type
REMARK                         _______ _______ _______ _____ _____    ______ ____
ROOT
ATOM      1  C   UNL     1       3.306   7.714  16.884  0.00  0.00    +0.000 C 
ATOM      2  C   UNL     1       2.723   7.673  18.267  0.00  0.00    +0.000 A 
ATOM      3  C   UNL     1       2.658   6.484  19.015  0.00  0.00    +0.000 A 
ATOM      4  C   UNL     1       1.986   6.455  20.240  0.00  0.00    +0.000 A 
ATOM      5 CL   UNL     1       1.876   4.990  21.131  0.00  0.00    +0.000 Cl
ATOM      6  C   UNL     1       1.352   7.612  20.667  0.00  0.00    +0.000 A 
ATOM      7  C   UNL     1       1.403   8.802  19.943  0.00  0.00    +0.000 A 
ATOM      8  C   UNL     1       2.133   8.842  18.762  0.00  0.00    +0.000 A 
ATOM      9  C   UNL     1       0.421   9.811  20.533  0.00  0.00    +0.000 C 
ATOM     10  N   UNL     1      -0.662  10.033  19.532  0.00  0.00    +0.000 NA
ATOM     11  C   UNL     1      -0.190  11.159  18.660  0.00  0.00    +0.000 C 
ATOM     12  C   UNL     1       0.980  11.841  19.412  0.00  0.00    +0.000 C 
ATOM     13  C   UNL     1       0.934  13.300  19.766  0.00  0.00    +0.000 C 
ATOM     14  O   UNL     1       1.503  14.150  19.103  0.00  0.00    +0.000 OA
ATOM     15  N   UNL     1       0.210  13.445  20.912  0.00  0.00    +0.000 N 
ATOM     16  C   UNL     1      -0.084  12.196  21.403  0.00  0.00    +0.000 C 
ATOM     17  O   UNL     1      -1.031  11.922  22.109  0.00  0.00    +0.000 OA
ATOM     18  C   UNL     1       0.907  11.214  20.791  0.00  0.00    +0.000 C 
ATOM     19  C   UNL     1      -0.034   9.035  21.822  0.00  0.00    +0.000 C 
ATOM     20  O   UNL     1      -0.741   9.407  22.744  0.00  0.00    +0.000 OA
ATOM     21  N   UNL     1       0.546   7.774  21.782  0.00  0.00    +0.000 N 
ATOM     22  H   UNL     1      -1.507  10.310  20.047  0.00  0.00    +0.000 HD
ATOM     23  H   UNL     1       0.371   7.067  22.483  0.00  0.00    +0.000 HD
ENDROOT
BRANCH  15  24
ATOM     24  C   UNL     1       0.034  14.667  21.724  0.00  0.00    +0.000 C 
ATOM     25  C   UNL     1       0.220  16.008  20.985  0.00  0.00    +0.000 C 
ATOM     26  C   UNL     1      -0.979  16.398  20.123  0.00  0.00    +0.000 C 
ATOM     27  C   UNL     1      -2.292  16.361  20.899  0.00  0.00    +0.000 C 
ATOM     28  C   UNL     1      -2.486  15.059  21.666  0.00  0.00    +0.000 C 
ATOM     29  C   UNL     1      -1.272  14.724  22.528  0.00  0.00    +0.000 C 
ENDBRANCH  15  24
BRANCH  11  30
ATOM     30  C   UNL     1      -1.375  12.014  18.202  0.00  0.00    +0.000 C 
BRANCH  30  31
ATOM     31  C   UNL     1      -2.708  11.261  18.206  0.00  0.00    +0.000 C 
BRANCH  31  32
ATOM     32  C   UNL     1      -3.333  11.259  16.840  0.00  0.00    +0.000 C 
ATOM     33  O   UNL     1      -4.536  11.120  16.634  0.00  0.00    +0.000 OA
BRANCH  32  34
ATOM     34  O   UNL     1      -2.440  11.404  15.835  0.00  0.00    +0.000 OA
ATOM     35  H   UNL     1      -1.518  11.529  16.128  0.00  0.00    +0.000 HD
ENDBRANCH  32  34
ENDBRANCH  31  32
ENDBRANCH  30  31
ENDBRANCH  11  30
TORSDOF 5
ENDMDL
MODEL 3
REMARK VINA RESULT:      -6.8      3.499      5.551
REMARK  Name = 
REMARK  6 active torsions:
REMARK  status: ('A' for Active; 'I' for Inactive)
REMARK    1  A    between atoms: C_1  and  C_2
REMARK    2  A    between atoms: C_11  and  C_12
REMARK    3  A    between atoms: C_12  and  C_13
REMARK    4  A    between atoms: C_13  and  C_14
REMARK    5  A    between atoms: C_14  and  O_16
REMARK    6  A    between atoms: N_20  and  C_21
REMARK                            x       y       z     vdW  Elec       q    Type
REMARK                         _______ _______ _______ _____ _____    ______ ____
ROOT
ATOM      1  C   UNL     1      -3.654   9.994  17.382  0.00  0.00    +0.000 C 
ATOM      2  C   UNL     1      -2.316  10.444  17.894  0.00  0.00    +0.000 A 
ATOM      3  C   UNL     1      -1.125   9.775  17.561  0.00  0.00    +0.000 A 
ATOM      4  C   UNL     1       0.082  10.137  18.165  0.00  0.00    +0.000 A 
ATOM      5 CL   UNL     1       1.528   9.291  17.783  0.00  0.00    +0.000 Cl
ATOM      6  C   UNL     1       0.059  11.133  19.129  0.00  0.00    +0.000 A 
ATOM      7  C   UNL     1      -1.109  11.810  19.476  0.00  0.00    +0.000 A 
ATOM      8  C   UNL     1      -2.291  11.494  18.819  0.00  0.00    +0.000 A 
ATOM      9  C   UNL     1      -0.865  12.663  20.718  0.00  0.00    +0.000 C 
ATOM     10  N   UNL     1      -1.668  12.084  21.834  0.00  0.00    +0.000 NA
ATOM     11  C   UNL     1      -3.009  12.754  21.765  0.00  0.00    +0.000 C 
ATOM     12  C   UNL     1      -2.835  14.000  20.861  0.00  0.00    +0.000 C 
ATOM     13  C   UNL     1      -3.151  15.379  21.367  0.00  0.00    +0.000 C 
ATOM     14  O   UNL     1      -4.203  15.941  21.113  0.00  0.00    +0.000 OA
ATOM     15  N   UNL     1      -2.081  15.836  22.077  0.00  0.00    +0.000 N 
ATOM     16  C   UNL     1      -1.053  14.934  21.946  0.00  0.00    +0.000 C 
ATOM     17  O   UNL     1      -0.153  14.771  22.742  0.00  0.00    +0.000 OA
ATOM     18  C   UNL     1      -1.329  14.097  20.704  0.00  0.00    +0.000 C 
ATOM     19  C   UNL     1       0.689  12.487  20.877  0.00  0.00    +0.000 C 
ATOM     20  O   UNL     1       1.458  13.034  21.648  0.00  0.00    +0.000 OA
ATOM     21  N   UNL     1       1.108  11.568  19.923  0.00  0.00    +0.000 N 
ATOM     22  H   UNL     1      -1.194  12.325  22.713  0.00  0.00    +0.000 HD
ATOM     23  H   UNL     1       2.065  11.252  19.850  0.00  0.00    +0.000 HD
ENDROOT
BRANCH  15  24
ATOM     24  C   UNL     1      -1.868  17.194  22.622  0.00  0.00    +0.000 C 
ATOM     25  C   UNL     1      -3.135  18.041  22.853  0.00  0.00    +0.000 C 
ATOM     26  C   UNL     1      -3.907  17.649  24.112  0.00  0.00    +0.000 C 
ATOM     27  C   UNL     1      -3.019  17.614  25.353  0.00  0.00    +0.000 C 
ATOM     28  C   UNL     1      -1.742  16.810  25.140  0.00  0.00    +0.000 C 
ATOM     29  C   UNL     1      -0.997  17.252  23.884  0.00  0.00    +0.000 C 
ENDBRANCH  15  24
BRANCH  11  30
ATOM     30  C   UNL     1      -3.591  12.932  23.169  0.00  0.00    +0.000 C 
BRANCH  30  31
ATOM     31  C   UNL     1      -5.108  13.136  23.179  0.00  0.00    +0.000 C 
BRANCH  31  32
ATOM     32  C   UNL     1      -5.760  12.298  24.242  0.00  0.00    +0.000 C 
ATOM     33  O   UNL     1      -6.937  11.950  24.217  0.00  0.00    +0.000 OA
BRANCH  32  34
ATOM     34  O   UNL     1      -4.931  11.972  25.260  0.00  0.00    +0.000 OA
ATOM     35  H   UNL     1      -4.758  12.698  25.889  0.00  0.00    +0.000 HD
ENDBRANCH  32  34
ENDBRANCH  31  32
ENDBRANCH  30  31
ENDBRANCH  11  30
TORSDOF 5
ENDMDL
MODEL 4
REMARK VINA RESULT:      -6.8      3.461      6.226
REMARK  Name = 
REMARK  6 active torsions:
REMARK  status: ('A' for Active; 'I' for Inactive)
REMARK    1  A    between atoms: C_1  and  C_2
REMARK    2  A    between atoms: C_11  and  C_12
REMARK    3  A    between atoms: C_12  and  C_13
REMARK    4  A    between atoms: C_13  and  C_14
REMARK    5  A    between atoms: C_14  and  O_16
REMARK    6  A    between atoms: N_20  and  C_21
REMARK                            x       y       z     vdW  Elec       q    Type
REMARK                         _______ _______ _______ _____ _____    ______ ____
ROOT
ATOM      1  C   UNL     1      -5.505  13.027  23.514  0.00  0.00    +0.000 C 
ATOM      2  C   UNL     1      -5.165  12.874  22.060  0.00  0.00    +0.000 A 
ATOM      3  C   UNL     1      -6.144  12.599  21.089  0.00  0.00    +0.000 A 
ATOM      4  C   UNL     1      -5.774  12.328  19.769  0.00  0.00    +0.000 A 
ATOM      5 CL   UNL     1      -6.971  11.955  18.595  0.00  0.00    +0.000 Cl
ATOM      6  C   UNL     1      -4.422  12.291  19.462  0.00  0.00    +0.000 A 
ATOM      7  C   UNL     1      -3.434  12.560  20.407  0.00  0.00    +0.000 A 
ATOM      8  C   UNL     1      -3.812  12.900  21.700  0.00  0.00    +0.000 A 
ATOM      9  C   UNL     1      -2.062  12.207  19.840  0.00  0.00    +0.000 C 
ATOM     10  N   UNL     1      -1.536  11.042  20.609  0.00  0.00    +0.000 NA
ATOM     11  C   UNL     1      -0.790  11.623  21.773  0.00  0.00    +0.000 C 
ATOM     12  C   UNL     1      -0.552  13.119  21.445  0.00  0.00    +0.000 C 
ATOM     13  C   UNL     1       0.835  13.694  21.395  0.00  0.00    +0.000 C 
ATOM     14  O   UNL     1       1.314  14.322  22.325  0.00  0.00    +0.000 OA
ATOM     15  N   UNL     1       1.375  13.417  20.176  0.00  0.00    +0.000 N 
ATOM     16  C   UNL     1       0.405  12.845  19.388  0.00  0.00    +0.000 C 
ATOM     17  O   UNL     1       0.606  12.097  18.455  0.00  0.00    +0.000 OA
ATOM     18  C   UNL     1      -0.948  13.211  19.984  0.00  0.00    +0.000 C 
ATOM     19  C   UNL     1      -2.452  11.880  18.352  0.00  0.00    +0.000 C 
ATOM     20  O   UNL     1      -1.735  11.636  17.397  0.00  0.00    +0.000 OA
ATOM     21  N   UNL     1      -3.836  11.938  18.257  0.00  0.00    +0.000 N 
ATOM     22  H   UNL     1      -0.894  10.529  19.993  0.00  0.00    +0.000 HD
ATOM     23  H   UNL     1      -4.337  11.723  17.406  0.00  0.00    +0.000 HD
ENDROOT
BRANCH  15  24
ATOM     24  C   UNL     1       2.647  13.919  19.612  0.00  0.00    +0.000 C 
ATOM     25  C   UNL     1       2.567  14.543  18.205  0.00  0.00    +0.000 C 
ATOM     26  C   UNL     1       1.997  15.960  18.200  0.00  0.00    +0.000 C 
ATOM     27  C   UNL     1       2.712  16.881  19.185  0.00  0.00    +0.000 C 
ATOM     28  C   UNL     1       2.834  16.272  20.576  0.00  0.00    +0.000 C 
ATOM     29  C   UNL     1       3.428  14.868  20.530  0.00  0.00    +0.000 C 
ENDBRANCH  15  24
BRANCH  11  30
ATOM     30  C   UNL     1       0.411  10.743  22.131  0.00  0.00    +0.000 C 
BRANCH  30  31
ATOM     31  C   UNL     1       0.166   9.251  21.893  0.00  0.00    +0.000 C 
BRANCH  31  32
ATOM     32  C   UNL     1       1.059   8.721  20.807  0.00  0.00    +0.000 C 
ATOM     33  O   UNL     1       1.084   9.162  19.662  0.00  0.00    +0.000 OA
BRANCH  32  34
ATOM     34  O   UNL     1       1.833   7.683  21.199  0.00  0.00    +0.000 OA
ATOM     35  H   UNL     1       1.371   7.017  21.742  0.00  0.00    +0.000 HD
ENDBRANCH  32  34
ENDBRANCH  31  32
ENDBRANCH  30  31
ENDBRANCH  11  30
TORSDOF 5
ENDMDL
MODEL 5
REMARK VINA RESULT:      -6.6      3.203      5.485
REMARK  Name = 
REMARK  6 active torsions:
REMARK  status: ('A' for Active; 'I' for Inactive)
REMARK    1  A    between atoms: C_1  and  C_2
REMARK    2  A    between atoms: C_11  and  C_12
REMARK    3  A    between atoms: C_12  and  C_13
REMARK    4  A    between atoms: C_13  and  C_14
REMARK    5  A    between atoms: C_14  and  O_16
REMARK    6  A    between atoms: N_20  and  C_21
REMARK                            x       y       z     vdW  Elec       q    Type
REMARK                         _______ _______ _______ _____ _____    ______ ____
ROOT
ATOM      1  C   UNL     1      -6.115  12.280  19.082  0.00  0.00    +0.000 C 
ATOM      2  C   UNL     1      -4.811  11.912  18.435  0.00  0.00    +0.000 A 
ATOM      3  C   UNL     1      -4.751  11.152  17.253  0.00  0.00    +0.000 A 
ATOM      4  C   UNL     1      -3.520  10.713  16.757  0.00  0.00    +0.000 A 
ATOM      5 CL   UNL     1      -3.456   9.752  15.334  0.00  0.00    +0.000 Cl
ATOM      6  C   UNL     1      -2.378  11.006  17.485  0.00  0.00    +0.000 A 
ATOM      7  C   UNL     1      -2.413  11.758  18.659  0.00  0.00    +0.000 A 
ATOM      8  C   UNL     1      -3.630  12.252  19.107  0.00  0.00    +0.000 A 
ATOM      9  C   UNL     1      -1.053  11.704  19.350  0.00  0.00    +0.000 C 
ATOM     10  N   UNL     1      -1.218  10.948  20.625  0.00  0.00    +0.000 NA
ATOM     11  C   UNL     1      -1.588  11.967  21.661  0.00  0.00    +0.000 C 
ATOM     12  C   UNL     1      -1.241  13.353  21.062  0.00  0.00    +0.000 C 
ATOM     13  C   UNL     1      -0.286  14.283  21.754  0.00  0.00    +0.000 C 
ATOM     14  O   UNL     1      -0.667  15.215  22.443  0.00  0.00    +0.000 OA
ATOM     15  N   UNL     1       0.986  13.910  21.439  0.00  0.00    +0.000 N 
ATOM     16  C   UNL     1       0.928  12.919  20.490  0.00  0.00    +0.000 C 
ATOM     17  O   UNL     1       1.777  12.073  20.303  0.00  0.00    +0.000 OA
ATOM     18  C   UNL     1      -0.440  12.996  19.825  0.00  0.00    +0.000 C 
ATOM     19  C   UNL     1      -0.212  10.953  18.254  0.00  0.00    +0.000 C 
ATOM     20  O   UNL     1       0.984  10.723  18.215  0.00  0.00    +0.000 OA
ATOM     21  N   UNL     1      -1.083  10.580  17.238  0.00  0.00    +0.000 N 
ATOM     22  H   UNL     1      -0.311  10.521  20.852  0.00  0.00    +0.000 HD
ATOM     23  H   UNL     1      -0.789  10.043  16.434  0.00  0.00    +0.000 HD
ENDROOT
BRANCH  15  24
ATOM     24  C   UNL     1       2.243  14.624  21.751  0.00  0.00    +0.000 C 
ATOM     25  C   UNL     1       3.413  14.400  20.772  0.00  0.00    +0.000 C 
ATOM     26  C   UNL     1       3.277  15.192  19.473  0.00  0.00    +0.000 C 
ATOM     27  C   UNL     1       3.024  16.677  19.718  0.00  0.00    +0.000 C 
ATOM     28  C   UNL     1       1.894  16.925  20.710  0.00  0.00    +0.000 C 
ATOM     29  C   UNL     1       2.085  16.130  21.998  0.00  0.00    +0.000 C 
ENDBRANCH  15  24
BRANCH  11  30
ATOM     30  C   UNL     1      -1.005  11.581  23.023  0.00  0.00    +0.000 C 
BRANCH  30  31
ATOM     31  C   UNL     1      -0.897  10.068  23.234  0.00  0.00    +0.000 C 
BRANCH  31  32
ATOM     32  C   UNL     1       0.145   9.469  22.334  0.00  0.00    +0.000 C 
ATOM     33  O   UNL     1      -0.063   8.531  21.570  0.00  0.00    +0.000 OA
BRANCH  32  34
ATOM     34  O   UNL     1       1.363  10.046  22.455  0.00  0.00    +0.000 OA
ATOM     35  H   UNL     1       2.048   9.672  21.869  0.00  0.00    +0.000 HD
ENDBRANCH  32  34
ENDBRANCH  31  32
ENDBRANCH  30  31
ENDBRANCH  11  30
TORSDOF 5
ENDMDL
MODEL 6
REMARK VINA RESULT:      -6.5      3.292      5.020
REMARK  Name = 
REMARK  6 active torsions:
REMARK  status: ('A' for Active; 'I' for Inactive)
REMARK    1  A    between atoms: C_1  and  C_2
REMARK    2  A    between atoms: C_11  and  C_12
REMARK    3  A    between atoms: C_12  and  C_13
REMARK    4  A    between atoms: C_13  and  C_14
REMARK    5  A    between atoms: C_14  and  O_16
REMARK    6  A    between atoms: N_20  and  C_21
REMARK                            x       y       z     vdW  Elec       q    Type
REMARK                         _______ _______ _______ _____ _____    ______ ____
ROOT
ATOM      1  C   UNL     1      -3.655  10.372  17.214  0.00  0.00    +0.000 C 
ATOM      2  C   UNL     1      -2.258  10.603  17.712  0.00  0.00    +0.000 A 
ATOM      3  C   UNL     1      -1.202   9.726  17.408  0.00  0.00    +0.000 A 
ATOM      4  C   UNL     1       0.052   9.898  18.000  0.00  0.00    +0.000 A 
ATOM      5 CL   UNL     1       1.328   8.801  17.655  0.00  0.00    +0.000 Cl
ATOM      6  C   UNL     1       0.206  10.919  18.925  0.00  0.00    +0.000 A 
ATOM      7  C   UNL     1      -0.826  11.801  19.242  0.00  0.00    +0.000 A 
ATOM      8  C   UNL     1      -2.048  11.669  18.596  0.00  0.00    +0.000 A 
ATOM      9  C   UNL     1      -0.433  12.646  20.451  0.00  0.00    +0.000 C 
ATOM     10  N   UNL     1      -1.320  12.259  21.587  0.00  0.00    +0.000 NA
ATOM     11  C   UNL     1      -2.524  13.146  21.488  0.00  0.00    +0.000 C 
ATOM     12  C   UNL     1      -2.142  14.308  20.537  0.00  0.00    +0.000 C 
ATOM     13  C   UNL     1      -2.213  15.739  20.988  0.00  0.00    +0.000 C 
ATOM     14  O   UNL     1      -3.153  16.465  20.710  0.00  0.00    +0.000 OA
ATOM     15  N   UNL     1      -1.077  16.031  21.683  0.00  0.00    +0.000 N 
ATOM     16  C   UNL     1      -0.221  14.961  21.589  0.00  0.00    +0.000 C 
ATOM     17  O   UNL     1       0.641  14.677  22.393  0.00  0.00    +0.000 OA
ATOM     18  C   UNL     1      -0.643  14.137  20.380  0.00  0.00    +0.000 C 
ATOM     19  C   UNL     1       1.067  12.210  20.621  0.00  0.00    +0.000 C 
ATOM     20  O   UNL     1       1.923  12.646  21.372  0.00  0.00    +0.000 OA
ATOM     21  N   UNL     1       1.317  11.197  19.704  0.00  0.00    +0.000 N 
ATOM     22  H   UNL     1      -0.807  12.447  22.457  0.00  0.00    +0.000 HD
ATOM     23  H   UNL     1       2.205  10.718  19.646  0.00  0.00    +0.000 HD
ENDROOT
BRANCH  15  24
ATOM     24  C   UNL     1      -0.630  17.352  22.175  0.00  0.00    +0.000 C 
ATOM     25  C   UNL     1       0.837  17.443  22.641  0.00  0.00    +0.000 C 
ATOM     26  C   UNL     1       1.837  17.525  21.489  0.00  0.00    +0.000 C 
ATOM     27  C   UNL     1       1.492  18.631  20.495  0.00  0.00    +0.000 C 
ATOM     28  C   UNL     1       0.038  18.584  20.044  0.00  0.00    +0.000 C 
ATOM     29  C   UNL     1      -0.921  18.525  21.228  0.00  0.00    +0.000 C 
ENDBRANCH  15  24
BRANCH  11  30
ATOM     30  C   UNL     1      -3.061  13.477  22.884  0.00  0.00    +0.000 C 
BRANCH  30  31
ATOM     31  C   UNL     1      -3.286  12.241  23.759  0.00  0.00    +0.000 C 
BRANCH  31  32
ATOM     32  C   UNL     1      -4.563  12.358  24.543  0.00  0.00    +0.000 C 
ATOM     33  O   UNL     1      -5.683  12.295  24.045  0.00  0.00    +0.000 OA
BRANCH  32  34
ATOM     34  O   UNL     1      -4.370  12.563  25.866  0.00  0.00    +0.000 OA
ATOM     35  H   UNL     1      -3.871  13.374  26.081  0.00  0.00    +0.000 HD
ENDBRANCH  32  34
ENDBRANCH  31  32
ENDBRANCH  30  31
ENDBRANCH  11  30
TORSDOF 5
ENDMDL
MODEL 7
REMARK VINA RESULT:      -6.5      3.509      5.541
REMARK  Name = 
REMARK  6 active torsions:
REMARK  status: ('A' for Active; 'I' for Inactive)
REMARK    1  A    between atoms: C_1  and  C_2
REMARK    2  A    between atoms: C_11  and  C_12
REMARK    3  A    between atoms: C_12  and  C_13
REMARK    4  A    between atoms: C_13  and  C_14
REMARK    5  A    between atoms: C_14  and  O_16
REMARK    6  A    between atoms: N_20  and  C_21
REMARK                            x       y       z     vdW  Elec       q    Type
REMARK                         _______ _______ _______ _____ _____    ______ ____
ROOT
ATOM      1  C   UNL     1       1.694   8.968  17.929  0.00  0.00    +0.000 C 
ATOM      2  C   UNL     1       0.685  10.001  18.342  0.00  0.00    +0.000 A 
ATOM      3  C   UNL     1      -0.670   9.908  17.980  0.00  0.00    +0.000 A 
ATOM      4  C   UNL     1      -1.551  10.955  18.265  0.00  0.00    +0.000 A 
ATOM      5 CL   UNL     1      -3.198  10.852  17.786  0.00  0.00    +0.000 Cl
ATOM      6  C   UNL     1      -1.041  12.097  18.863  0.00  0.00    +0.000 A 
ATOM      7  C   UNL     1       0.299  12.211  19.230  0.00  0.00    +0.000 A 
ATOM      8  C   UNL     1       1.153  11.138  19.011  0.00  0.00    +0.000 A 
ATOM      9  C   UNL     1       0.605  13.651  19.635  0.00  0.00    +0.000 C 
ATOM     10  N   UNL     1       1.532  14.225  18.616  0.00  0.00    +0.000 NA
ATOM     11  C   UNL     1       2.916  13.906  19.096  0.00  0.00    +0.000 C 
ATOM     12  C   UNL     1       2.787  13.503  20.587  0.00  0.00    +0.000 C 
ATOM     13  C   UNL     1       3.532  14.243  21.661  0.00  0.00    +0.000 C 
ATOM     14  O   UNL     1       4.572  13.823  22.140  0.00  0.00    +0.000 OA
ATOM     15  N   UNL     1       2.830  15.366  21.980  0.00  0.00    +0.000 N 
ATOM     16  C   UNL     1       1.630  15.335  21.312  0.00  0.00    +0.000 C 
ATOM     17  O   UNL     1       0.970  16.305  21.003  0.00  0.00    +0.000 OA
ATOM     18  C   UNL     1       1.358  13.889  20.918  0.00  0.00    +0.000 C 
ATOM     19  C   UNL     1      -0.844  14.261  19.611  0.00  0.00    +0.000 C 
ATOM     20  O   UNL     1      -1.228  15.366  19.956  0.00  0.00    +0.000 OA
ATOM     21  N   UNL     1      -1.704  13.283  19.130  0.00  0.00    +0.000 N 
ATOM     22  H   UNL     1       1.384  15.242  18.601  0.00  0.00    +0.000 HD
ATOM     23  H   UNL     1      -2.691  13.446  18.981  0.00  0.00    +0.000 HD
ENDROOT
BRANCH  15  24
ATOM     24  C   UNL     1       3.086  16.311  23.088  0.00  0.00    +0.000 C 
ATOM     25  C   UNL     1       4.519  16.321  23.656  0.00  0.00    +0.000 C 
ATOM     26  C   UNL     1       5.517  17.070  22.776  0.00  0.00    +0.000 C 
ATOM     27  C   UNL     1       5.043  18.477  22.424  0.00  0.00    +0.000 C 
ATOM     28  C   UNL     1       3.616  18.500  21.891  0.00  0.00    +0.000 C 
ATOM     29  C   UNL     1       2.654  17.758  22.814  0.00  0.00    +0.000 C 
ENDBRANCH  15  24
BRANCH  11  30
ATOM     30  C   UNL     1       3.887  15.027  18.713  0.00  0.00    +0.000 C 
BRANCH  30  31
ATOM     31  C   UNL     1       3.613  15.624  17.331  0.00  0.00    +0.000 C 
BRANCH  31  32
ATOM     32  C   UNL     1       2.920  16.952  17.442  0.00  0.00    +0.000 C 
ATOM     33  O   UNL     1       2.604  17.645  16.479  0.00  0.00    +0.000 OA
BRANCH  32  34
ATOM     34  O   UNL     1       2.688  17.338  18.718  0.00  0.00    +0.000 OA
ATOM     35  H   UNL     1       2.539  16.603  19.342  0.00  0.00    +0.000 HD
ENDBRANCH  32  34
ENDBRANCH  31  32
ENDBRANCH  30  31
ENDBRANCH  11  30
TORSDOF 5
ENDMDL
MODEL 8
REMARK VINA RESULT:      -6.5      7.446     10.529
REMARK  Name = 
REMARK  6 active torsions:
REMARK  status: ('A' for Active; 'I' for Inactive)
REMARK    1  A    between atoms: C_1  and  C_2
REMARK    2  A    between atoms: C_11  and  C_12
REMARK    3  A    between atoms: C_12  and  C_13
REMARK    4  A    between atoms: C_13  and  C_14
REMARK    5  A    between atoms: C_14  and  O_16
REMARK    6  A    between atoms: N_20  and  C_21
REMARK                            x       y       z     vdW  Elec       q    Type
REMARK                         _______ _______ _______ _____ _____    ______ ____
ROOT
ATOM      1  C   UNL     1       2.830  17.122  16.692  0.00  0.00    +0.000 C 
ATOM      2  C   UNL     1       3.033  16.675  18.111  0.00  0.00    +0.000 A 
ATOM      3  C   UNL     1       2.053  16.865  19.101  0.00  0.00    +0.000 A 
ATOM      4  C   UNL     1       2.331  16.562  20.437  0.00  0.00    +0.000 A 
ATOM      5 CL   UNL     1       1.143  16.832  21.649  0.00  0.00    +0.000 Cl
ATOM      6  C   UNL     1       3.605  16.119  20.758  0.00  0.00    +0.000 A 
ATOM      7  C   UNL     1       4.592  15.923  19.793  0.00  0.00    +0.000 A 
ATOM      8  C   UNL     1       4.287  16.157  18.459  0.00  0.00    +0.000 A 
ATOM      9  C   UNL     1       5.937  15.672  20.470  0.00  0.00    +0.000 C 
ATOM     10  N   UNL     1       6.822  16.835  20.172  0.00  0.00    +0.000 NA
ATOM     11  C   UNL     1       7.523  16.498  18.890  0.00  0.00    +0.000 C 
ATOM     12  C   UNL     1       7.337  14.976  18.669  0.00  0.00    +0.000 C 
ATOM     13  C   UNL     1       8.519  14.059  18.533  0.00  0.00    +0.000 C 
ATOM     14  O   UNL     1       8.924  13.675  17.448  0.00  0.00    +0.000 OA
ATOM     15  N   UNL     1       8.972  13.748  19.780  0.00  0.00    +0.000 N 
ATOM     16  C   UNL     1       8.096  14.265  20.704  0.00  0.00    +0.000 C 
ATOM     17  O   UNL     1       8.374  14.568  21.844  0.00  0.00    +0.000 OA
ATOM     18  C   UNL     1       6.770  14.509  19.996  0.00  0.00    +0.000 C 
ATOM     19  C   UNL     1       5.479  15.572  21.971  0.00  0.00    +0.000 C 
ATOM     20  O   UNL     1       6.123  15.271  22.961  0.00  0.00    +0.000 OA
ATOM     21  N   UNL     1       4.123  15.869  22.018  0.00  0.00    +0.000 N 
ATOM     22  H   UNL     1       7.500  16.912  20.941  0.00  0.00    +0.000 HD
ATOM     23  H   UNL     1       3.601  15.913  22.882  0.00  0.00    +0.000 HD
ENDROOT
BRANCH  15  24
ATOM     24  C   UNL     1      10.004  12.756  20.148  0.00  0.00    +0.000 C 
ATOM     25  C   UNL     1       9.856  11.356  19.520  0.00  0.00    +0.000 C 
ATOM     26  C   UNL     1      10.305  11.293  18.061  0.00  0.00    +0.000 C 
ATOM     27  C   UNL     1      11.709  11.855  17.859  0.00  0.00    +0.000 C 
ATOM     28  C   UNL     1      11.893  13.225  18.499  0.00  0.00    +0.000 C 
ATOM     29  C   UNL     1      11.451  13.231  19.960  0.00  0.00    +0.000 C 
ENDBRANCH  15  24
BRANCH  11  30
ATOM     30  C   UNL     1       8.939  17.080  18.885  0.00  0.00    +0.000 C 
BRANCH  30  31
ATOM     31  C   UNL     1       9.369  17.627  17.522  0.00  0.00    +0.000 C 
BRANCH  31  32
ATOM     32  C   UNL     1      10.666  17.013  17.076  0.00  0.00    +0.000 C 
ATOM     33  O   UNL     1      11.771  17.394  17.451  0.00  0.00    +0.000 OA
BRANCH  32  34
ATOM     34  O   UNL     1      10.511  16.000  16.194  0.00  0.00    +0.000 OA
ATOM     35  H   UNL     1       9.619  15.936  15.803  0.00  0.00    +0.000 HD
ENDBRANCH  32  34
ENDBRANCH  31  32
ENDBRANCH  30  31
ENDBRANCH  11  30
TORSDOF 5
ENDMDL
MODEL 9
REMARK VINA RESULT:      -6.5      4.160      5.908
REMARK  Name = 
REMARK  6 active torsions:
REMARK  status: ('A' for Active; 'I' for Inactive)
REMARK    1  A    between atoms: C_1  and  C_2
REMARK    2  A    between atoms: C_11  and  C_12
REMARK    3  A    between atoms: C_12  and  C_13
REMARK    4  A    between atoms: C_13  and  C_14
REMARK    5  A    between atoms: C_14  and  O_16
REMARK    6  A    between atoms: N_20  and  C_21
REMARK                            x       y       z     vdW  Elec       q    Type
REMARK                         _______ _______ _______ _____ _____    ______ ____
ROOT
ATOM      1  C   UNL     1      -3.465  10.538  17.135  0.00  0.00    +0.000 C 
ATOM      2  C   UNL     1      -2.412  10.889  18.145  0.00  0.00    +0.000 A 
ATOM      3  C   UNL     1      -1.231  10.139  18.285  0.00  0.00    +0.000 A 
ATOM      4  C   UNL     1      -0.339  10.412  19.325  0.00  0.00    +0.000 A 
ATOM      5 CL   UNL     1       1.084   9.467  19.514  0.00  0.00    +0.000 Cl
ATOM      6  C   UNL     1      -0.676  11.403  20.235  0.00  0.00    +0.000 A 
ATOM      7  C   UNL     1      -1.841  12.159  20.117  0.00  0.00    +0.000 A 
ATOM      8  C   UNL     1      -2.687  11.932  19.039  0.00  0.00    +0.000 A 
ATOM      9  C   UNL     1      -2.052  12.987  21.382  0.00  0.00    +0.000 C 
ATOM     10  N   UNL     1      -3.265  12.463  22.073  0.00  0.00    +0.000 NA
ATOM     11  C   UNL     1      -4.424  13.226  21.505  0.00  0.00    +0.000 C 
ATOM     12  C   UNL     1      -3.829  14.461  20.782  0.00  0.00    +0.000 C 
ATOM     13  C   UNL     1      -4.231  15.856  21.168  0.00  0.00    +0.000 C 
ATOM     14  O   UNL     1      -5.060  16.493  20.539  0.00  0.00    +0.000 OA
ATOM     15  N   UNL     1      -3.501  16.232  22.255  0.00  0.00    +0.000 N 
ATOM     16  C   UNL     1      -2.564  15.260  22.509  0.00  0.00    +0.000 C 
ATOM     17  O   UNL     1      -2.062  15.031  23.589  0.00  0.00    +0.000 OA
ATOM     18  C   UNL     1      -2.381  14.450  21.232  0.00  0.00    +0.000 C 
ATOM     19  C   UNL     1      -0.701  12.700  22.132  0.00  0.00    +0.000 C 
ATOM     20  O   UNL     1      -0.264  13.188  23.160  0.00  0.00    +0.000 OA
ATOM     21  N   UNL     1       0.000  11.758  21.390  0.00  0.00    +0.000 N 
ATOM     22  H   UNL     1      -3.161  12.665  23.076  0.00  0.00    +0.000 HD
ATOM     23  H   UNL     1       0.887  11.376  21.688  0.00  0.00    +0.000 HD
ENDROOT
BRANCH  15  24
ATOM     24  C   UNL     1      -3.433  17.569  22.883  0.00  0.00    +0.000 C 
ATOM     25  C   UNL     1      -4.641  18.496  22.641  0.00  0.00    +0.000 C 
ATOM     26  C   UNL     1      -5.856  18.147  23.498  0.00  0.00    +0.000 C 
ATOM     27  C   UNL     1      -5.513  18.044  24.982  0.00  0.00    +0.000 C 
ATOM     28  C   UNL     1      -4.301  17.160  25.246  0.00  0.00    +0.000 C 
ATOM     29  C   UNL     1      -3.108  17.561  24.383  0.00  0.00    +0.000 C 
ENDBRANCH  15  24
BRANCH  11  30
ATOM     30  C   UNL     1      -5.500  13.439  22.573  0.00  0.00    +0.000 C 
BRANCH  30  31
ATOM     31  C   UNL     1      -6.925  13.238  22.052  0.00  0.00    +0.000 C 
BRANCH  31  32
ATOM     32  C   UNL     1      -7.392  11.828  22.281  0.00  0.00    +0.000 C 
ATOM     33  O   UNL     1      -7.477  10.981  21.397  0.00  0.00    +0.000 OA
BRANCH  32  34
ATOM     34  O   UNL     1      -7.738  11.574  23.564  0.00  0.00    +0.000 OA
ATOM     35  H   UNL     1      -7.196  12.038  24.229  0.00  0.00    +0.000 HD
ENDBRANCH  32  34
ENDBRANCH  31  32
ENDBRANCH  30  31
ENDBRANCH  11  30
TORSDOF 5
ENDMDL
