MODEL 1
REMARK VINA RESULT:      -7.6      0.000      0.000
REMARK  Name = 
REMARK  5 active torsions:
REMARK  status: ('A' for Active; 'I' for Inactive)
REMARK    1  A    between atoms: C_2  and  C_3
REMARK    2  A    between atoms: C_2  and  C_21
REMARK    3  A    between atoms: C_3  and  C_4
REMARK    4  A    between atoms: C_4  and  C_5
REMARK    5  A    between atoms: N_10  and  C_11
REMARK                            x       y       z     vdW  Elec       q    Type
REMARK                         _______ _______ _______ _____ _____    ______ ____
ROOT
ATOM      1  C   UNL     1       0.584   9.630  19.113  0.00  0.00    +0.000 C 
ATOM      2  O   UNL     1       1.051   9.568  20.250  0.00  0.00    +0.000 OA
ATOM      3  N   UNL     1      -0.489  10.457  18.774  0.00  0.00    +0.000 N 
ATOM      4  C   UNL     1      -1.078  11.286  19.824  0.00  0.00    +0.000 C 
ATOM      5  C   UNL     1      -1.892  12.468  19.249  0.00  0.00    +0.000 C 
ATOM      6  N   UNL     1      -2.896  12.117  18.209  0.00  0.00    +0.000 NA
ATOM      7  C   UNL     1      -2.180  11.367  17.159  0.00  0.00    +0.000 C 
ATOM      8  C   UNL     1      -1.379  10.151  17.649  0.00  0.00    +0.000 C 
ENDROOT
BRANCH   6   9
ATOM      9  C   UNL     1      -4.138  11.484  18.745  0.00  0.00    +0.000 C 
ATOM     10  C   UNL     1      -4.691  12.383  19.884  0.00  0.00    +0.000 C 
ATOM     11  C   UNL     1      -5.955  11.915  20.611  0.00  0.00    +0.000 C 
ATOM     12  C   UNL     1      -7.311  11.992  19.906  0.00  0.00    +0.000 C 
ATOM     13  C   UNL     1      -7.511  13.156  18.938  0.00  0.00    +0.000 C 
ATOM     14  C   UNL     1      -7.290  12.789  17.468  0.00  0.00    +0.000 C 
ATOM     15  C   UNL     1      -5.849  12.484  17.047  0.00  0.00    +0.000 C 
ATOM     16  C   UNL     1      -5.237  11.226  17.677  0.00  0.00    +0.000 C 
ENDBRANCH   6   9
BRANCH   1  17
ATOM     17  C   UNL     1       1.192   8.862  17.957  0.00  0.00    +0.000 C 
BRANCH  17  18
ATOM     18  C   UNL     1       2.712   8.858  17.951  0.00  0.00    +0.000 C 
BRANCH  18  20
ATOM     19  O   UNL     1       4.080   7.173  16.901  0.00  0.00    +0.000 OA
ATOM     20  C   UNL     1       3.211   7.443  17.729  0.00  0.00    +0.000 C 
BRANCH  20  21
ATOM     21  C   UNL     1       2.629   6.338  18.540  0.00  0.00    +0.000 A 
ATOM     22  C   UNL     1       2.197   5.178  17.882  0.00  0.00    +0.000 A 
ATOM     23  C   UNL     1       1.647   4.118  18.604  0.00  0.00    +0.000 A 
ATOM     24  C   UNL     1       1.524   4.221  19.991  0.00  0.00    +0.000 A 
ATOM     25 CL   UNL     1       0.850   2.918  20.887  0.00  0.00    +0.000 Cl
ATOM     26  C   UNL     1       1.948   5.370  20.654  0.00  0.00    +0.000 A 
ATOM     27  C   UNL     1       2.501   6.431  19.933  0.00  0.00    +0.000 A 
ENDBRANCH  20  21
ENDBRANCH  18  20
ENDBRANCH  17  18
ENDBRANCH   1  17
TORSDOF 5
ENDMDL
MODEL 2
REMARK VINA RESULT:      -7.6      2.042      2.507
REMARK  Name = 
REMARK  5 active torsions:
REMARK  status: ('A' for Active; 'I' for Inactive)
REMARK    1  A    between atoms: C_2  and  C_3
REMARK    2  A    between atoms: C_2  and  C_21
REMARK    3  A    between atoms: C_3  and  C_4
REMARK    4  A    between atoms: C_4  and  C_5
REMARK    5  A    between atoms: N_10  and  C_11
REMARK                            x       y       z     vdW  Elec       q    Type
REMARK                         _______ _______ _______ _____ _____    ______ ____
ROOT
ATOM      1  C   UNL     1       0.659   9.783  19.089  0.00  0.00    +0.000 C 
ATOM      2  O   UNL     1       1.193   9.761  20.197  0.00  0.00    +0.000 OA
ATOM      3  N   UNL     1      -0.437  10.595  18.788  0.00  0.00    +0.000 N 
ATOM      4  C   UNL     1      -0.966  11.458  19.843  0.00  0.00    +0.000 C 
ATOM      5  C   UNL     1      -1.819  12.618  19.278  0.00  0.00    +0.000 C 
ATOM      6  N   UNL     1      -2.882  12.229  18.313  0.00  0.00    +0.000 NA
ATOM      7  C   UNL     1      -2.226  11.447  17.247  0.00  0.00    +0.000 C 
ATOM      8  C   UNL     1      -1.391  10.250  17.728  0.00  0.00    +0.000 C 
ENDROOT
BRANCH   6   9
ATOM      9  C   UNL     1      -4.086  11.611  18.942  0.00  0.00    +0.000 C 
ATOM     10  C   UNL     1      -4.647  12.602  19.998  0.00  0.00    +0.000 C 
ATOM     11  C   UNL     1      -5.877  12.166  20.801  0.00  0.00    +0.000 C 
ATOM     12  C   UNL     1      -7.250  12.123  20.128  0.00  0.00    +0.000 C 
ATOM     13  C   UNL     1      -7.515  13.173  19.052  0.00  0.00    +0.000 C 
ATOM     14  C   UNL     1      -7.313  12.666  17.622  0.00  0.00    +0.000 C 
ATOM     15  C   UNL     1      -5.871  12.370  17.197  0.00  0.00    +0.000 C 
ATOM     16  C   UNL     1      -5.198  11.205  17.935  0.00  0.00    +0.000 C 
ENDBRANCH   6   9
BRANCH   1  17
ATOM     17  C   UNL     1       1.200   8.979  17.925  0.00  0.00    +0.000 C 
BRANCH  17  18
ATOM     18  C   UNL     1       2.675   8.633  18.047  0.00  0.00    +0.000 C 
BRANCH  18  20
ATOM     19  O   UNL     1       2.254   6.659  19.364  0.00  0.00    +0.000 OA
ATOM     20  C   UNL     1       2.821   7.164  18.397  0.00  0.00    +0.000 C 
BRANCH  20  21
ATOM     21  C   UNL     1       3.682   6.301  17.541  0.00  0.00    +0.000 A 
ATOM     22  C   UNL     1       3.462   4.916  17.548  0.00  0.00    +0.000 A 
ATOM     23  C   UNL     1       4.245   4.072  16.761  0.00  0.00    +0.000 A 
ATOM     24  C   UNL     1       5.257   4.615  15.966  0.00  0.00    +0.000 A 
ATOM     25 CL   UNL     1       6.224   3.580  14.992  0.00  0.00    +0.000 Cl
ATOM     26  C   UNL     1       5.486   5.988  15.954  0.00  0.00    +0.000 A 
ATOM     27  C   UNL     1       4.700   6.835  16.741  0.00  0.00    +0.000 A 
ENDBRANCH  20  21
ENDBRANCH  18  20
ENDBRANCH  17  18
ENDBRANCH   1  17
TORSDOF 5
ENDMDL
MODEL 3
REMARK VINA RESULT:      -7.4      3.423      9.532
REMARK  Name = 
REMARK  5 active torsions:
REMARK  status: ('A' for Active; 'I' for Inactive)
REMARK    1  A    between atoms: C_2  and  C_3
REMARK    2  A    between atoms: C_2  and  C_21
REMARK    3  A    between atoms: C_3  and  C_4
REMARK    4  A    between atoms: C_4  and  C_5
REMARK    5  A    between atoms: N_10  and  C_11
REMARK                            x       y       z     vdW  Elec       q    Type
REMARK                         _______ _______ _______ _____ _____    ______ ____
ROOT
ATOM      1  C   UNL     1       1.180   8.874  20.779  0.00  0.00    +0.000 C 
ATOM      2  O   UNL     1       1.114   8.530  21.958  0.00  0.00    +0.000 OA
ATOM      3  N   UNL     1       1.729   8.067  19.780  0.00  0.00    +0.000 N 
ATOM      4  C   UNL     1       2.244   6.753  20.161  0.00  0.00    +0.000 C 
ATOM      5  C   UNL     1       2.366   5.798  18.951  0.00  0.00    +0.000 C 
ATOM      6  N   UNL     1       3.087   6.340  17.769  0.00  0.00    +0.000 NA
ATOM      7  C   UNL     1       2.430   7.613  17.413  0.00  0.00    +0.000 C 
ATOM      8  C   UNL     1       2.308   8.632  18.556  0.00  0.00    +0.000 C 
ENDROOT
BRANCH   6   9
ATOM      9  C   UNL     1       4.571   6.382  17.922  0.00  0.00    +0.000 C 
ATOM     10  C   UNL     1       5.056   4.974  18.366  0.00  0.00    +0.000 C 
ATOM     11  C   UNL     1       6.555   4.784  18.618  0.00  0.00    +0.000 C 
ATOM     12  C   UNL     1       7.525   4.733  17.435  0.00  0.00    +0.000 C 
ATOM     13  C   UNL     1       6.997   4.106  16.147  0.00  0.00    +0.000 C 
ATOM     14  C   UNL     1       6.516   5.125  15.110  0.00  0.00    +0.000 C 
ATOM     15  C   UNL     1       5.233   5.891  15.445  0.00  0.00    +0.000 C 
ATOM     16  C   UNL     1       5.334   6.840  16.647  0.00  0.00    +0.000 C 
ENDBRANCH   6   9
BRANCH   1  17
ATOM     17  C   UNL     1       0.595  10.184  20.295  0.00  0.00    +0.000 C 
BRANCH  17  18
ATOM     18  C   UNL     1      -0.827  10.438  20.770  0.00  0.00    +0.000 C 
BRANCH  18  20
ATOM     19  O   UNL     1      -1.455  12.714  20.284  0.00  0.00    +0.000 OA
ATOM     20  C   UNL     1      -1.450  11.536  19.929  0.00  0.00    +0.000 C 
BRANCH  20  21
ATOM     21  C   UNL     1      -2.082  11.178  18.629  0.00  0.00    +0.000 A 
ATOM     22  C   UNL     1      -1.452  10.224  17.817  0.00  0.00    +0.000 A 
ATOM     23  C   UNL     1      -2.011   9.859  16.591  0.00  0.00    +0.000 A 
ATOM     24  C   UNL     1      -3.203  10.454  16.175  0.00  0.00    +0.000 A 
ATOM     25 CL   UNL     1      -3.898  10.006  14.667  0.00  0.00    +0.000 Cl
ATOM     26  C   UNL     1      -3.835  11.404  16.972  0.00  0.00    +0.000 A 
ATOM     27  C   UNL     1      -3.278  11.769  18.200  0.00  0.00    +0.000 A 
ENDBRANCH  20  21
ENDBRANCH  18  20
ENDBRANCH  17  18
ENDBRANCH   1  17
TORSDOF 5
ENDMDL
MODEL 4
REMARK VINA RESULT:      -7.3      3.068      4.048
REMARK  Name = 
REMARK  5 active torsions:
REMARK  status: ('A' for Active; 'I' for Inactive)
REMARK    1  A    between atoms: C_2  and  C_3
REMARK    2  A    between atoms: C_2  and  C_21
REMARK    3  A    between atoms: C_3  and  C_4
REMARK    4  A    between atoms: C_4  and  C_5
REMARK    5  A    between atoms: N_10  and  C_11
REMARK                            x       y       z     vdW  Elec       q    Type
REMARK                         _______ _______ _______ _____ _____    ______ ____
ROOT
ATOM      1  C   UNL     1       1.673  10.659  18.166  0.00  0.00    +0.000 C 
ATOM      2  O   UNL     1       2.708  11.221  17.812  0.00  0.00    +0.000 OA
ATOM      3  N   UNL     1       0.627  11.324  18.809  0.00  0.00    +0.000 N 
ATOM      4  C   UNL     1       0.777  12.755  19.069  0.00  0.00    +0.000 C 
ATOM      5  C   UNL     1      -0.581  13.449  19.324  0.00  0.00    +0.000 C 
ATOM      6  N   UNL     1      -1.457  12.804  20.338  0.00  0.00    +0.000 NA
ATOM      7  C   UNL     1      -1.617  11.394  19.930  0.00  0.00    +0.000 C 
ATOM      8  C   UNL     1      -0.309  10.624  19.696  0.00  0.00    +0.000 C 
ENDROOT
BRANCH   6   9
ATOM      9  C   UNL     1      -1.038  13.040  21.751  0.00  0.00    +0.000 C 
ATOM     10  C   UNL     1      -1.169  14.559  22.051  0.00  0.00    +0.000 C 
ATOM     11  C   UNL     1      -0.760  15.048  23.444  0.00  0.00    +0.000 C 
ATOM     12  C   UNL     1      -1.653  14.743  24.649  0.00  0.00    +0.000 C 
ATOM     13  C   UNL     1      -3.157  14.700  24.390  0.00  0.00    +0.000 C 
ATOM     14  C   UNL     1      -3.718  13.288  24.206  0.00  0.00    +0.000 C 
ATOM     15  C   UNL     1      -3.319  12.554  22.922  0.00  0.00    +0.000 C 
ATOM     16  C   UNL     1      -1.828  12.211  22.801  0.00  0.00    +0.000 C 
ENDBRANCH   6   9
BRANCH   1  17
ATOM     17  C   UNL     1       1.412   9.199  17.860  0.00  0.00    +0.000 C 
BRANCH  17  18
ATOM     18  C   UNL     1       2.642   8.314  17.981  0.00  0.00    +0.000 C 
BRANCH  18  20
ATOM     19  O   UNL     1       2.010   7.642  20.208  0.00  0.00    +0.000 OA
ATOM     20  C   UNL     1       2.435   7.313  19.101  0.00  0.00    +0.000 C 
BRANCH  20  21
ATOM     21  C   UNL     1       2.759   5.880  18.858  0.00  0.00    +0.000 A 
ATOM     22  C   UNL     1       1.912   5.132  18.028  0.00  0.00    +0.000 A 
ATOM     23  C   UNL     1       2.180   3.786  17.773  0.00  0.00    +0.000 A 
ATOM     24  C   UNL     1       3.298   3.186  18.353  0.00  0.00    +0.000 A 
ATOM     25 CL   UNL     1       3.635   1.529  18.040  0.00  0.00    +0.000 Cl
ATOM     26  C   UNL     1       4.145   3.919  19.181  0.00  0.00    +0.000 A 
ATOM     27  C   UNL     1       3.879   5.267  19.436  0.00  0.00    +0.000 A 
ENDBRANCH  20  21
ENDBRANCH  18  20
ENDBRANCH  17  18
ENDBRANCH   1  17
TORSDOF 5
ENDMDL
MODEL 5
REMARK VINA RESULT:      -7.2      4.436      6.371
REMARK  Name = 
REMARK  5 active torsions:
REMARK  status: ('A' for Active; 'I' for Inactive)
REMARK    1  A    between atoms: C_2  and  C_3
REMARK    2  A    between atoms: C_2  and  C_21
REMARK    3  A    between atoms: C_3  and  C_4
REMARK    4  A    between atoms: C_4  and  C_5
REMARK    5  A    between atoms: N_10  and  C_11
REMARK                            x       y       z     vdW  Elec       q    Type
REMARK                         _______ _______ _______ _____ _____    ______ ____
ROOT
ATOM      1  C   UNL     1       1.470   3.495  19.203  0.00  0.00    +0.000 C 
ATOM      2  O   UNL     1       0.884   2.917  20.117  0.00  0.00    +0.000 OA
ATOM      3  N   UNL     1       1.827   4.844  19.259  0.00  0.00    +0.000 N 
ATOM      4  C   UNL     1       1.487   5.597  20.465  0.00  0.00    +0.000 C 
ATOM      5  C   UNL     1       2.331   6.884  20.609  0.00  0.00    +0.000 C 
ATOM      6  N   UNL     1       2.373   7.767  19.412  0.00  0.00    +0.000 NA
ATOM      7  C   UNL     1       2.815   6.932  18.279  0.00  0.00    +0.000 C 
ATOM      8  C   UNL     1       1.998   5.652  18.046  0.00  0.00    +0.000 C 
ENDROOT
BRANCH   6   9
ATOM      9  C   UNL     1       1.133   8.570  19.199  0.00  0.00    +0.000 C 
ATOM     10  C   UNL     1       0.787   9.297  20.528  0.00  0.00    +0.000 C 
ATOM     11  C   UNL     1      -0.475  10.163  20.558  0.00  0.00    +0.000 C 
ATOM     12  C   UNL     1      -0.493  11.509  19.830  0.00  0.00    +0.000 C 
ATOM     13  C   UNL     1       0.825  12.280  19.791  0.00  0.00    +0.000 C 
ATOM     14  C   UNL     1       1.608  12.111  18.487  0.00  0.00    +0.000 C 
ATOM     15  C   UNL     1       2.228  10.733  18.234  0.00  0.00    +0.000 C 
ATOM     16  C   UNL     1       1.224   9.591  18.031  0.00  0.00    +0.000 C 
ENDBRANCH   6   9
BRANCH   1  17
ATOM     17  C   UNL     1       1.926   2.762  17.958  0.00  0.00    +0.000 C 
BRANCH  17  18
ATOM     18  C   UNL     1       3.158   1.896  18.168  0.00  0.00    +0.000 C 
BRANCH  18  20
ATOM     19  O   UNL     1       4.201   2.260  20.310  0.00  0.00    +0.000 OA
ATOM     20  C   UNL     1       4.104   2.590  19.129  0.00  0.00    +0.000 C 
BRANCH  20  21
ATOM     21  C   UNL     1       4.943   3.714  18.629  0.00  0.00    +0.000 A 
ATOM     22  C   UNL     1       5.156   3.830  17.248  0.00  0.00    +0.000 A 
ATOM     23  C   UNL     1       5.935   4.869  16.737  0.00  0.00    +0.000 A 
ATOM     24  C   UNL     1       6.507   5.794  17.613  0.00  0.00    +0.000 A 
ATOM     25 CL   UNL     1       7.466   7.078  16.989  0.00  0.00    +0.000 Cl
ATOM     26  C   UNL     1       6.305   5.686  18.986  0.00  0.00    +0.000 A 
ATOM     27  C   UNL     1       5.523   4.647  19.499  0.00  0.00    +0.000 A 
ENDBRANCH  20  21
ENDBRANCH  18  20
ENDBRANCH  17  18
ENDBRANCH   1  17
TORSDOF 5
ENDMDL
MODEL 6
REMARK VINA RESULT:      -7.2      3.766      5.272
REMARK  Name = 
REMARK  5 active torsions:
REMARK  status: ('A' for Active; 'I' for Inactive)
REMARK    1  A    between atoms: C_2  and  C_3
REMARK    2  A    between atoms: C_2  and  C_21
REMARK    3  A    between atoms: C_3  and  C_4
REMARK    4  A    between atoms: C_4  and  C_5
REMARK    5  A    between atoms: N_10  and  C_11
REMARK                            x       y       z     vdW  Elec       q    Type
REMARK                         _______ _______ _______ _____ _____    ______ ____
ROOT
ATOM      1  C   UNL     1       2.433   7.282  19.053  0.00  0.00    +0.000 C 
ATOM      2  O   UNL     1       3.112   7.157  18.035  0.00  0.00    +0.000 OA
ATOM      3  N   UNL     1       1.548   8.343  19.253  0.00  0.00    +0.000 N 
ATOM      4  C   UNL     1       1.426   9.347  18.198  0.00  0.00    +0.000 C 
ATOM      5  C   UNL     1       0.116  10.160  18.312  0.00  0.00    +0.000 C 
ATOM      6  N   UNL     1      -0.169  10.744  19.650  0.00  0.00    +0.000 NA
ATOM      7  C   UNL     1      -0.113   9.635  20.621  0.00  0.00    +0.000 C 
ATOM      8  C   UNL     1       1.179   8.803  20.597  0.00  0.00    +0.000 C 
ENDROOT
BRANCH   6   9
ATOM      9  C   UNL     1       0.644  11.952  19.977  0.00  0.00    +0.000 C 
ATOM     10  C   UNL     1       0.877  12.753  18.666  0.00  0.00    +0.000 C 
ATOM     11  C   UNL     1       1.720  14.029  18.752  0.00  0.00    +0.000 C 
ATOM     12  C   UNL     1       1.137  15.285  19.403  0.00  0.00    +0.000 C 
ATOM     13  C   UNL     1      -0.364  15.508  19.231  0.00  0.00    +0.000 C 
ATOM     14  C   UNL     1      -1.202  15.060  20.432  0.00  0.00    +0.000 C 
ATOM     15  C   UNL     1      -1.296  13.551  20.677  0.00  0.00    +0.000 C 
ATOM     16  C   UNL     1       0.021  12.868  21.068  0.00  0.00    +0.000 C 
ENDBRANCH   6   9
BRANCH   1  17
ATOM     17  C   UNL     1       2.445   6.241  20.154  0.00  0.00    +0.000 C 
BRANCH  17  18
ATOM     18  C   UNL     1       1.965   4.868  19.710  0.00  0.00    +0.000 C 
BRANCH  18  20
ATOM     19  O   UNL     1       3.280   2.991  20.458  0.00  0.00    +0.000 OA
ATOM     20  C   UNL     1       3.144   3.915  19.657  0.00  0.00    +0.000 C 
BRANCH  20  21
ATOM     21  C   UNL     1       4.177   4.104  18.601  0.00  0.00    +0.000 A 
ATOM     22  C   UNL     1       3.821   3.873  17.265  0.00  0.00    +0.000 A 
ATOM     23  C   UNL     1       4.758   4.038  16.244  0.00  0.00    +0.000 A 
ATOM     24  C   UNL     1       6.058   4.434  16.562  0.00  0.00    +0.000 A 
ATOM     25 CL   UNL     1       7.217   4.643  15.309  0.00  0.00    +0.000 Cl
ATOM     26  C   UNL     1       6.423   4.664  17.886  0.00  0.00    +0.000 A 
ATOM     27  C   UNL     1       5.485   4.500  18.909  0.00  0.00    +0.000 A 
ENDBRANCH  20  21
ENDBRANCH  18  20
ENDBRANCH  17  18
ENDBRANCH   1  17
TORSDOF 5
ENDMDL
MODEL 7
REMARK VINA RESULT:      -7.1      3.633      9.811
REMARK  Name = 
REMARK  5 active torsions:
REMARK  status: ('A' for Active; 'I' for Inactive)
REMARK    1  A    between atoms: C_2  and  C_3
REMARK    2  A    between atoms: C_2  and  C_21
REMARK    3  A    between atoms: C_3  and  C_4
REMARK    4  A    between atoms: C_4  and  C_5
REMARK    5  A    between atoms: N_10  and  C_11
REMARK                            x       y       z     vdW  Elec       q    Type
REMARK                         _______ _______ _______ _____ _____    ______ ____
ROOT
ATOM      1  C   UNL     1       0.959   9.495  20.451  0.00  0.00    +0.000 C 
ATOM      2  O   UNL     1       0.868   9.351  21.670  0.00  0.00    +0.000 OA
ATOM      3  N   UNL     1       1.570   8.558  19.616  0.00  0.00    +0.000 N 
ATOM      4  C   UNL     1       2.124   7.350  20.226  0.00  0.00    +0.000 C 
ATOM      5  C   UNL     1       2.322   6.213  19.197  0.00  0.00    +0.000 C 
ATOM      6  N   UNL     1       3.059   6.581  17.959  0.00  0.00    +0.000 NA
ATOM      7  C   UNL     1       2.363   7.746  17.378  0.00  0.00    +0.000 C 
ATOM      8  C   UNL     1       2.165   8.936  18.330  0.00  0.00    +0.000 C 
ENDROOT
BRANCH   6   9
ATOM      9  C   UNL     1       4.534   6.713  18.140  0.00  0.00    +0.000 C 
ATOM     10  C   UNL     1       5.065   5.408  18.793  0.00  0.00    +0.000 C 
ATOM     11  C   UNL     1       6.562   5.325  19.105  0.00  0.00    +0.000 C 
ATOM     12  C   UNL     1       7.569   5.151  17.965  0.00  0.00    +0.000 C 
ATOM     13  C   UNL     1       7.107   4.323  16.768  0.00  0.00    +0.000 C 
ATOM     14  C   UNL     1       6.615   5.160  15.584  0.00  0.00    +0.000 C 
ATOM     15  C   UNL     1       5.291   5.906  15.776  0.00  0.00    +0.000 C 
ATOM     16  C   UNL     1       5.315   7.020  16.831  0.00  0.00    +0.000 C 
ENDBRANCH   6   9
BRANCH   1  17
ATOM     17  C   UNL     1       0.339  10.680  19.739  0.00  0.00    +0.000 C 
BRANCH  17  18
ATOM     18  C   UNL     1      -1.179  10.722  19.819  0.00  0.00    +0.000 C 
BRANCH  18  20
ATOM     19  O   UNL     1      -1.147  10.088  17.493  0.00  0.00    +0.000 OA
ATOM     20  C   UNL     1      -1.760  10.612  18.422  0.00  0.00    +0.000 C 
BRANCH  20  21
ATOM     21  C   UNL     1      -3.120  11.161  18.161  0.00  0.00    +0.000 A 
ATOM     22  C   UNL     1      -3.737  11.929  19.160  0.00  0.00    +0.000 A 
ATOM     23  C   UNL     1      -5.010  12.463  18.956  0.00  0.00    +0.000 A 
ATOM     24  C   UNL     1      -5.670  12.225  17.750  0.00  0.00    +0.000 A 
ATOM     25 CL   UNL     1      -7.238  12.883  17.492  0.00  0.00    +0.000 Cl
ATOM     26  C   UNL     1      -5.068  11.462  16.753  0.00  0.00    +0.000 A 
ATOM     27  C   UNL     1      -3.792  10.928  16.955  0.00  0.00    +0.000 A 
ENDBRANCH  20  21
ENDBRANCH  18  20
ENDBRANCH  17  18
ENDBRANCH   1  17
TORSDOF 5
ENDMDL
MODEL 8
REMARK VINA RESULT:      -7.1      3.855      9.488
REMARK  Name = 
REMARK  5 active torsions:
REMARK  status: ('A' for Active; 'I' for Inactive)
REMARK    1  A    between atoms: C_2  and  C_3
REMARK    2  A    between atoms: C_2  and  C_21
REMARK    3  A    between atoms: C_3  and  C_4
REMARK    4  A    between atoms: C_4  and  C_5
REMARK    5  A    between atoms: N_10  and  C_11
REMARK                            x       y       z     vdW  Elec       q    Type
REMARK                         _______ _______ _______ _____ _____    ______ ____
ROOT
ATOM      1  C   UNL     1       0.035  10.723  19.521  0.00  0.00    +0.000 C 
ATOM      2  O   UNL     1      -0.364  11.220  18.469  0.00  0.00    +0.000 OA
ATOM      3  N   UNL     1       0.838   9.581  19.567  0.00  0.00    +0.000 N 
ATOM      4  C   UNL     1       1.218   8.955  18.302  0.00  0.00    +0.000 C 
ATOM      5  C   UNL     1       2.454   8.037  18.451  0.00  0.00    +0.000 C 
ATOM      6  N   UNL     1       2.390   7.039  19.552  0.00  0.00    +0.000 NA
ATOM      7  C   UNL     1       2.095   7.786  20.790  0.00  0.00    +0.000 C 
ATOM      8  C   UNL     1       0.854   8.691  20.733  0.00  0.00    +0.000 C 
ENDROOT
BRANCH   6   9
ATOM      9  C   UNL     1       1.516   5.864  19.263  0.00  0.00    +0.000 C 
ATOM     10  C   UNL     1       2.187   5.020  18.145  0.00  0.00    +0.000 C 
ATOM     11  C   UNL     1       1.450   3.769  17.657  0.00  0.00    +0.000 C 
ATOM     12  C   UNL     1       1.392   2.525  18.546  0.00  0.00    +0.000 C 
ATOM     13  C   UNL     1       2.610   2.260  19.428  0.00  0.00    +0.000 C 
ATOM     14  C   UNL     1       2.447   2.732  20.875  0.00  0.00    +0.000 C 
ATOM     15  C   UNL     1       2.418   4.246  21.103  0.00  0.00    +0.000 C 
ATOM     16  C   UNL     1       1.209   4.975  20.501  0.00  0.00    +0.000 C 
ENDBRANCH   6   9
BRANCH   1  17
ATOM     17  C   UNL     1      -0.251  11.360  20.865  0.00  0.00    +0.000 C 
BRANCH  17  18
ATOM     18  C   UNL     1      -1.614  12.026  20.954  0.00  0.00    +0.000 C 
BRANCH  18  20
ATOM     19  O   UNL     1      -1.063  12.412  23.269  0.00  0.00    +0.000 OA
ATOM     20  C   UNL     1      -1.936  12.324  22.407  0.00  0.00    +0.000 C 
BRANCH  20  21
ATOM     21  C   UNL     1      -3.358  12.513  22.807  0.00  0.00    +0.000 A 
ATOM     22  C   UNL     1      -4.304  12.789  21.809  0.00  0.00    +0.000 A 
ATOM     23  C   UNL     1      -5.647  12.973  22.141  0.00  0.00    +0.000 A 
ATOM     24  C   UNL     1      -6.045  12.883  23.476  0.00  0.00    +0.000 A 
ATOM     25 CL   UNL     1      -7.699  13.105  23.890  0.00  0.00    +0.000 Cl
ATOM     26  C   UNL     1      -5.113  12.612  24.474  0.00  0.00    +0.000 A 
ATOM     27  C   UNL     1      -3.767  12.426  24.143  0.00  0.00    +0.000 A 
ENDBRANCH  20  21
ENDBRANCH  18  20
ENDBRANCH  17  18
ENDBRANCH   1  17
TORSDOF 5
ENDMDL
MODEL 9
REMARK VINA RESULT:      -7.0      3.690      9.908
REMARK  Name = 
REMARK  5 active torsions:
REMARK  status: ('A' for Active; 'I' for Inactive)
REMARK    1  A    between atoms: C_2  and  C_3
REMARK    2  A    between atoms: C_2  and  C_21
REMARK    3  A    between atoms: C_3  and  C_4
REMARK    4  A    between atoms: C_4  and  C_5
REMARK    5  A    between atoms: N_10  and  C_11
REMARK                            x       y       z     vdW  Elec       q    Type
REMARK                         _______ _______ _______ _____ _____    ______ ____
ROOT
ATOM      1  C   UNL     1       0.806   9.776  19.965  0.00  0.00    +0.000 C 
ATOM      2  O   UNL     1       0.686   9.882  21.185  0.00  0.00    +0.000 OA
ATOM      3  N   UNL     1       1.458   8.703  19.354  0.00  0.00    +0.000 N 
ATOM      4  C   UNL     1       2.018   7.659  20.210  0.00  0.00    +0.000 C 
ATOM      5  C   UNL     1       2.265   6.341  19.441  0.00  0.00    +0.000 C 
ATOM      6  N   UNL     1       3.028   6.466  18.170  0.00  0.00    +0.000 NA
ATOM      7  C   UNL     1       2.326   7.470  17.347  0.00  0.00    +0.000 C 
ATOM      8  C   UNL     1       2.080   8.825  18.031  0.00  0.00    +0.000 C 
ENDROOT
BRANCH   6   9
ATOM      9  C   UNL     1       4.495   6.668  18.353  0.00  0.00    +0.000 C 
ATOM     10  C   UNL     1       5.091   5.378  18.980  0.00  0.00    +0.000 C 
ATOM     11  C   UNL     1       6.591   5.363  19.290  0.00  0.00    +0.000 C 
ATOM     12  C   UNL     1       7.604   5.262  18.148  0.00  0.00    +0.000 C 
ATOM     13  C   UNL     1       7.182   4.436  16.934  0.00  0.00    +0.000 C 
ATOM     14  C   UNL     1       6.648   5.271  15.767  0.00  0.00    +0.000 C 
ATOM     15  C   UNL     1       5.289   5.946  15.974  0.00  0.00    +0.000 C 
ATOM     16  C   UNL     1       5.258   7.039  17.051  0.00  0.00    +0.000 C 
ENDBRANCH   6   9
BRANCH   1  17
ATOM     17  C   UNL     1       0.183  10.775  19.011  0.00  0.00    +0.000 C 
BRANCH  17  18
ATOM     18  C   UNL     1      -1.211  11.226  19.416  0.00  0.00    +0.000 C 
BRANCH  18  20
ATOM     19  O   UNL     1      -1.942   9.977  17.488  0.00  0.00    +0.000 OA
ATOM     20  C   UNL     1      -2.202  10.825  18.340  0.00  0.00    +0.000 C 
BRANCH  20  21
ATOM     21  C   UNL     1      -3.538  11.483  18.308  0.00  0.00    +0.000 A 
ATOM     22  C   UNL     1      -4.273  11.454  17.114  0.00  0.00    +0.000 A 
ATOM     23  C   UNL     1      -5.529  12.057  17.042  0.00  0.00    +0.000 A 
ATOM     24  C   UNL     1      -6.051  12.695  18.168  0.00  0.00    +0.000 A 
ATOM     25 CL   UNL     1      -7.600  13.438  18.086  0.00  0.00    +0.000 Cl
ATOM     26  C   UNL     1      -5.329  12.732  19.358  0.00  0.00    +0.000 A 
ATOM     27  C   UNL     1      -4.072  12.127  19.432  0.00  0.00    +0.000 A 
ENDBRANCH  20  21
ENDBRANCH  18  20
ENDBRANCH  17  18
ENDBRANCH   1  17
TORSDOF 5
ENDMDL
