MODEL 1
REMARK VINA RESULT:      -9.1      0.000      0.000
REMARK  Name = 
REMARK  4 active torsions:
REMARK  status: ('A' for Active; 'I' for Inactive)
REMARK    1  A    between atoms: C_1  and  C_2
REMARK    2  A    between atoms: C_6  and  C_7
REMARK    3  A    between atoms: C_10  and  C_11
REMARK    4  A    between atoms: C_21  and  C_22
REMARK                            x       y       z     vdW  Elec       q    Type
REMARK                         _______ _______ _______ _____ _____    ______ ____
ROOT
ATOM      1  C   UNL     1       1.724   2.234  21.803  0.00  0.00    +0.000 C 
ATOM      2  C   UNL     1       1.837   3.220  20.675  0.00  0.00    +0.000 A 
ATOM      3  C   UNL     1       1.497   4.560  20.910  0.00  0.00    +0.000 A 
ATOM      4  C   UNL     1       1.697   5.533  19.924  0.00  0.00    +0.000 A 
ATOM      5  C   UNL     1       2.209   5.185  18.674  0.00  0.00    +0.000 A 
ATOM      6  C   UNL     1       2.510   3.813  18.387  0.00  0.00    +0.000 A 
ATOM      7  C   UNL     1       3.098   3.373  17.068  0.00  0.00    +0.000 C 
ATOM      8  C   UNL     1       2.330   2.856  19.411  0.00  0.00    +0.000 A 
ATOM      9 CL   UNL     1       2.769   1.197  19.131  0.00  0.00    +0.000 Cl
ATOM     10  C   UNL     1       2.603   6.312  17.722  0.00  0.00    +0.000 C 
ATOM     11  C   UNL     1       1.921   7.622  18.067  0.00  0.00    +0.000 C 
ATOM     12  C   UNL     1       2.050   7.858  19.561  0.00  0.00    +0.000 C 
ATOM     13  O   UNL     1       1.382   6.816  20.302  0.00  0.00    +0.000 OA
ENDROOT
BRANCH  10  14
ATOM     14  C   UNL     1       4.134   6.437  17.640  0.00  0.00    +0.000 A 
ATOM     15  C   UNL     1       4.967   6.040  18.729  0.00  0.00    +0.000 A 
ATOM     16  C   UNL     1       6.265   5.592  18.515  0.00  0.00    +0.000 A 
ATOM     17  C   UNL     1       6.684   5.558  17.207  0.00  0.00    +0.000 A 
ATOM     18  C   UNL     1       5.943   6.112  16.178  0.00  0.00    +0.000 A 
ATOM     19  C   UNL     1       4.691   6.633  16.372  0.00  0.00    +0.000 A 
ATOM     20  O   UNL     1       6.481   5.829  14.953  0.00  0.00    +0.000 OA
ATOM     21  C   UNL     1       7.309   4.718  15.348  0.00  0.00    +0.000 C 
ATOM     22  O   UNL     1       7.736   4.830  16.722  0.00  0.00    +0.000 OA
ENDBRANCH  10  14
BRANCH  12  23
ATOM     23  C   UNL     1       1.482   9.215  19.925  0.00  0.00    +0.000 A 
ATOM     24  C   UNL     1       1.022   9.506  21.217  0.00  0.00    +0.000 A 
ATOM     25  C   UNL     1       0.496  10.763  21.515  0.00  0.00    +0.000 A 
ATOM     26  C   UNL     1       0.414  11.742  20.526  0.00  0.00    +0.000 A 
ATOM     27  C   UNL     1       0.845  11.461  19.231  0.00  0.00    +0.000 A 
ATOM     28  C   UNL     1       1.371  10.204  18.932  0.00  0.00    +0.000 A 
ENDBRANCH  12  23
TORSDOF 2
ENDMDL
MODEL 2
REMARK VINA RESULT:      -7.1      2.343      5.050
REMARK  Name = 
REMARK  4 active torsions:
REMARK  status: ('A' for Active; 'I' for Inactive)
REMARK    1  A    between atoms: C_1  and  C_2
REMARK    2  A    between atoms: C_6  and  C_7
REMARK    3  A    between atoms: C_10  and  C_11
REMARK    4  A    between atoms: C_21  and  C_22
REMARK                            x       y       z     vdW  Elec       q    Type
REMARK                         _______ _______ _______ _____ _____    ______ ____
ROOT
ATOM      1  C   UNL     1       5.844   6.001  14.582  0.00  0.00    +0.000 C 
ATOM      2  C   UNL     1       5.233   6.266  15.928  0.00  0.00    +0.000 A 
ATOM      3  C   UNL     1       4.296   7.302  16.055  0.00  0.00    +0.000 A 
ATOM      4  C   UNL     1       3.616   7.508  17.260  0.00  0.00    +0.000 A 
ATOM      5  C   UNL     1       3.878   6.708  18.373  0.00  0.00    +0.000 A 
ATOM      6  C   UNL     1       4.873   5.679  18.288  0.00  0.00    +0.000 A 
ATOM      7  C   UNL     1       5.183   4.756  19.442  0.00  0.00    +0.000 C 
ATOM      8  C   UNL     1       5.522   5.471  17.050  0.00  0.00    +0.000 A 
ATOM      9 CL   UNL     1       6.670   4.175  16.882  0.00  0.00    +0.000 Cl
ATOM     10  C   UNL     1       2.958   6.840  19.584  0.00  0.00    +0.000 C 
ATOM     11  C   UNL     1       2.212   8.161  19.599  0.00  0.00    +0.000 C 
ATOM     12  C   UNL     1       1.631   8.405  18.218  0.00  0.00    +0.000 C 
ATOM     13  O   UNL     1       2.679   8.513  17.234  0.00  0.00    +0.000 OA
ENDROOT
BRANCH  10  14
ATOM     14  C   UNL     1       2.024   5.623  19.687  0.00  0.00    +0.000 A 
ATOM     15  C   UNL     1       1.699   4.841  18.537  0.00  0.00    +0.000 A 
ATOM     16  C   UNL     1       1.383   3.493  18.650  0.00  0.00    +0.000 A 
ATOM     17  C   UNL     1       1.405   2.973  19.922  0.00  0.00    +0.000 A 
ATOM     18  C   UNL     1       1.540   3.769  21.045  0.00  0.00    +0.000 A 
ATOM     19  C   UNL     1       1.775   5.116  20.966  0.00  0.00    +0.000 A 
ATOM     20  O   UNL     1       1.686   3.024  22.183  0.00  0.00    +0.000 OA
ATOM     21  C   UNL     1       2.065   1.780  21.563  0.00  0.00    +0.000 C 
ATOM     22  O   UNL     1       1.500   1.645  20.241  0.00  0.00    +0.000 OA
ENDBRANCH  10  14
BRANCH  12  23
ATOM     23  C   UNL     1       0.779   9.659  18.226  0.00  0.00    +0.000 A 
ATOM     24  C   UNL     1       1.283  10.897  18.648  0.00  0.00    +0.000 A 
ATOM     25  C   UNL     1       0.467  12.029  18.651  0.00  0.00    +0.000 A 
ATOM     26  C   UNL     1      -0.862  11.937  18.241  0.00  0.00    +0.000 A 
ATOM     27  C   UNL     1      -1.384  10.709  17.841  0.00  0.00    +0.000 A 
ATOM     28  C   UNL     1      -0.570   9.577  17.838  0.00  0.00    +0.000 A 
ENDBRANCH  12  23
TORSDOF 2
ENDMDL
MODEL 3
REMARK VINA RESULT:      -7.1      5.870     10.571
REMARK  Name = 
REMARK  4 active torsions:
REMARK  status: ('A' for Active; 'I' for Inactive)
REMARK    1  A    between atoms: C_1  and  C_2
REMARK    2  A    between atoms: C_6  and  C_7
REMARK    3  A    between atoms: C_10  and  C_11
REMARK    4  A    between atoms: C_21  and  C_22
REMARK                            x       y       z     vdW  Elec       q    Type
REMARK                         _______ _______ _______ _____ _____    ______ ____
ROOT
ATOM      1  C   UNL     1       1.070   9.176  19.388  0.00  0.00    +0.000 C 
ATOM      2  C   UNL     1       0.627  10.457  20.036  0.00  0.00    +0.000 A 
ATOM      3  C   UNL     1       0.840  11.667  19.361  0.00  0.00    +0.000 A 
ATOM      4  C   UNL     1       0.341  12.870  19.872  0.00  0.00    +0.000 A 
ATOM      5  C   UNL     1      -0.352  12.897  21.083  0.00  0.00    +0.000 A 
ATOM      6  C   UNL     1      -0.533  11.683  21.824  0.00  0.00    +0.000 A 
ATOM      7  C   UNL     1      -1.301  11.634  23.122  0.00  0.00    +0.000 C 
ATOM      8  C   UNL     1      -0.048  10.477  21.268  0.00  0.00    +0.000 A 
ATOM      9 CL   UNL     1      -0.326   8.971  22.093  0.00  0.00    +0.000 Cl
ATOM     10  C   UNL     1      -1.053  14.193  21.479  0.00  0.00    +0.000 C 
ATOM     11  C   UNL     1      -0.482  15.400  20.758  0.00  0.00    +0.000 C 
ATOM     12  C   UNL     1      -0.354  15.068  19.283  0.00  0.00    +0.000 C 
ATOM     13  O   UNL     1       0.563  13.973  19.083  0.00  0.00    +0.000 OA
ENDROOT
BRANCH  10  14
ATOM     14  C   UNL     1      -2.576  14.057  21.307  0.00  0.00    +0.000 A 
ATOM     15  C   UNL     1      -3.135  13.099  20.409  0.00  0.00    +0.000 A 
ATOM     16  C   UNL     1      -4.391  12.550  20.636  0.00  0.00    +0.000 A 
ATOM     17  C   UNL     1      -5.046  12.984  21.763  0.00  0.00    +0.000 A 
ATOM     18  C   UNL     1      -4.583  14.040  22.527  0.00  0.00    +0.000 A 
ATOM     19  C   UNL     1      -3.383  14.654  22.281  0.00  0.00    +0.000 A 
ATOM     20  O   UNL     1      -5.309  14.196  23.675  0.00  0.00    +0.000 OA
ATOM     21  C   UNL     1      -5.916  12.889  23.708  0.00  0.00    +0.000 C 
ATOM     22  O   UNL     1      -6.083  12.342  22.383  0.00  0.00    +0.000 OA
ENDBRANCH  10  14
BRANCH  12  23
ATOM     23  C   UNL     1       0.103  16.290  18.511  0.00  0.00    +0.000 A 
ATOM     24  C   UNL     1      -0.801  17.251  18.037  0.00  0.00    +0.000 A 
ATOM     25  C   UNL     1      -0.346  18.359  17.323  0.00  0.00    +0.000 A 
ATOM     26  C   UNL     1       1.014  18.517  17.063  0.00  0.00    +0.000 A 
ATOM     27  C   UNL     1       1.923  17.558  17.507  0.00  0.00    +0.000 A 
ATOM     28  C   UNL     1       1.470  16.450  18.222  0.00  0.00    +0.000 A 
ENDBRANCH  12  23
TORSDOF 2
ENDMDL
MODEL 4
REMARK VINA RESULT:      -7.0      4.375      8.300
REMARK  Name = 
REMARK  4 active torsions:
REMARK  status: ('A' for Active; 'I' for Inactive)
REMARK    1  A    between atoms: C_1  and  C_2
REMARK    2  A    between atoms: C_6  and  C_7
REMARK    3  A    between atoms: C_10  and  C_11
REMARK    4  A    between atoms: C_21  and  C_22
REMARK                            x       y       z     vdW  Elec       q    Type
REMARK                         _______ _______ _______ _____ _____    ______ ____
ROOT
ATOM      1  C   UNL     1      -4.005  10.734  14.962  0.00  0.00    +0.000 C 
ATOM      2  C   UNL     1      -3.305  10.684  16.290  0.00  0.00    +0.000 A 
ATOM      3  C   UNL     1      -2.161   9.884  16.425  0.00  0.00    +0.000 A 
ATOM      4  C   UNL     1      -1.413   9.898  17.607  0.00  0.00    +0.000 A 
ATOM      5  C   UNL     1      -1.806  10.684  18.690  0.00  0.00    +0.000 A 
ATOM      6  C   UNL     1      -3.004  11.467  18.601  0.00  0.00    +0.000 A 
ATOM      7  C   UNL     1      -3.469  12.365  19.722  0.00  0.00    +0.000 C 
ATOM      8  C   UNL     1      -3.723  11.460  17.384  0.00  0.00    +0.000 A 
ATOM      9 CL   UNL     1      -5.131  12.466  17.207  0.00  0.00    +0.000 Cl
ATOM     10  C   UNL     1      -0.840  10.822  19.864  0.00  0.00    +0.000 C 
ATOM     11  C   UNL     1       0.176   9.697  19.908  0.00  0.00    +0.000 C 
ATOM     12  C   UNL     1       0.751   9.506  18.517  0.00  0.00    +0.000 C 
ATOM     13  O   UNL     1      -0.281   9.119  17.586  0.00  0.00    +0.000 OA
ENDROOT
BRANCH  10  14
ATOM     14  C   UNL     1      -0.190  12.217  19.866  0.00  0.00    +0.000 A 
ATOM     15  C   UNL     1       0.146  12.872  21.089  0.00  0.00    +0.000 A 
ATOM     16  C   UNL     1       1.196  13.781  21.152  0.00  0.00    +0.000 A 
ATOM     17  C   UNL     1       1.876  13.999  19.979  0.00  0.00    +0.000 A 
ATOM     18  C   UNL     1       1.435  13.505  18.765  0.00  0.00    +0.000 A 
ATOM     19  C   UNL     1       0.355  12.668  18.660  0.00  0.00    +0.000 A 
ATOM     20  O   UNL     1       2.345  13.719  17.766  0.00  0.00    +0.000 OA
ATOM     21  C   UNL     1       3.498  13.967  18.594  0.00  0.00    +0.000 C 
ATOM     22  O   UNL     1       3.131  14.534  19.870  0.00  0.00    +0.000 OA
ENDBRANCH  10  14
BRANCH  12  23
ATOM     23  C   UNL     1       1.855   8.468  18.546  0.00  0.00    +0.000 A 
ATOM     24  C   UNL     1       2.783   8.341  17.503  0.00  0.00    +0.000 A 
ATOM     25  C   UNL     1       3.781   7.368  17.559  0.00  0.00    +0.000 A 
ATOM     26  C   UNL     1       3.860   6.505  18.651  0.00  0.00    +0.000 A 
ATOM     27  C   UNL     1       2.931   6.604  19.685  0.00  0.00    +0.000 A 
ATOM     28  C   UNL     1       1.933   7.576  19.630  0.00  0.00    +0.000 A 
ENDBRANCH  12  23
TORSDOF 2
ENDMDL
MODEL 5
REMARK VINA RESULT:      -6.9      4.905      9.271
REMARK  Name = 
REMARK  4 active torsions:
REMARK  status: ('A' for Active; 'I' for Inactive)
REMARK    1  A    between atoms: C_1  and  C_2
REMARK    2  A    between atoms: C_6  and  C_7
REMARK    3  A    between atoms: C_10  and  C_11
REMARK    4  A    between atoms: C_21  and  C_22
REMARK                            x       y       z     vdW  Elec       q    Type
REMARK                         _______ _______ _______ _____ _____    ______ ____
ROOT
ATOM      1  C   UNL     1       1.870   8.280  17.938  0.00  0.00    +0.000 C 
ATOM      2  C   UNL     1       1.541   9.325  18.966  0.00  0.00    +0.000 A 
ATOM      3  C   UNL     1       1.492  10.670  18.574  0.00  0.00    +0.000 A 
ATOM      4  C   UNL     1       1.077  11.663  19.469  0.00  0.00    +0.000 A 
ATOM      5  C   UNL     1       0.732  11.339  20.782  0.00  0.00    +0.000 A 
ATOM      6  C   UNL     1       0.828   9.980  21.226  0.00  0.00    +0.000 A 
ATOM      7  C   UNL     1       0.439   9.555  22.621  0.00  0.00    +0.000 C 
ATOM      8  C   UNL     1       1.219   8.993  20.293  0.00  0.00    +0.000 A 
ATOM      9 CL   UNL     1       1.262   7.320  20.770  0.00  0.00    +0.000 Cl
ATOM     10  C   UNL     1       0.086  12.423  21.641  0.00  0.00    +0.000 C 
ATOM     11  C   UNL     1       0.370  13.818  21.118  0.00  0.00    +0.000 C 
ATOM     12  C   UNL     1       0.119  13.835  19.621  0.00  0.00    +0.000 C 
ATOM     13  O   UNL     1       1.013  12.930  18.942  0.00  0.00    +0.000 OA
ENDROOT
BRANCH  10  14
ATOM     14  C   UNL     1      -1.416  12.145  21.820  0.00  0.00    +0.000 A 
ATOM     15  C   UNL     1      -2.005  12.076  23.119  0.00  0.00    +0.000 A 
ATOM     16  C   UNL     1      -3.339  12.407  23.322  0.00  0.00    +0.000 A 
ATOM     17  C   UNL     1      -4.040  12.799  22.208  0.00  0.00    +0.000 A 
ATOM     18  C   UNL     1      -3.520  12.690  20.930  0.00  0.00    +0.000 A 
ATOM     19  C   UNL     1      -2.231  12.291  20.693  0.00  0.00    +0.000 A 
ATOM     20  O   UNL     1      -4.331  13.277  19.998  0.00  0.00    +0.000 OA
ATOM     21  C   UNL     1      -5.106  14.098  20.893  0.00  0.00    +0.000 C 
ATOM     22  O   UNL     1      -5.210  13.509  22.207  0.00  0.00    +0.000 OA
ENDBRANCH  10  14
BRANCH  12  23
ATOM     23  C   UNL     1       0.280  15.243  19.082  0.00  0.00    +0.000 A 
ATOM     24  C   UNL     1       1.524  15.748  18.680  0.00  0.00    +0.000 A 
ATOM     25  C   UNL     1       1.636  17.052  18.197  0.00  0.00    +0.000 A 
ATOM     26  C   UNL     1       0.511  17.870  18.118  0.00  0.00    +0.000 A 
ATOM     27  C   UNL     1      -0.728  17.391  18.535  0.00  0.00    +0.000 A 
ATOM     28  C   UNL     1      -0.843  16.088  19.018  0.00  0.00    +0.000 A 
ENDBRANCH  12  23
TORSDOF 2
ENDMDL
MODEL 6
REMARK VINA RESULT:      -6.9      4.371      8.874
REMARK  Name = 
REMARK  4 active torsions:
REMARK  status: ('A' for Active; 'I' for Inactive)
REMARK    1  A    between atoms: C_1  and  C_2
REMARK    2  A    between atoms: C_6  and  C_7
REMARK    3  A    between atoms: C_10  and  C_11
REMARK    4  A    between atoms: C_21  and  C_22
REMARK                            x       y       z     vdW  Elec       q    Type
REMARK                         _______ _______ _______ _____ _____    ______ ____
ROOT
ATOM      1  C   UNL     1      -3.812  10.739  15.418  0.00  0.00    +0.000 C 
ATOM      2  C   UNL     1      -3.005  10.648  16.681  0.00  0.00    +0.000 A 
ATOM      3  C   UNL     1      -1.889   9.799  16.712  0.00  0.00    +0.000 A 
ATOM      4  C   UNL     1      -1.041   9.771  17.826  0.00  0.00    +0.000 A 
ATOM      5  C   UNL     1      -1.307  10.563  18.943  0.00  0.00    +0.000 A 
ATOM      6  C   UNL     1      -2.473  11.397  18.962  0.00  0.00    +0.000 A 
ATOM      7  C   UNL     1      -2.801  12.303  20.123  0.00  0.00    +0.000 C 
ATOM      8  C   UNL     1      -3.294  11.431  17.812  0.00  0.00    +0.000 A 
ATOM      9 CL   UNL     1      -4.668  12.497  17.761  0.00  0.00    +0.000 Cl
ATOM     10  C   UNL     1      -0.238  10.650  20.030  0.00  0.00    +0.000 C 
ATOM     11  C   UNL     1       0.729   9.482  19.981  0.00  0.00    +0.000 C 
ATOM     12  C   UNL     1       1.173   9.281  18.544  0.00  0.00    +0.000 C 
ATOM     13  O   UNL     1       0.050   8.945  17.704  0.00  0.00    +0.000 OA
ENDROOT
BRANCH  10  14
ATOM     14  C   UNL     1       0.468  12.016  19.984  0.00  0.00    +0.000 A 
ATOM     15  C   UNL     1       0.478  12.803  18.793  0.00  0.00    +0.000 A 
ATOM     16  C   UNL     1       0.560  14.189  18.849  0.00  0.00    +0.000 A 
ATOM     17  C   UNL     1       0.629  14.740  20.105  0.00  0.00    +0.000 A 
ATOM     18  C   UNL     1       0.803  13.971  21.242  0.00  0.00    +0.000 A 
ATOM     19  C   UNL     1       0.804  12.601  21.209  0.00  0.00    +0.000 A 
ATOM     20  O   UNL     1       0.693  14.716  22.383  0.00  0.00    +0.000 OA
ATOM     21  C   UNL     1       0.011  15.852  21.817  0.00  0.00    +0.000 C 
ATOM     22  O   UNL     1       0.345  16.039  20.426  0.00  0.00    +0.000 OA
ENDBRANCH  10  14
BRANCH  12  23
ATOM     23  C   UNL     1       2.231   8.197  18.472  0.00  0.00    +0.000 A 
ATOM     24  C   UNL     1       3.168   8.140  17.431  0.00  0.00    +0.000 A 
ATOM     25  C   UNL     1       4.122   7.123  17.393  0.00  0.00    +0.000 A 
ATOM     26  C   UNL     1       4.146   6.145  18.386  0.00  0.00    +0.000 A 
ATOM     27  C   UNL     1       3.207   6.174  19.414  0.00  0.00    +0.000 A 
ATOM     28  C   UNL     1       2.253   7.191  19.455  0.00  0.00    +0.000 A 
ENDBRANCH  12  23
TORSDOF 2
ENDMDL
MODEL 7
REMARK VINA RESULT:      -6.9      6.095     10.690
REMARK  Name = 
REMARK  4 active torsions:
REMARK  status: ('A' for Active; 'I' for Inactive)
REMARK    1  A    between atoms: C_1  and  C_2
REMARK    2  A    between atoms: C_6  and  C_7
REMARK    3  A    between atoms: C_10  and  C_11
REMARK    4  A    between atoms: C_21  and  C_22
REMARK                            x       y       z     vdW  Elec       q    Type
REMARK                         _______ _______ _______ _____ _____    ______ ____
ROOT
ATOM      1  C   UNL     1       1.098   9.196  20.490  0.00  0.00    +0.000 C 
ATOM      2  C   UNL     1       0.530  10.523  20.910  0.00  0.00    +0.000 A 
ATOM      3  C   UNL     1       0.817  11.657  20.137  0.00  0.00    +0.000 A 
ATOM      4  C   UNL     1       0.216  12.889  20.423  0.00  0.00    +0.000 A 
ATOM      5  C   UNL     1      -0.657  13.022  21.503  0.00  0.00    +0.000 A 
ATOM      6  C   UNL     1      -0.923  11.892  22.345  0.00  0.00    +0.000 A 
ATOM      7  C   UNL     1      -1.882  11.957  23.508  0.00  0.00    +0.000 C 
ATOM      8  C   UNL     1      -0.329  10.652  22.014  0.00  0.00    +0.000 A 
ATOM      9 CL   UNL     1      -0.697   9.238  22.957  0.00  0.00    +0.000 Cl
ATOM     10  C   UNL     1      -1.442  14.324  21.634  0.00  0.00    +0.000 C 
ATOM     11  C   UNL     1      -0.794  15.465  20.873  0.00  0.00    +0.000 C 
ATOM     12  C   UNL     1      -0.431  14.976  19.483  0.00  0.00    +0.000 C 
ATOM     13  O   UNL     1       0.532  13.904  19.554  0.00  0.00    +0.000 OA
ENDROOT
BRANCH  10  14
ATOM     14  C   UNL     1      -2.915  14.108  21.250  0.00  0.00    +0.000 A 
ATOM     15  C   UNL     1      -3.291  13.119  20.292  0.00  0.00    +0.000 A 
ATOM     16  C   UNL     1      -4.537  12.504  20.344  0.00  0.00    +0.000 A 
ATOM     17  C   UNL     1      -5.366  12.906  21.363  0.00  0.00    +0.000 A 
ATOM     18  C   UNL     1      -5.071  13.987  22.174  0.00  0.00    +0.000 A 
ATOM     19  C   UNL     1      -3.882  14.663  22.094  0.00  0.00    +0.000 A 
ATOM     20  O   UNL     1      -5.960  14.107  23.206  0.00  0.00    +0.000 OA
ATOM     21  C   UNL     1      -6.497  12.770  23.166  0.00  0.00    +0.000 C 
ATOM     22  O   UNL     1      -6.445  12.211  21.836  0.00  0.00    +0.000 OA
ENDBRANCH  10  14
BRANCH  12  23
ATOM     23  C   UNL     1       0.112  16.122  18.652  0.00  0.00    +0.000 A 
ATOM     24  C   UNL     1       1.481  16.262  18.383  0.00  0.00    +0.000 A 
ATOM     25  C   UNL     1       1.946  17.335  17.622  0.00  0.00    +0.000 A 
ATOM     26  C   UNL     1       1.054  18.286  17.130  0.00  0.00    +0.000 A 
ATOM     27  C   UNL     1      -0.306  18.174  17.408  0.00  0.00    +0.000 A 
ATOM     28  C   UNL     1      -0.774  17.102  18.168  0.00  0.00    +0.000 A 
ENDBRANCH  12  23
TORSDOF 2
ENDMDL
MODEL 8
REMARK VINA RESULT:      -6.8      1.241      1.603
REMARK  Name = 
REMARK  4 active torsions:
REMARK  status: ('A' for Active; 'I' for Inactive)
REMARK    1  A    between atoms: C_1  and  C_2
REMARK    2  A    between atoms: C_6  and  C_7
REMARK    3  A    between atoms: C_10  and  C_11
REMARK    4  A    between atoms: C_21  and  C_22
REMARK                            x       y       z     vdW  Elec       q    Type
REMARK                         _______ _______ _______ _____ _____    ______ ____
ROOT
ATOM      1  C   UNL     1       1.944   2.200  21.997  0.00  0.00    +0.000 C 
ATOM      2  C   UNL     1       1.978   3.083  20.782  0.00  0.00    +0.000 A 
ATOM      3  C   UNL     1       1.717   4.453  20.932  0.00  0.00    +0.000 A 
ATOM      4  C   UNL     1       1.852   5.330  19.850  0.00  0.00    +0.000 A 
ATOM      5  C   UNL     1       2.216   4.856  18.590  0.00  0.00    +0.000 A 
ATOM      6  C   UNL     1       2.432   3.452  18.394  0.00  0.00    +0.000 A 
ATOM      7  C   UNL     1       2.862   2.877  17.067  0.00  0.00    +0.000 C 
ATOM      8  C   UNL     1       2.322   2.593  19.511  0.00  0.00    +0.000 A 
ATOM      9 CL   UNL     1       2.663   0.896  19.334  0.00  0.00    +0.000 Cl
ATOM     10  C   UNL     1       2.554   5.880  17.509  0.00  0.00    +0.000 C 
ATOM     11  C   UNL     1       1.964   7.246  17.806  0.00  0.00    +0.000 C 
ATOM     12  C   UNL     1       2.257   7.597  19.253  0.00  0.00    +0.000 C 
ATOM     13  O   UNL     1       1.629   6.653  20.145  0.00  0.00    +0.000 OA
ENDROOT
BRANCH  10  14
ATOM     14  C   UNL     1       4.072   5.924  17.263  0.00  0.00    +0.000 A 
ATOM     15  C   UNL     1       4.704   7.098  16.752  0.00  0.00    +0.000 A 
ATOM     16  C   UNL     1       6.028   7.391  17.054  0.00  0.00    +0.000 A 
ATOM     17  C   UNL     1       6.676   6.491  17.865  0.00  0.00    +0.000 A 
ATOM     18  C   UNL     1       6.121   5.271  18.207  0.00  0.00    +0.000 A 
ATOM     19  C   UNL     1       4.844   4.920  17.857  0.00  0.00    +0.000 A 
ATOM     20  O   UNL     1       6.876   4.610  19.137  0.00  0.00    +0.000 OA
ATOM     21  C   UNL     1       7.643   5.735  19.610  0.00  0.00    +0.000 C 
ATOM     22  O   UNL     1       7.813   6.737  18.585  0.00  0.00    +0.000 OA
ENDBRANCH  10  14
BRANCH  12  23
ATOM     23  C   UNL     1       1.784   9.006  19.553  0.00  0.00    +0.000 A 
ATOM     24  C   UNL     1       1.245   9.360  20.798  0.00  0.00    +0.000 A 
ATOM     25  C   UNL     1       0.811  10.664  21.036  0.00  0.00    +0.000 A 
ATOM     26  C   UNL     1       0.900  11.627  20.033  0.00  0.00    +0.000 A 
ATOM     27  C   UNL     1       1.411  11.286  18.783  0.00  0.00    +0.000 A 
ATOM     28  C   UNL     1       1.846   9.982  18.543  0.00  0.00    +0.000 A 
ENDBRANCH  12  23
TORSDOF 2
ENDMDL
MODEL 9
REMARK VINA RESULT:      -6.6      4.596      8.593
REMARK  Name = 
REMARK  4 active torsions:
REMARK  status: ('A' for Active; 'I' for Inactive)
REMARK    1  A    between atoms: C_1  and  C_2
REMARK    2  A    between atoms: C_6  and  C_7
REMARK    3  A    between atoms: C_10  and  C_11
REMARK    4  A    between atoms: C_21  and  C_22
REMARK                            x       y       z     vdW  Elec       q    Type
REMARK                         _______ _______ _______ _____ _____    ______ ____
ROOT
ATOM      1  C   UNL     1      -4.908  11.508  16.865  0.00  0.00    +0.000 C 
ATOM      2  C   UNL     1      -3.874  11.462  17.954  0.00  0.00    +0.000 A 
ATOM      3  C   UNL     1      -2.794  10.576  17.826  0.00  0.00    +0.000 A 
ATOM      4  C   UNL     1      -1.749  10.582  18.757  0.00  0.00    +0.000 A 
ATOM      5  C   UNL     1      -1.774  11.447  19.850  0.00  0.00    +0.000 A 
ATOM      6  C   UNL     1      -2.894  12.323  20.037  0.00  0.00    +0.000 A 
ATOM      7  C   UNL     1      -2.969  13.308  21.178  0.00  0.00    +0.000 C 
ATOM      8  C   UNL     1      -3.920  12.320  19.065  0.00  0.00    +0.000 A 
ATOM      9 CL   UNL     1      -5.251  13.431  19.209  0.00  0.00    +0.000 Cl
ATOM     10  C   UNL     1      -0.514  11.559  20.705  0.00  0.00    +0.000 C 
ATOM     11  C   UNL     1       0.396  10.355  20.548  0.00  0.00    +0.000 C 
ATOM     12  C   UNL     1       0.550  10.053  19.068  0.00  0.00    +0.000 C 
ATOM     13  O   UNL     1      -0.723   9.710  18.482  0.00  0.00    +0.000 OA
ENDROOT
BRANCH  10  14
ATOM     14  C   UNL     1       0.204  12.892  20.436  0.00  0.00    +0.000 A 
ATOM     15  C   UNL     1       0.755  13.663  21.504  0.00  0.00    +0.000 A 
ATOM     16  C   UNL     1       1.850  14.493  21.301  0.00  0.00    +0.000 A 
ATOM     17  C   UNL     1       2.358  14.520  20.025  0.00  0.00    +0.000 A 
ATOM     18  C   UNL     1       1.715  13.918  18.959  0.00  0.00    +0.000 A 
ATOM     19  C   UNL     1       0.587  13.156  19.117  0.00  0.00    +0.000 A 
ATOM     20  O   UNL     1       2.475  13.945  17.823  0.00  0.00    +0.000 OA
ATOM     21  C   UNL     1       3.751  14.205  18.440  0.00  0.00    +0.000 C 
ATOM     22  O   UNL     1       3.610  14.945  19.672  0.00  0.00    +0.000 OA
ENDBRANCH  10  14
BRANCH  12  23
ATOM     23  C   UNL     1       1.546   8.929  18.867  0.00  0.00    +0.000 A 
ATOM     24  C   UNL     1       2.329   8.828  17.708  0.00  0.00    +0.000 A 
ATOM     25  C   UNL     1       3.230   7.774  17.552  0.00  0.00    +0.000 A 
ATOM     26  C   UNL     1       3.354   6.804  18.545  0.00  0.00    +0.000 A 
ATOM     27  C   UNL     1       2.566   6.877  19.692  0.00  0.00    +0.000 A 
ATOM     28  C   UNL     1       1.665   7.930  19.849  0.00  0.00    +0.000 A 
ENDBRANCH  12  23
TORSDOF 2
ENDMDL
