MODEL 1
REMARK VINA RESULT:      -7.4      0.000      0.000
REMARK  Name = 
REMARK  13 active torsions:
REMARK  status: ('A' for Active; 'I' for Inactive)
REMARK    1  A    between atoms: C_1  and  C_2
REMARK    2  A    between atoms: C_2  and  O_3
REMARK    3  A    between atoms: O_3  and  C_4
REMARK    4  A    between atoms: C_4  and  C_6
REMARK    5  A    between atoms: C_6  and  C_7
REMARK    6  A    between atoms: C_7  and  C_8
REMARK    7  A    between atoms: C_8  and  C_9
REMARK    8  A    between atoms: C_9  and  C_10
REMARK    9  A    between atoms: C_10  and  C_12
REMARK   10  A    between atoms: C_14  and  O_15
REMARK   11  A    between atoms: C_17  and  C_18
REMARK   12  A    between atoms: C_18  and  S_19
REMARK   13  A    between atoms: S_19  and  C_20
REMARK                            x       y       z     vdW  Elec       q    Type
REMARK                         _______ _______ _______ _____ _____    ______ ____
ROOT
ATOM      1  C   UNL     1       6.089   4.970  17.431  0.00  0.00    +0.000 A 
ATOM      2  N   UNL     1       6.063   3.932  16.519  0.00  0.00    +0.000 N 
ATOM      3  C   UNL     1       6.621   4.381  15.353  0.00  0.00    +0.000 A 
ATOM      4  N   UNL     1       7.021   5.620  15.457  0.00  0.00    +0.000 NA
ATOM      5  C   UNL     1       6.650   6.033  16.726  0.00  0.00    +0.000 A 
ATOM      6  H   UNL     1       5.695   3.005  16.676  0.00  0.00    +0.000 HD
ENDROOT
BRANCH   1   7
ATOM      7  C   UNL     1       5.632   4.958  18.807  0.00  0.00    +0.000 C 
ATOM      8  O   UNL     1       6.369   4.690  19.757  0.00  0.00    +0.000 OA
BRANCH   7   9
ATOM      9  C   UNL     1       4.170   5.198  19.089  0.00  0.00    +0.000 C 
BRANCH   9  10
ATOM     10  C   UNL     1       3.400   5.364  17.780  0.00  0.00    +0.000 C 
BRANCH  10  11
ATOM     11  C   UNL     1       2.601   4.101  17.473  0.00  0.00    +0.000 C 
BRANCH  11  12
ATOM     12  C   UNL     1       1.265   4.052  18.217  0.00  0.00    +0.000 C 
BRANCH  12  13
ATOM     13  C   UNL     1       1.042   2.661  18.781  0.00  0.00    +0.000 C 
ATOM     14  O   UNL     1       0.196   1.880  18.376  0.00  0.00    +0.000 OA
BRANCH  13  15
ATOM     15  O   UNL     1       1.947   2.357  19.749  0.00  0.00    +0.000 OA
BRANCH  15  17
ATOM     16  C   UNL     1       2.287   3.650  21.784  0.00  0.00    +0.000 C 
ATOM     17  C   UNL     1       1.474   2.566  21.096  0.00  0.00    +0.000 C 
ENDBRANCH  15  17
ENDBRANCH  13  15
ENDBRANCH  12  13
ENDBRANCH  11  12
ENDBRANCH  10  11
ENDBRANCH   9  10
ENDBRANCH   7   9
ENDBRANCH   1   7
BRANCH   3  18
ATOM     18  O   UNL     1       6.744   3.673  14.243  0.00  0.00    +0.000 OA
ATOM     19  H   UNL     1       6.154   2.907  14.262  0.00  0.00    +0.000 HD
ENDBRANCH   3  18
BRANCH   5  20
ATOM     20  C   UNL     1       6.932   7.425  17.218  0.00  0.00    +0.000 C 
BRANCH  20  21
ATOM     21  S   UNL     1       8.250   7.577  18.502  0.00  0.00    +0.000 S 
BRANCH  21  22
ATOM     22  C   UNL     1       8.652   9.265  18.591  0.00  0.00    +0.000 A 
ATOM     23  N   UNL     1       8.295  10.184  17.744  0.00  0.00    +0.000 NA
ATOM     24  C   UNL     1       8.895  11.330  18.173  0.00  0.00    +0.000 A 
ATOM     25  C   UNL     1       8.953  12.562  17.540  0.00  0.00    +0.000 A 
ATOM     26  C   UNL     1       9.820  13.523  18.035  0.00  0.00    +0.000 A 
ATOM     27  C   UNL     1      10.033  13.550  19.392  0.00  0.00    +0.000 A 
ATOM     28  C   UNL     1      10.203  12.294  20.009  0.00  0.00    +0.000 A 
ATOM     29  C   UNL     1       9.595  11.162  19.382  0.00  0.00    +0.000 A 
ATOM     30  N   UNL     1       9.458   9.793  19.590  0.00  0.00    +0.000 N 
ATOM     31  H   UNL     1       9.880   9.223  20.322  0.00  0.00    +0.000 HD
ENDBRANCH  21  22
ENDBRANCH  20  21
ENDBRANCH   5  20
TORSDOF 12
ENDMDL
MODEL 2
REMARK VINA RESULT:      -7.2      4.926      7.674
REMARK  Name = 
REMARK  13 active torsions:
REMARK  status: ('A' for Active; 'I' for Inactive)
REMARK    1  A    between atoms: C_1  and  C_2
REMARK    2  A    between atoms: C_2  and  O_3
REMARK    3  A    between atoms: O_3  and  C_4
REMARK    4  A    between atoms: C_4  and  C_6
REMARK    5  A    between atoms: C_6  and  C_7
REMARK    6  A    between atoms: C_7  and  C_8
REMARK    7  A    between atoms: C_8  and  C_9
REMARK    8  A    between atoms: C_9  and  C_10
REMARK    9  A    between atoms: C_10  and  C_12
REMARK   10  A    between atoms: C_14  and  O_15
REMARK   11  A    between atoms: C_17  and  C_18
REMARK   12  A    between atoms: C_18  and  S_19
REMARK   13  A    between atoms: S_19  and  C_20
REMARK                            x       y       z     vdW  Elec       q    Type
REMARK                         _______ _______ _______ _____ _____    ______ ____
ROOT
ATOM      1  C   UNL     1       2.620   3.528  19.004  0.00  0.00    +0.000 A 
ATOM      2  N   UNL     1       2.802   2.830  20.183  0.00  0.00    +0.000 N 
ATOM      3  C   UNL     1       2.334   3.607  21.209  0.00  0.00    +0.000 A 
ATOM      4  N   UNL     1       1.847   4.738  20.773  0.00  0.00    +0.000 NA
ATOM      5  C   UNL     1       2.065   4.742  19.406  0.00  0.00    +0.000 A 
ATOM      6  H   UNL     1       3.210   1.913  20.279  0.00  0.00    +0.000 HD
ENDROOT
BRANCH   1   7
ATOM      7  C   UNL     1       2.939   3.098  17.657  0.00  0.00    +0.000 C 
ATOM      8  O   UNL     1       2.148   2.475  16.946  0.00  0.00    +0.000 OA
BRANCH   7   9
ATOM      9  C   UNL     1       4.328   3.345  17.125  0.00  0.00    +0.000 C 
BRANCH   9  10
ATOM     10  C   UNL     1       4.653   4.837  17.168  0.00  0.00    +0.000 C 
BRANCH  10  11
ATOM     11  C   UNL     1       5.826   5.095  18.109  0.00  0.00    +0.000 C 
BRANCH  11  12
ATOM     12  C   UNL     1       7.160   4.616  17.535  0.00  0.00    +0.000 C 
BRANCH  12  13
ATOM     13  C   UNL     1       7.517   5.437  16.310  0.00  0.00    +0.000 C 
ATOM     14  O   UNL     1       7.584   6.656  16.291  0.00  0.00    +0.000 OA
BRANCH  13  15
ATOM     15  O   UNL     1       7.829   4.649  15.247  0.00  0.00    +0.000 OA
BRANCH  15  17
ATOM     16  C   UNL     1       6.033   3.935  13.765  0.00  0.00    +0.000 C 
ATOM     17  C   UNL     1       7.112   4.970  14.035  0.00  0.00    +0.000 C 
ENDBRANCH  15  17
ENDBRANCH  13  15
ENDBRANCH  12  13
ENDBRANCH  11  12
ENDBRANCH  10  11
ENDBRANCH   9  10
ENDBRANCH   7   9
ENDBRANCH   1   7
BRANCH   3  18
ATOM     18  O   UNL     1       2.367   3.279  22.490  0.00  0.00    +0.000 OA
ATOM     19  H   UNL     1       2.736   2.393  22.605  0.00  0.00    +0.000 HD
ENDBRANCH   3  18
BRANCH   5  20
ATOM     20  C   UNL     1       1.647   5.900  18.543  0.00  0.00    +0.000 C 
BRANCH  20  21
ATOM     21  S   UNL     1       2.553   7.484  18.821  0.00  0.00    +0.000 S 
BRANCH  21  22
ATOM     22  C   UNL     1       1.560   8.433  19.885  0.00  0.00    +0.000 A 
ATOM     23  N   UNL     1       0.942   9.535  19.579  0.00  0.00    +0.000 NA
ATOM     24  C   UNL     1       0.356   9.959  20.733  0.00  0.00    +0.000 A 
ATOM     25  C   UNL     1      -0.297  11.157  20.979  0.00  0.00    +0.000 A 
ATOM     26  C   UNL     1      -0.606  11.489  22.289  0.00  0.00    +0.000 A 
ATOM     27  C   UNL     1      -0.917  10.463  23.149  0.00  0.00    +0.000 A 
ATOM     28  C   UNL     1      -0.101   9.318  23.055  0.00  0.00    +0.000 A 
ATOM     29  C   UNL     1       0.532   9.058  21.800  0.00  0.00    +0.000 A 
ATOM     30  N   UNL     1       1.368   8.108  21.221  0.00  0.00    +0.000 N 
ATOM     31  H   UNL     1       1.811   7.305  21.665  0.00  0.00    +0.000 HD
ENDBRANCH  21  22
ENDBRANCH  20  21
ENDBRANCH   5  20
TORSDOF 12
ENDMDL
MODEL 3
REMARK VINA RESULT:      -7.2      4.545      7.383
REMARK  Name = 
REMARK  13 active torsions:
REMARK  status: ('A' for Active; 'I' for Inactive)
REMARK    1  A    between atoms: C_1  and  C_2
REMARK    2  A    between atoms: C_2  and  O_3
REMARK    3  A    between atoms: O_3  and  C_4
REMARK    4  A    between atoms: C_4  and  C_6
REMARK    5  A    between atoms: C_6  and  C_7
REMARK    6  A    between atoms: C_7  and  C_8
REMARK    7  A    between atoms: C_8  and  C_9
REMARK    8  A    between atoms: C_9  and  C_10
REMARK    9  A    between atoms: C_10  and  C_12
REMARK   10  A    between atoms: C_14  and  O_15
REMARK   11  A    between atoms: C_17  and  C_18
REMARK   12  A    between atoms: C_18  and  S_19
REMARK   13  A    between atoms: S_19  and  C_20
REMARK                            x       y       z     vdW  Elec       q    Type
REMARK                         _______ _______ _______ _____ _____    ______ ____
ROOT
ATOM      1  C   UNL     1       3.366   3.386  19.953  0.00  0.00    +0.000 A 
ATOM      2  N   UNL     1       2.553   2.512  20.650  0.00  0.00    +0.000 N 
ATOM      3  C   UNL     1       1.723   3.254  21.447  0.00  0.00    +0.000 A 
ATOM      4  N   UNL     1       1.929   4.534  21.296  0.00  0.00    +0.000 NA
ATOM      5  C   UNL     1       2.989   4.646  20.412  0.00  0.00    +0.000 A 
ATOM      6  H   UNL     1       2.566   1.505  20.590  0.00  0.00    +0.000 HD
ENDROOT
BRANCH   1   7
ATOM      7  C   UNL     1       4.383   3.063  18.971  0.00  0.00    +0.000 C 
ATOM      8  O   UNL     1       5.587   3.232  19.171  0.00  0.00    +0.000 OA
BRANCH   7   9
ATOM      9  C   UNL     1       3.951   2.580  17.609  0.00  0.00    +0.000 C 
BRANCH   9  10
ATOM     10  C   UNL     1       3.409   3.745  16.783  0.00  0.00    +0.000 C 
BRANCH  10  11
ATOM     11  C   UNL     1       4.461   4.843  16.662  0.00  0.00    +0.000 C 
BRANCH  11  12
ATOM     12  C   UNL     1       5.439   4.600  15.512  0.00  0.00    +0.000 C 
BRANCH  12  13
ATOM     13  C   UNL     1       6.671   5.466  15.693  0.00  0.00    +0.000 C 
ATOM     14  O   UNL     1       7.747   5.258  15.154  0.00  0.00    +0.000 OA
BRANCH  13  15
ATOM     15  O   UNL     1       6.417   6.550  16.473  0.00  0.00    +0.000 OA
BRANCH  15  17
ATOM     16  C   UNL     1       7.598   6.082  18.550  0.00  0.00    +0.000 C 
ATOM     17  C   UNL     1       7.520   6.957  17.310  0.00  0.00    +0.000 C 
ENDBRANCH  15  17
ENDBRANCH  13  15
ENDBRANCH  12  13
ENDBRANCH  11  12
ENDBRANCH  10  11
ENDBRANCH   9  10
ENDBRANCH   7   9
ENDBRANCH   1   7
BRANCH   3  18
ATOM     18  O   UNL     1       0.823   2.759  22.280  0.00  0.00    +0.000 OA
ATOM     19  H   UNL     1       0.106   2.331  21.792  0.00  0.00    +0.000 HD
ENDBRANCH   3  18
BRANCH   5  20
ATOM     20  C   UNL     1       3.533   5.984  19.995  0.00  0.00    +0.000 C 
BRANCH  20  21
ATOM     21  S   UNL     1       2.473   6.966  18.846  0.00  0.00    +0.000 S 
BRANCH  21  22
ATOM     22  C   UNL     1       1.563   8.064  19.839  0.00  0.00    +0.000 A 
ATOM     23  N   UNL     1       1.001   9.168  19.446  0.00  0.00    +0.000 NA
ATOM     24  C   UNL     1       0.469   9.727  20.568  0.00  0.00    +0.000 A 
ATOM     25  C   UNL     1      -0.108  10.979  20.717  0.00  0.00    +0.000 A 
ATOM     26  C   UNL     1      -0.365  11.445  21.997  0.00  0.00    +0.000 A 
ATOM     27  C   UNL     1      -0.713  10.521  22.952  0.00  0.00    +0.000 A 
ATOM     28  C   UNL     1       0.034   9.325  22.947  0.00  0.00    +0.000 A 
ATOM     29  C   UNL     1       0.620   8.918  21.709  0.00  0.00    +0.000 A 
ATOM     30  N   UNL     1       1.385   7.871  21.202  0.00  0.00    +0.000 N 
ATOM     31  H   UNL     1       1.793   7.087  21.709  0.00  0.00    +0.000 HD
ENDBRANCH  21  22
ENDBRANCH  20  21
ENDBRANCH   5  20
TORSDOF 12
ENDMDL
MODEL 4
REMARK VINA RESULT:      -7.2      4.559      7.620
REMARK  Name = 
REMARK  13 active torsions:
REMARK  status: ('A' for Active; 'I' for Inactive)
REMARK    1  A    between atoms: C_1  and  C_2
REMARK    2  A    between atoms: C_2  and  O_3
REMARK    3  A    between atoms: O_3  and  C_4
REMARK    4  A    between atoms: C_4  and  C_6
REMARK    5  A    between atoms: C_6  and  C_7
REMARK    6  A    between atoms: C_7  and  C_8
REMARK    7  A    between atoms: C_8  and  C_9
REMARK    8  A    between atoms: C_9  and  C_10
REMARK    9  A    between atoms: C_10  and  C_12
REMARK   10  A    between atoms: C_14  and  O_15
REMARK   11  A    between atoms: C_17  and  C_18
REMARK   12  A    between atoms: C_18  and  S_19
REMARK   13  A    between atoms: S_19  and  C_20
REMARK                            x       y       z     vdW  Elec       q    Type
REMARK                         _______ _______ _______ _____ _____    ______ ____
ROOT
ATOM      1  C   UNL     1       1.980   3.826  19.269  0.00  0.00    +0.000 A 
ATOM      2  N   UNL     1       1.408   2.829  20.036  0.00  0.00    +0.000 N 
ATOM      3  C   UNL     1       1.630   3.131  21.353  0.00  0.00    +0.000 A 
ATOM      4  N   UNL     1       2.281   4.255  21.486  0.00  0.00    +0.000 NA
ATOM      5  C   UNL     1       2.565   4.682  20.199  0.00  0.00    +0.000 A 
ATOM      6  H   UNL     1       0.916   2.017  19.694  0.00  0.00    +0.000 HD
ENDROOT
BRANCH   1   7
ATOM      7  C   UNL     1       1.978   3.949  17.824  0.00  0.00    +0.000 C 
ATOM      8  O   UNL     1       1.046   4.451  17.194  0.00  0.00    +0.000 OA
BRANCH   7   9
ATOM      9  C   UNL     1       3.126   3.360  17.044  0.00  0.00    +0.000 C 
BRANCH   9  10
ATOM     10  C   UNL     1       4.280   4.359  16.966  0.00  0.00    +0.000 C 
BRANCH  10  11
ATOM     11  C   UNL     1       5.492   3.826  17.724  0.00  0.00    +0.000 C 
BRANCH  11  12
ATOM     12  C   UNL     1       6.321   4.937  18.369  0.00  0.00    +0.000 C 
BRANCH  12  13
ATOM     13  C   UNL     1       6.892   5.843  17.294  0.00  0.00    +0.000 C 
ATOM     14  O   UNL     1       7.513   5.452  16.319  0.00  0.00    +0.000 OA
BRANCH  13  15
ATOM     15  O   UNL     1       6.566   7.146  17.506  0.00  0.00    +0.000 OA
BRANCH  15  17
ATOM     16  C   UNL     1       8.457   8.289  18.528  0.00  0.00    +0.000 C 
ATOM     17  C   UNL     1       7.640   8.078  17.264  0.00  0.00    +0.000 C 
ENDBRANCH  15  17
ENDBRANCH  13  15
ENDBRANCH  12  13
ENDBRANCH  11  12
ENDBRANCH  10  11
ENDBRANCH   9  10
ENDBRANCH   7   9
ENDBRANCH   1   7
BRANCH   3  18
ATOM     18  O   UNL     1       1.250   2.389  22.380  0.00  0.00    +0.000 OA
ATOM     19  H   UNL     1       0.491   2.790  22.826  0.00  0.00    +0.000 HD
ENDBRANCH   3  18
BRANCH   5  20
ATOM     20  C   UNL     1       3.326   5.953  19.939  0.00  0.00    +0.000 C 
BRANCH  20  21
ATOM     21  S   UNL     1       2.492   7.186  18.846  0.00  0.00    +0.000 S 
BRANCH  21  22
ATOM     22  C   UNL     1       1.545   8.201  19.891  0.00  0.00    +0.000 A 
ATOM     23  N   UNL     1       0.881   9.260  19.535  0.00  0.00    +0.000 NA
ATOM     24  C   UNL     1       0.358   9.768  20.686  0.00  0.00    +0.000 A 
ATOM     25  C   UNL     1      -0.308  10.970  20.873  0.00  0.00    +0.000 A 
ATOM     26  C   UNL     1      -0.542  11.405  22.168  0.00  0.00    +0.000 A 
ATOM     27  C   UNL     1      -0.773  10.450  23.128  0.00  0.00    +0.000 A 
ATOM     28  C   UNL     1       0.064   9.317  23.077  0.00  0.00    +0.000 A 
ATOM     29  C   UNL     1       0.624   8.965  21.810  0.00  0.00    +0.000 A 
ATOM     30  N   UNL     1       1.445   7.986  21.258  0.00  0.00    +0.000 N 
ATOM     31  H   UNL     1       1.934   7.232  21.738  0.00  0.00    +0.000 HD
ENDBRANCH  21  22
ENDBRANCH  20  21
ENDBRANCH   5  20
TORSDOF 12
ENDMDL
MODEL 5
REMARK VINA RESULT:      -7.2      4.771      7.171
REMARK  Name = 
REMARK  13 active torsions:
REMARK  status: ('A' for Active; 'I' for Inactive)
REMARK    1  A    between atoms: C_1  and  C_2
REMARK    2  A    between atoms: C_2  and  O_3
REMARK    3  A    between atoms: O_3  and  C_4
REMARK    4  A    between atoms: C_4  and  C_6
REMARK    5  A    between atoms: C_6  and  C_7
REMARK    6  A    between atoms: C_7  and  C_8
REMARK    7  A    between atoms: C_8  and  C_9
REMARK    8  A    between atoms: C_9  and  C_10
REMARK    9  A    between atoms: C_10  and  C_12
REMARK   10  A    between atoms: C_14  and  O_15
REMARK   11  A    between atoms: C_17  and  C_18
REMARK   12  A    between atoms: C_18  and  S_19
REMARK   13  A    between atoms: S_19  and  C_20
REMARK                            x       y       z     vdW  Elec       q    Type
REMARK                         _______ _______ _______ _____ _____    ______ ____
ROOT
ATOM      1  C   UNL     1       2.665   3.815  19.388  0.00  0.00    +0.000 A 
ATOM      2  N   UNL     1       2.764   2.440  19.490  0.00  0.00    +0.000 N 
ATOM      3  C   UNL     1       3.759   2.025  18.645  0.00  0.00    +0.000 A 
ATOM      4  N   UNL     1       4.317   3.032  18.029  0.00  0.00    +0.000 NA
ATOM      5  C   UNL     1       3.616   4.158  18.429  0.00  0.00    +0.000 A 
ATOM      6  H   UNL     1       2.203   1.841  20.077  0.00  0.00    +0.000 HD
ENDROOT
BRANCH   1   7
ATOM      7  C   UNL     1       1.772   4.699  20.111  0.00  0.00    +0.000 C 
ATOM      8  O   UNL     1       0.630   4.375  20.443  0.00  0.00    +0.000 OA
BRANCH   7   9
ATOM      9  C   UNL     1       2.220   6.109  20.398  0.00  0.00    +0.000 C 
BRANCH   9  10
ATOM     10  C   UNL     1       1.064   6.925  20.973  0.00  0.00    +0.000 C 
BRANCH  10  11
ATOM     11  C   UNL     1       1.580   8.243  21.544  0.00  0.00    +0.000 C 
BRANCH  11  12
ATOM     12  C   UNL     1       0.465   9.264  21.771  0.00  0.00    +0.000 C 
BRANCH  12  13
ATOM     13  C   UNL     1       0.640  10.436  20.824  0.00  0.00    +0.000 C 
ATOM     14  O   UNL     1       1.143  11.505  21.133  0.00  0.00    +0.000 OA
BRANCH  13  15
ATOM     15  O   UNL     1       0.235  10.131  19.563  0.00  0.00    +0.000 OA
BRANCH  15  17
ATOM     16  C   UNL     1       1.749   9.267  17.863  0.00  0.00    +0.000 C 
ATOM     17  C   UNL     1       1.170  10.504  18.528  0.00  0.00    +0.000 C 
ENDBRANCH  15  17
ENDBRANCH  13  15
ENDBRANCH  12  13
ENDBRANCH  11  12
ENDBRANCH  10  11
ENDBRANCH   9  10
ENDBRANCH   7   9
ENDBRANCH   1   7
BRANCH   3  18
ATOM     18  O   UNL     1       4.123   0.768  18.454  0.00  0.00    +0.000 OA
ATOM     19  H   UNL     1       3.345   0.197  18.385  0.00  0.00    +0.000 HD
ENDBRANCH   3  18
BRANCH   5  20
ATOM     20  C   UNL     1       3.961   5.528  17.915  0.00  0.00    +0.000 C 
BRANCH  20  21
ATOM     21  S   UNL     1       5.759   5.873  17.675  0.00  0.00    +0.000 S 
BRANCH  21  22
ATOM     22  C   UNL     1       6.158   5.296  16.085  0.00  0.00    +0.000 A 
ATOM     23  N   UNL     1       7.225   5.595  15.407  0.00  0.00    +0.000 NA
ATOM     24  C   UNL     1       7.077   4.977  14.201  0.00  0.00    +0.000 A 
ATOM     25  C   UNL     1       7.867   5.097  13.068  0.00  0.00    +0.000 A 
ATOM     26  C   UNL     1       7.400   4.570  11.874  0.00  0.00    +0.000 A 
ATOM     27  C   UNL     1       6.635   3.431  11.937  0.00  0.00    +0.000 A 
ATOM     28  C   UNL     1       5.666   3.402  12.961  0.00  0.00    +0.000 A 
ATOM     29  C   UNL     1       5.916   4.186  14.130  0.00  0.00    +0.000 A 
ATOM     30  N   UNL     1       5.318   4.465  15.355  0.00  0.00    +0.000 N 
ATOM     31  H   UNL     1       4.409   4.159  15.696  0.00  0.00    +0.000 HD
ENDBRANCH  21  22
ENDBRANCH  20  21
ENDBRANCH   5  20
TORSDOF 12
ENDMDL
MODEL 6
REMARK VINA RESULT:      -7.2      4.704      7.404
REMARK  Name = 
REMARK  13 active torsions:
REMARK  status: ('A' for Active; 'I' for Inactive)
REMARK    1  A    between atoms: C_1  and  C_2
REMARK    2  A    between atoms: C_2  and  O_3
REMARK    3  A    between atoms: O_3  and  C_4
REMARK    4  A    between atoms: C_4  and  C_6
REMARK    5  A    between atoms: C_6  and  C_7
REMARK    6  A    between atoms: C_7  and  C_8
REMARK    7  A    between atoms: C_8  and  C_9
REMARK    8  A    between atoms: C_9  and  C_10
REMARK    9  A    between atoms: C_10  and  C_12
REMARK   10  A    between atoms: C_14  and  O_15
REMARK   11  A    between atoms: C_17  and  C_18
REMARK   12  A    between atoms: C_18  and  S_19
REMARK   13  A    between atoms: S_19  and  C_20
REMARK                            x       y       z     vdW  Elec       q    Type
REMARK                         _______ _______ _______ _____ _____    ______ ____
ROOT
ATOM      1  C   UNL     1       2.931   5.130  18.375  0.00  0.00    +0.000 A 
ATOM      2  N   UNL     1       2.027   4.175  17.949  0.00  0.00    +0.000 N 
ATOM      3  C   UNL     1       2.704   2.997  17.785  0.00  0.00    +0.000 A 
ATOM      4  N   UNL     1       3.967   3.121  18.096  0.00  0.00    +0.000 NA
ATOM      5  C   UNL     1       4.150   4.456  18.412  0.00  0.00    +0.000 A 
ATOM      6  H   UNL     1       1.042   4.315  17.781  0.00  0.00    +0.000 HD
ENDROOT
BRANCH   1   7
ATOM      7  C   UNL     1       2.670   6.518  18.704  0.00  0.00    +0.000 C 
ATOM      8  O   UNL     1       2.834   7.440  17.903  0.00  0.00    +0.000 OA
BRANCH   7   9
ATOM      9  C   UNL     1       2.262   6.866  20.113  0.00  0.00    +0.000 C 
BRANCH   9  10
ATOM     10  C   UNL     1       1.731   8.297  20.171  0.00  0.00    +0.000 C 
BRANCH  10  11
ATOM     11  C   UNL     1       0.660   8.420  21.250  0.00  0.00    +0.000 C 
BRANCH  11  12
ATOM     12  C   UNL     1      -0.340   9.542  20.966  0.00  0.00    +0.000 C 
BRANCH  12  13
ATOM     13  C   UNL     1      -0.106  10.694  21.925  0.00  0.00    +0.000 C 
ATOM     14  O   UNL     1       0.839  11.464  21.862  0.00  0.00    +0.000 OA
BRANCH  13  15
ATOM     15  O   UNL     1      -1.117  10.815  22.826  0.00  0.00    +0.000 OA
BRANCH  15  17
ATOM     16  C   UNL     1      -3.026  12.157  23.522  0.00  0.00    +0.000 C 
ATOM     17  C   UNL     1      -1.594  12.164  23.012  0.00  0.00    +0.000 C 
ENDBRANCH  15  17
ENDBRANCH  13  15
ENDBRANCH  12  13
ENDBRANCH  11  12
ENDBRANCH  10  11
ENDBRANCH   9  10
ENDBRANCH   7   9
ENDBRANCH   1   7
BRANCH   3  18
ATOM     18  O   UNL     1       2.172   1.863  17.360  0.00  0.00    +0.000 OA
ATOM     19  H   UNL     1       1.341   2.032  16.895  0.00  0.00    +0.000 HD
ENDBRANCH   3  18
BRANCH   5  20
ATOM     20  C   UNL     1       5.494   4.996  18.815  0.00  0.00    +0.000 C 
BRANCH  20  21
ATOM     21  S   UNL     1       6.213   6.287  17.707  0.00  0.00    +0.000 S 
BRANCH  21  22
ATOM     22  C   UNL     1       6.393   5.544  16.146  0.00  0.00    +0.000 A 
ATOM     23  N   UNL     1       7.424   5.649  15.362  0.00  0.00    +0.000 NA
ATOM     24  C   UNL     1       7.093   4.968  14.229  0.00  0.00    +0.000 A 
ATOM     25  C   UNL     1       7.786   4.899  13.031  0.00  0.00    +0.000 A 
ATOM     26  C   UNL     1       7.153   4.349  11.927  0.00  0.00    +0.000 A 
ATOM     27  C   UNL     1       6.261   3.328  12.149  0.00  0.00    +0.000 A 
ATOM     28  C   UNL     1       5.392   3.502  13.245  0.00  0.00    +0.000 A 
ATOM     29  C   UNL     1       5.841   4.332  14.318  0.00  0.00    +0.000 A 
ATOM     30  N   UNL     1       5.395   4.779  15.559  0.00  0.00    +0.000 N 
ATOM     31  H   UNL     1       4.489   4.620  15.997  0.00  0.00    +0.000 HD
ENDBRANCH  21  22
ENDBRANCH  20  21
ENDBRANCH   5  20
TORSDOF 12
ENDMDL
MODEL 7
REMARK VINA RESULT:      -7.2      3.651      8.111
REMARK  Name = 
REMARK  13 active torsions:
REMARK  status: ('A' for Active; 'I' for Inactive)
REMARK    1  A    between atoms: C_1  and  C_2
REMARK    2  A    between atoms: C_2  and  O_3
REMARK    3  A    between atoms: O_3  and  C_4
REMARK    4  A    between atoms: C_4  and  C_6
REMARK    5  A    between atoms: C_6  and  C_7
REMARK    6  A    between atoms: C_7  and  C_8
REMARK    7  A    between atoms: C_8  and  C_9
REMARK    8  A    between atoms: C_9  and  C_10
REMARK    9  A    between atoms: C_10  and  C_12
REMARK   10  A    between atoms: C_14  and  O_15
REMARK   11  A    between atoms: C_17  and  C_18
REMARK   12  A    between atoms: C_18  and  S_19
REMARK   13  A    between atoms: S_19  and  C_20
REMARK                            x       y       z     vdW  Elec       q    Type
REMARK                         _______ _______ _______ _____ _____    ______ ____
ROOT
ATOM      1  C   UNL     1       7.054   5.513  17.150  0.00  0.00    +0.000 A 
ATOM      2  N   UNL     1       7.260   5.271  15.805  0.00  0.00    +0.000 N 
ATOM      3  C   UNL     1       6.472   4.213  15.441  0.00  0.00    +0.000 A 
ATOM      4  N   UNL     1       5.762   3.774  16.446  0.00  0.00    +0.000 NA
ATOM      5  C   UNL     1       6.147   4.530  17.541  0.00  0.00    +0.000 A 
ATOM      6  H   UNL     1       7.884   5.778  15.194  0.00  0.00    +0.000 HD
ENDROOT
BRANCH   1   7
ATOM      7  C   UNL     1       7.649   6.550  17.970  0.00  0.00    +0.000 C 
ATOM      8  O   UNL     1       8.196   6.322  19.050  0.00  0.00    +0.000 OA
BRANCH   7   9
ATOM      9  C   UNL     1       7.523   7.987  17.529  0.00  0.00    +0.000 C 
BRANCH   9  10
ATOM     10  C   UNL     1       8.611   8.838  18.181  0.00  0.00    +0.000 C 
BRANCH  10  11
ATOM     11  C   UNL     1       8.178  10.300  18.233  0.00  0.00    +0.000 C 
BRANCH  11  12
ATOM     12  C   UNL     1       9.359  11.268  18.166  0.00  0.00    +0.000 C 
BRANCH  12  13
ATOM     13  C   UNL     1       8.868  12.654  17.794  0.00  0.00    +0.000 C 
ATOM     14  O   UNL     1       7.892  12.876  17.094  0.00  0.00    +0.000 OA
BRANCH  13  15
ATOM     15  O   UNL     1       9.601  13.629  18.394  0.00  0.00    +0.000 OA
BRANCH  15  17
ATOM     16  C   UNL     1       8.577  15.033  20.100  0.00  0.00    +0.000 C 
ATOM     17  C   UNL     1       9.366  13.766  19.812  0.00  0.00    +0.000 C 
ENDBRANCH  15  17
ENDBRANCH  13  15
ENDBRANCH  12  13
ENDBRANCH  11  12
ENDBRANCH  10  11
ENDBRANCH   9  10
ENDBRANCH   7   9
ENDBRANCH   1   7
BRANCH   3  18
ATOM     18  O   UNL     1       6.424   3.677  14.233  0.00  0.00    +0.000 OA
ATOM     19  H   UNL     1       5.549   3.802  13.841  0.00  0.00    +0.000 HD
ENDBRANCH   3  18
BRANCH   5  20
ATOM     20  C   UNL     1       5.551   4.308  18.903  0.00  0.00    +0.000 C 
BRANCH  20  21
ATOM     21  S   UNL     1       3.732   3.994  18.949  0.00  0.00    +0.000 S 
BRANCH  21  22
ATOM     22  C   UNL     1       2.969   5.555  18.997  0.00  0.00    +0.000 A 
ATOM     23  N   UNL     1       2.717   6.317  17.976  0.00  0.00    +0.000 NA
ATOM     24  C   UNL     1       2.185   7.459  18.494  0.00  0.00    +0.000 A 
ATOM     25  C   UNL     1       1.882   8.644  17.840  0.00  0.00    +0.000 A 
ATOM     26  C   UNL     1       1.577   9.763  18.599  0.00  0.00    +0.000 A 
ATOM     27  C   UNL     1       0.920   9.565  19.789  0.00  0.00    +0.000 A 
ATOM     28  C   UNL     1       1.381   8.486  20.570  0.00  0.00    +0.000 A 
ATOM     29  C   UNL     1       2.012   7.399  19.889  0.00  0.00    +0.000 A 
ATOM     30  N   UNL     1       2.586   6.166  20.183  0.00  0.00    +0.000 N 
ATOM     31  H   UNL     1       2.745   5.748  21.099  0.00  0.00    +0.000 HD
ENDBRANCH  21  22
ENDBRANCH  20  21
ENDBRANCH   5  20
TORSDOF 12
ENDMDL
MODEL 8
REMARK VINA RESULT:      -7.1      4.684      7.995
REMARK  Name = 
REMARK  13 active torsions:
REMARK  status: ('A' for Active; 'I' for Inactive)
REMARK    1  A    between atoms: C_1  and  C_2
REMARK    2  A    between atoms: C_2  and  O_3
REMARK    3  A    between atoms: O_3  and  C_4
REMARK    4  A    between atoms: C_4  and  C_6
REMARK    5  A    between atoms: C_6  and  C_7
REMARK    6  A    between atoms: C_7  and  C_8
REMARK    7  A    between atoms: C_8  and  C_9
REMARK    8  A    between atoms: C_9  and  C_10
REMARK    9  A    between atoms: C_10  and  C_12
REMARK   10  A    between atoms: C_14  and  O_15
REMARK   11  A    between atoms: C_17  and  C_18
REMARK   12  A    between atoms: C_18  and  S_19
REMARK   13  A    between atoms: S_19  and  C_20
REMARK                            x       y       z     vdW  Elec       q    Type
REMARK                         _______ _______ _______ _____ _____    ______ ____
ROOT
ATOM      1  C   UNL     1       6.278   5.549  17.901  0.00  0.00    +0.000 A 
ATOM      2  N   UNL     1       6.501   4.312  18.476  0.00  0.00    +0.000 N 
ATOM      3  C   UNL     1       5.291   3.802  18.862  0.00  0.00    +0.000 A 
ATOM      4  N   UNL     1       4.310   4.608  18.558  0.00  0.00    +0.000 NA
ATOM      5  C   UNL     1       4.901   5.734  18.009  0.00  0.00    +0.000 A 
ATOM      6  H   UNL     1       7.396   3.861  18.597  0.00  0.00    +0.000 HD
ENDROOT
BRANCH   1   7
ATOM      7  C   UNL     1       7.255   6.451  17.322  0.00  0.00    +0.000 C 
ATOM      8  O   UNL     1       7.552   6.442  16.126  0.00  0.00    +0.000 OA
BRANCH   7   9
ATOM      9  C   UNL     1       8.007   7.388  18.233  0.00  0.00    +0.000 C 
BRANCH   9  10
ATOM     10  C   UNL     1       8.018   8.799  17.647  0.00  0.00    +0.000 C 
BRANCH  10  11
ATOM     11  C   UNL     1       8.673   9.771  18.623  0.00  0.00    +0.000 C 
BRANCH  11  12
ATOM     12  C   UNL     1       9.627  10.748  17.934  0.00  0.00    +0.000 C 
BRANCH  12  13
ATOM     13  C   UNL     1       8.993  12.124  17.868  0.00  0.00    +0.000 C 
ATOM     14  O   UNL     1       7.939  12.373  17.304  0.00  0.00    +0.000 OA
BRANCH  13  15
ATOM     15  O   UNL     1       9.703  13.042  18.576  0.00  0.00    +0.000 OA
BRANCH  15  17
ATOM     16  C   UNL     1      10.967  12.394  20.554  0.00  0.00    +0.000 C 
ATOM     17  C   UNL     1      10.985  12.573  19.045  0.00  0.00    +0.000 C 
ENDBRANCH  15  17
ENDBRANCH  13  15
ENDBRANCH  12  13
ENDBRANCH  11  12
ENDBRANCH  10  11
ENDBRANCH   9  10
ENDBRANCH   7   9
ENDBRANCH   1   7
BRANCH   3  18
ATOM     18  O   UNL     1       5.112   2.644  19.475  0.00  0.00    +0.000 OA
ATOM     19  H   UNL     1       4.178   2.394  19.462  0.00  0.00    +0.000 HD
ENDBRANCH   3  18
BRANCH   5  20
ATOM     20  C   UNL     1       4.084   6.907  17.541  0.00  0.00    +0.000 C 
BRANCH  20  21
ATOM     21  S   UNL     1       2.359   7.001  18.190  0.00  0.00    +0.000 S 
BRANCH  21  22
ATOM     22  C   UNL     1       2.002   8.691  18.384  0.00  0.00    +0.000 A 
ATOM     23  N   UNL     1       2.482   9.663  17.668  0.00  0.00    +0.000 NA
ATOM     24  C   UNL     1       1.987  10.805  18.223  0.00  0.00    +0.000 A 
ATOM     25  C   UNL     1       2.312  12.120  17.924  0.00  0.00    +0.000 A 
ATOM     26  C   UNL     1       1.873  13.122  18.775  0.00  0.00    +0.000 A 
ATOM     27  C   UNL     1       0.661  12.943  19.397  0.00  0.00    +0.000 A 
ATOM     28  C   UNL     1       0.421  11.652  19.907  0.00  0.00    +0.000 A 
ATOM     29  C   UNL     1       1.094  10.557  19.281  0.00  0.00    +0.000 A 
ATOM     30  N   UNL     1       1.175   9.172  19.390  0.00  0.00    +0.000 N 
ATOM     31  H   UNL     1       0.741   8.569  20.087  0.00  0.00    +0.000 HD
ENDBRANCH  21  22
ENDBRANCH  20  21
ENDBRANCH   5  20
TORSDOF 12
ENDMDL
MODEL 9
REMARK VINA RESULT:      -7.0      4.659      8.585
REMARK  Name = 
REMARK  13 active torsions:
REMARK  status: ('A' for Active; 'I' for Inactive)
REMARK    1  A    between atoms: C_1  and  C_2
REMARK    2  A    between atoms: C_2  and  O_3
REMARK    3  A    between atoms: O_3  and  C_4
REMARK    4  A    between atoms: C_4  and  C_6
REMARK    5  A    between atoms: C_6  and  C_7
REMARK    6  A    between atoms: C_7  and  C_8
REMARK    7  A    between atoms: C_8  and  C_9
REMARK    8  A    between atoms: C_9  and  C_10
REMARK    9  A    between atoms: C_10  and  C_12
REMARK   10  A    between atoms: C_14  and  O_15
REMARK   11  A    between atoms: C_17  and  C_18
REMARK   12  A    between atoms: C_18  and  S_19
REMARK   13  A    between atoms: S_19  and  C_20
REMARK                            x       y       z     vdW  Elec       q    Type
REMARK                         _______ _______ _______ _____ _____    ______ ____
ROOT
ATOM      1  C   UNL     1       6.257   5.601  18.028  0.00  0.00    +0.000 A 
ATOM      2  N   UNL     1       6.404   4.305  18.483  0.00  0.00    +0.000 N 
ATOM      3  C   UNL     1       5.181   3.871  18.921  0.00  0.00    +0.000 A 
ATOM      4  N   UNL     1       4.261   4.784  18.761  0.00  0.00    +0.000 NA
ATOM      5  C   UNL     1       4.915   5.896  18.259  0.00  0.00    +0.000 A 
ATOM      6  H   UNL     1       7.258   3.767  18.497  0.00  0.00    +0.000 HD
ENDROOT
BRANCH   1   7
ATOM      7  C   UNL     1       7.271   6.461  17.449  0.00  0.00    +0.000 C 
ATOM      8  O   UNL     1       7.562   6.443  16.251  0.00  0.00    +0.000 OA
BRANCH   7   9
ATOM      9  C   UNL     1       8.068   7.360  18.359  0.00  0.00    +0.000 C 
BRANCH   9  10
ATOM     10  C   UNL     1       8.003   8.805  17.867  0.00  0.00    +0.000 C 
BRANCH  10  11
ATOM     11  C   UNL     1       9.023   9.662  18.608  0.00  0.00    +0.000 C 
BRANCH  11  12
ATOM     12  C   UNL     1       8.982  11.130  18.182  0.00  0.00    +0.000 C 
BRANCH  12  13
ATOM     13  C   UNL     1      10.363  11.744  18.316  0.00  0.00    +0.000 C 
ATOM     14  O   UNL     1      11.047  12.115  17.376  0.00  0.00    +0.000 OA
BRANCH  13  15
ATOM     15  O   UNL     1      10.722  11.901  19.618  0.00  0.00    +0.000 OA
BRANCH  15  17
ATOM     16  C   UNL     1       9.808  12.944  21.620  0.00  0.00    +0.000 C 
ATOM     17  C   UNL     1      10.314  13.156  20.203  0.00  0.00    +0.000 C 
ENDBRANCH  15  17
ENDBRANCH  13  15
ENDBRANCH  12  13
ENDBRANCH  11  12
ENDBRANCH  10  11
ENDBRANCH   9  10
ENDBRANCH   7   9
ENDBRANCH   1   7
BRANCH   3  18
ATOM     18  O   UNL     1       4.938   2.684  19.452  0.00  0.00    +0.000 OA
ATOM     19  H   UNL     1       4.083   2.347  19.153  0.00  0.00    +0.000 HD
ENDBRANCH   3  18
BRANCH   5  20
ATOM     20  C   UNL     1       4.181   7.173  17.952  0.00  0.00    +0.000 C 
BRANCH  20  21
ATOM     21  S   UNL     1       2.342   7.044  17.853  0.00  0.00    +0.000 S 
BRANCH  21  22
ATOM     22  C   UNL     1       1.713   8.081  19.097  0.00  0.00    +0.000 A 
ATOM     23  N   UNL     1       1.746   7.852  20.376  0.00  0.00    +0.000 NA
ATOM     24  C   UNL     1       1.077   8.890  20.951  0.00  0.00    +0.000 A 
ATOM     25  C   UNL     1       0.705   9.047  22.277  0.00  0.00    +0.000 A 
ATOM     26  C   UNL     1      -0.180  10.062  22.604  0.00  0.00    +0.000 A 
ATOM     27  C   UNL     1      -0.115  11.223  21.871  0.00  0.00    +0.000 A 
ATOM     28  C   UNL     1       0.038  11.060  20.479  0.00  0.00    +0.000 A 
ATOM     29  C   UNL     1       0.671   9.864  20.020  0.00  0.00    +0.000 A 
ATOM     30  N   UNL     1       1.055   9.272  18.820  0.00  0.00    +0.000 N 
ATOM     31  H   UNL     1       0.883   9.603  17.872  0.00  0.00    +0.000 HD
ENDBRANCH  21  22
ENDBRANCH  20  21
ENDBRANCH   5  20
TORSDOF 12
ENDMDL
