MODEL 1
REMARK VINA RESULT:      -7.1      0.000      0.000
REMARK  Name = 
REMARK  14 active torsions:
REMARK  status: ('A' for Active; 'I' for Inactive)
REMARK    1  A    between atoms: C_1  and  O_2
REMARK    2  A    between atoms: O_2  and  C_3
REMARK    3  A    between atoms: C_6  and  S_7
REMARK    4  A    between atoms: S_7  and  N_10
REMARK    5  A    between atoms: N_10  and  C_11
REMARK    6  A    between atoms: N_10  and  C_20
REMARK    7  A    between atoms: C_11  and  C_12
REMARK    8  A    between atoms: C_12  and  C_13
REMARK    9  A    between atoms: C_13  and  N_14
REMARK   10  A    between atoms: C_20  and  C_21
REMARK   11  A    between atoms: C_24  and  O_25
REMARK   12  A    between atoms: O_25  and  C_26
REMARK   13  A    between atoms: C_27  and  O_28
REMARK   14  A    between atoms: O_28  and  C_29
REMARK                            x       y       z     vdW  Elec       q    Type
REMARK                         _______ _______ _______ _____ _____    ______ ____
ROOT
ATOM      1  N   UNL     1       6.085   6.752  17.788  0.00  0.00    +0.000 NA
ENDROOT
BRANCH   1   2
ATOM      2  S   UNL     1       6.668   5.144  17.984  0.00  0.00    +0.000 S 
ATOM      3  O   UNL     1       7.247   5.066  19.311  0.00  0.00    +0.000 OA
ATOM      4  O   UNL     1       7.433   4.798  16.804  0.00  0.00    +0.000 OA
BRANCH   2   8
ATOM      5  C   UNL     1       2.736   2.968  17.985  0.00  0.00    +0.000 A 
ATOM      6  C   UNL     1       3.470   3.040  19.178  0.00  0.00    +0.000 A 
ATOM      7  C   UNL     1       4.766   3.568  19.193  0.00  0.00    +0.000 A 
ATOM      8  C   UNL     1       5.334   3.983  17.992  0.00  0.00    +0.000 A 
ATOM      9  C   UNL     1       4.631   3.840  16.784  0.00  0.00    +0.000 A 
ATOM     10  C   UNL     1       3.332   3.341  16.784  0.00  0.00    +0.000 A 
BRANCH   5  12
ATOM     11  C   UNL     1       0.820   2.781  19.352  0.00  0.00    +0.000 C 
ATOM     12  O   UNL     1       1.448   2.519  18.098  0.00  0.00    +0.000 OA
ENDBRANCH   5  12
ENDBRANCH   2   8
ENDBRANCH   1   2
BRANCH   1  13
ATOM     13  C   UNL     1       7.047   7.686  17.101  0.00  0.00    +0.000 C 
BRANCH  13  14
ATOM     14  C   UNL     1       8.107   8.242  18.060  0.00  0.00    +0.000 C 
BRANCH  14  15
ATOM     15  C   UNL     1       8.137   9.782  18.062  0.00  0.00    +0.000 C 
BRANCH  15  16
ATOM     16  N   UNL     1       9.479  10.331  18.348  0.00  0.00    +0.000 NA
ATOM     17  C   UNL     1       9.738  10.393  19.808  0.00  0.00    +0.000 C 
ATOM     18  C   UNL     1       8.949  11.502  20.534  0.00  0.00    +0.000 C 
ATOM     19  O   UNL     1       9.164  12.788  19.939  0.00  0.00    +0.000 OA
ATOM     20  C   UNL     1       8.867  12.768  18.537  0.00  0.00    +0.000 C 
ATOM     21  C   UNL     1       9.695  11.695  17.814  0.00  0.00    +0.000 C 
ENDBRANCH  15  16
ENDBRANCH  14  15
ENDBRANCH  13  14
ENDBRANCH   1  13
BRANCH   1  22
ATOM     22  C   UNL     1       4.681   6.791  17.213  0.00  0.00    +0.000 C 
BRANCH  22  23
ATOM     23  C   UNL     1       3.551   7.321  18.084  0.00  0.00    +0.000 A 
ATOM     24  C   UNL     1       3.151   6.644  19.242  0.00  0.00    +0.000 A 
ATOM     25  C   UNL     1       2.110   7.146  20.042  0.00  0.00    +0.000 A 
ATOM     26  C   UNL     1       1.452   8.345  19.722  0.00  0.00    +0.000 A 
ATOM     27  C   UNL     1       1.828   9.021  18.565  0.00  0.00    +0.000 A 
ATOM     28  C   UNL     1       2.813   8.457  17.754  0.00  0.00    +0.000 A 
BRANCH  26  29
ATOM     29  O   UNL     1       0.530   8.923  20.544  0.00  0.00    +0.000 OA
ATOM     30  C   UNL     1       1.062   9.485  21.738  0.00  0.00    +0.000 C 
ENDBRANCH  26  29
BRANCH  27  31
ATOM     31  O   UNL     1       1.415  10.228  18.087  0.00  0.00    +0.000 OA
ATOM     32  C   UNL     1       2.330  11.306  18.077  0.00  0.00    +0.000 C 
ENDBRANCH  27  31
ENDBRANCH  22  23
ENDBRANCH   1  22
TORSDOF 11
ENDMDL
MODEL 2
REMARK VINA RESULT:      -6.8      2.727      4.922
REMARK  Name = 
REMARK  14 active torsions:
REMARK  status: ('A' for Active; 'I' for Inactive)
REMARK    1  A    between atoms: C_1  and  O_2
REMARK    2  A    between atoms: O_2  and  C_3
REMARK    3  A    between atoms: C_6  and  S_7
REMARK    4  A    between atoms: S_7  and  N_10
REMARK    5  A    between atoms: N_10  and  C_11
REMARK    6  A    between atoms: N_10  and  C_20
REMARK    7  A    between atoms: C_11  and  C_12
REMARK    8  A    between atoms: C_12  and  C_13
REMARK    9  A    between atoms: C_13  and  N_14
REMARK   10  A    between atoms: C_20  and  C_21
REMARK   11  A    between atoms: C_24  and  O_25
REMARK   12  A    between atoms: O_25  and  C_26
REMARK   13  A    between atoms: C_27  and  O_28
REMARK   14  A    between atoms: O_28  and  C_29
REMARK                            x       y       z     vdW  Elec       q    Type
REMARK                         _______ _______ _______ _____ _____    ______ ____
ROOT
ATOM      1  N   UNL     1       6.745   6.866  18.293  0.00  0.00    +0.000 NA
ENDROOT
BRANCH   1   2
ATOM      2  S   UNL     1       6.880   5.302  19.001  0.00  0.00    +0.000 S 
ATOM      3  O   UNL     1       7.456   5.486  20.319  0.00  0.00    +0.000 OA
ATOM      4  O   UNL     1       7.488   4.420  18.026  0.00  0.00    +0.000 OA
BRANCH   2   8
ATOM      5  C   UNL     1       2.733   3.583  18.792  0.00  0.00    +0.000 A 
ATOM      6  C   UNL     1       2.900   4.892  19.268  0.00  0.00    +0.000 A 
ATOM      7  C   UNL     1       4.177   5.415  19.499  0.00  0.00    +0.000 A 
ATOM      8  C   UNL     1       5.284   4.597  19.288  0.00  0.00    +0.000 A 
ATOM      9  C   UNL     1       5.117   3.261  18.886  0.00  0.00    +0.000 A 
ATOM     10  C   UNL     1       3.844   2.759  18.632  0.00  0.00    +0.000 A 
BRANCH   5  12
ATOM     11  C   UNL     1       0.599   3.057  19.654  0.00  0.00    +0.000 C 
ATOM     12  O   UNL     1       1.447   3.202  18.516  0.00  0.00    +0.000 OA
ENDBRANCH   5  12
ENDBRANCH   2   8
ENDBRANCH   1   2
BRANCH   1  13
ATOM     13  C   UNL     1       8.063   7.524  17.977  0.00  0.00    +0.000 C 
BRANCH  13  14
ATOM     14  C   UNL     1       7.924   9.035  17.756  0.00  0.00    +0.000 C 
BRANCH  14  15
ATOM     15  C   UNL     1       8.918   9.842  18.612  0.00  0.00    +0.000 C 
BRANCH  15  16
ATOM     16  N   UNL     1       9.276  11.141  18.006  0.00  0.00    +0.000 NA
ATOM     17  C   UNL     1      10.747  11.287  17.869  0.00  0.00    +0.000 C 
ATOM     18  C   UNL     1      11.478  11.522  19.206  0.00  0.00    +0.000 C 
ATOM     19  O   UNL     1      10.936  12.640  19.922  0.00  0.00    +0.000 OA
ATOM     20  C   UNL     1       9.523  12.496  20.116  0.00  0.00    +0.000 C 
ATOM     21  C   UNL     1       8.798  12.313  18.775  0.00  0.00    +0.000 C 
ENDBRANCH  15  16
ENDBRANCH  14  15
ENDBRANCH  13  14
ENDBRANCH   1  13
BRANCH   1  22
ATOM     22  C   UNL     1       5.757   6.895  17.141  0.00  0.00    +0.000 C 
BRANCH  22  23
ATOM     23  C   UNL     1       5.933   5.900  16.004  0.00  0.00    +0.000 A 
ATOM     24  C   UNL     1       4.979   4.905  15.758  0.00  0.00    +0.000 A 
ATOM     25  C   UNL     1       5.149   3.995  14.701  0.00  0.00    +0.000 A 
ATOM     26  C   UNL     1       6.262   4.062  13.846  0.00  0.00    +0.000 A 
ATOM     27  C   UNL     1       7.226   5.036  14.087  0.00  0.00    +0.000 A 
ATOM     28  C   UNL     1       7.065   5.876  15.190  0.00  0.00    +0.000 A 
BRANCH  26  29
ATOM     29  O   UNL     1       6.390   3.279  12.738  0.00  0.00    +0.000 OA
ATOM     30  C   UNL     1       5.243   3.242  11.896  0.00  0.00    +0.000 C 
ENDBRANCH  26  29
BRANCH  27  31
ATOM     31  O   UNL     1       8.334   5.364  13.366  0.00  0.00    +0.000 OA
ATOM     32  C   UNL     1       8.170   6.016  12.123  0.00  0.00    +0.000 C 
ENDBRANCH  27  31
ENDBRANCH  22  23
ENDBRANCH   1  22
TORSDOF 11
ENDMDL
MODEL 3
REMARK VINA RESULT:      -6.7      0.903      1.321
REMARK  Name = 
REMARK  14 active torsions:
REMARK  status: ('A' for Active; 'I' for Inactive)
REMARK    1  A    between atoms: C_1  and  O_2
REMARK    2  A    between atoms: O_2  and  C_3
REMARK    3  A    between atoms: C_6  and  S_7
REMARK    4  A    between atoms: S_7  and  N_10
REMARK    5  A    between atoms: N_10  and  C_11
REMARK    6  A    between atoms: N_10  and  C_20
REMARK    7  A    between atoms: C_11  and  C_12
REMARK    8  A    between atoms: C_12  and  C_13
REMARK    9  A    between atoms: C_13  and  N_14
REMARK   10  A    between atoms: C_20  and  C_21
REMARK   11  A    between atoms: C_24  and  O_25
REMARK   12  A    between atoms: O_25  and  C_26
REMARK   13  A    between atoms: C_27  and  O_28
REMARK   14  A    between atoms: O_28  and  C_29
REMARK                            x       y       z     vdW  Elec       q    Type
REMARK                         _______ _______ _______ _____ _____    ______ ____
ROOT
ATOM      1  N   UNL     1       6.222   6.335  17.684  0.00  0.00    +0.000 NA
ENDROOT
BRANCH   1   2
ATOM      2  S   UNL     1       6.335   4.683  17.216  0.00  0.00    +0.000 S 
ATOM      3  O   UNL     1       7.507   4.139  17.874  0.00  0.00    +0.000 OA
ATOM      4  O   UNL     1       6.175   4.612  15.778  0.00  0.00    +0.000 OA
BRANCH   2   8
ATOM      5  C   UNL     1       2.479   3.160  18.948  0.00  0.00    +0.000 A 
ATOM      6  C   UNL     1       3.629   3.154  19.750  0.00  0.00    +0.000 A 
ATOM      7  C   UNL     1       4.881   3.470  19.211  0.00  0.00    +0.000 A 
ATOM      8  C   UNL     1       4.974   3.749  17.850  0.00  0.00    +0.000 A 
ATOM      9  C   UNL     1       3.836   3.680  17.030  0.00  0.00    +0.000 A 
ATOM     10  C   UNL     1       2.590   3.393  17.580  0.00  0.00    +0.000 A 
BRANCH   5  12
ATOM     11  C   UNL     1       1.272   3.290  20.974  0.00  0.00    +0.000 C 
ATOM     12  O   UNL     1       1.294   2.925  19.594  0.00  0.00    +0.000 OA
ENDBRANCH   5  12
ENDBRANCH   2   8
ENDBRANCH   1   2
BRANCH   1  13
ATOM     13  C   UNL     1       7.513   7.105  17.578  0.00  0.00    +0.000 C 
BRANCH  13  14
ATOM     14  C   UNL     1       7.301   8.620  17.689  0.00  0.00    +0.000 C 
BRANCH  14  15
ATOM     15  C   UNL     1       8.603   9.363  18.043  0.00  0.00    +0.000 C 
BRANCH  15  16
ATOM     16  N   UNL     1       8.364  10.637  18.753  0.00  0.00    +0.000 NA
ATOM     17  C   UNL     1       8.641  11.804  17.878  0.00  0.00    +0.000 C 
ATOM     18  C   UNL     1      10.141  12.042  17.615  0.00  0.00    +0.000 C 
ATOM     19  O   UNL     1      10.887  12.151  18.834  0.00  0.00    +0.000 OA
ATOM     20  C   UNL     1      10.679  11.008  19.673  0.00  0.00    +0.000 C 
ATOM     21  C   UNL     1       9.187  10.808  19.972  0.00  0.00    +0.000 C 
ENDBRANCH  15  16
ENDBRANCH  14  15
ENDBRANCH  13  14
ENDBRANCH   1  13
BRANCH   1  22
ATOM     22  C   UNL     1       5.038   7.037  17.044  0.00  0.00    +0.000 C 
BRANCH  22  23
ATOM     23  C   UNL     1       3.846   7.401  17.916  0.00  0.00    +0.000 A 
ATOM     24  C   UNL     1       3.522   6.647  19.050  0.00  0.00    +0.000 A 
ATOM     25  C   UNL     1       2.422   6.997  19.852  0.00  0.00    +0.000 A 
ATOM     26  C   UNL     1       1.627   8.118  19.559  0.00  0.00    +0.000 A 
ATOM     27  C   UNL     1       1.928   8.867  18.426  0.00  0.00    +0.000 A 
ATOM     28  C   UNL     1       2.980   8.450  17.610  0.00  0.00    +0.000 A 
BRANCH  26  29
ATOM     29  O   UNL     1       0.635   8.556  20.386  0.00  0.00    +0.000 OA
ATOM     30  C   UNL     1       1.044   9.518  21.352  0.00  0.00    +0.000 C 
ENDBRANCH  26  29
BRANCH  27  31
ATOM     31  O   UNL     1       1.376  10.030  17.977  0.00  0.00    +0.000 OA
ATOM     32  C   UNL     1       2.151  11.211  18.017  0.00  0.00    +0.000 C 
ENDBRANCH  27  31
ENDBRANCH  22  23
ENDBRANCH   1  22
TORSDOF 11
ENDMDL
MODEL 4
REMARK VINA RESULT:      -6.7      0.792      1.742
REMARK  Name = 
REMARK  14 active torsions:
REMARK  status: ('A' for Active; 'I' for Inactive)
REMARK    1  A    between atoms: C_1  and  O_2
REMARK    2  A    between atoms: O_2  and  C_3
REMARK    3  A    between atoms: C_6  and  S_7
REMARK    4  A    between atoms: S_7  and  N_10
REMARK    5  A    between atoms: N_10  and  C_11
REMARK    6  A    between atoms: N_10  and  C_20
REMARK    7  A    between atoms: C_11  and  C_12
REMARK    8  A    between atoms: C_12  and  C_13
REMARK    9  A    between atoms: C_13  and  N_14
REMARK   10  A    between atoms: C_20  and  C_21
REMARK   11  A    between atoms: C_24  and  O_25
REMARK   12  A    between atoms: O_25  and  C_26
REMARK   13  A    between atoms: C_27  and  O_28
REMARK   14  A    between atoms: O_28  and  C_29
REMARK                            x       y       z     vdW  Elec       q    Type
REMARK                         _______ _______ _______ _____ _____    ______ ____
ROOT
ATOM      1  N   UNL     1       6.001   6.737  17.809  0.00  0.00    +0.000 NA
ENDROOT
BRANCH   1   2
ATOM      2  S   UNL     1       6.594   5.131  17.984  0.00  0.00    +0.000 S 
ATOM      3  O   UNL     1       7.177   5.040  19.308  0.00  0.00    +0.000 OA
ATOM      4  O   UNL     1       7.358   4.803  16.798  0.00  0.00    +0.000 OA
BRANCH   2   8
ATOM      5  C   UNL     1       2.683   2.923  17.834  0.00  0.00    +0.000 A 
ATOM      6  C   UNL     1       3.304   3.116  19.076  0.00  0.00    +0.000 A 
ATOM      7  C   UNL     1       4.592   3.657  19.159  0.00  0.00    +0.000 A 
ATOM      8  C   UNL     1       5.268   3.961  17.981  0.00  0.00    +0.000 A 
ATOM      9  C   UNL     1       4.679   3.697  16.733  0.00  0.00    +0.000 A 
ATOM     10  C   UNL     1       3.387   3.186  16.662  0.00  0.00    +0.000 A 
BRANCH   5  12
ATOM     11  C   UNL     1       0.790   2.455  19.165  0.00  0.00    +0.000 C 
ATOM     12  O   UNL     1       1.391   2.473  17.870  0.00  0.00    +0.000 OA
ENDBRANCH   5  12
ENDBRANCH   2   8
ENDBRANCH   1   2
BRANCH   1  13
ATOM     13  C   UNL     1       6.970   7.694  17.162  0.00  0.00    +0.000 C 
BRANCH  13  14
ATOM     14  C   UNL     1       8.033   8.202  18.144  0.00  0.00    +0.000 C 
BRANCH  14  15
ATOM     15  C   UNL     1       8.154   9.737  18.126  0.00  0.00    +0.000 C 
BRANCH  15  16
ATOM     16  N   UNL     1       9.506  10.212  18.485  0.00  0.00    +0.000 NA
ATOM     17  C   UNL     1       9.569  10.646  19.903  0.00  0.00    +0.000 C 
ATOM     18  C   UNL     1       8.849  11.982  20.177  0.00  0.00    +0.000 C 
ATOM     19  O   UNL     1       9.318  13.029  19.318  0.00  0.00    +0.000 OA
ATOM     20  C   UNL     1       9.215  12.654  17.939  0.00  0.00    +0.000 C 
ATOM     21  C   UNL     1       9.979  11.351  17.664  0.00  0.00    +0.000 C 
ENDBRANCH  15  16
ENDBRANCH  14  15
ENDBRANCH  13  14
ENDBRANCH   1  13
BRANCH   1  22
ATOM     22  C   UNL     1       4.609   6.777  17.205  0.00  0.00    +0.000 C 
BRANCH  22  23
ATOM     23  C   UNL     1       3.511   7.520  17.951  0.00  0.00    +0.000 A 
ATOM     24  C   UNL     1       3.022   8.747  17.486  0.00  0.00    +0.000 A 
ATOM     25  C   UNL     1       2.003   9.421  18.180  0.00  0.00    +0.000 A 
ATOM     26  C   UNL     1       1.429   8.884  19.344  0.00  0.00    +0.000 A 
ATOM     27  C   UNL     1       1.916   7.673  19.827  0.00  0.00    +0.000 A 
ATOM     28  C   UNL     1       2.979   7.067  19.157  0.00  0.00    +0.000 A 
BRANCH  26  29
ATOM     29  O   UNL     1       0.355   9.449  19.966  0.00  0.00    +0.000 OA
ATOM     30  C   UNL     1      -0.605  10.031  19.090  0.00  0.00    +0.000 C 
ENDBRANCH  26  29
BRANCH  27  31
ATOM     31  O   UNL     1       1.478   6.910  20.868  0.00  0.00    +0.000 OA
ATOM     32  C   UNL     1       1.693   5.514  20.826  0.00  0.00    +0.000 C 
ENDBRANCH  27  31
ENDBRANCH  22  23
ENDBRANCH   1  22
TORSDOF 11
ENDMDL
MODEL 5
REMARK VINA RESULT:      -6.6      5.646     10.474
REMARK  Name = 
REMARK  14 active torsions:
REMARK  status: ('A' for Active; 'I' for Inactive)
REMARK    1  A    between atoms: C_1  and  O_2
REMARK    2  A    between atoms: O_2  and  C_3
REMARK    3  A    between atoms: C_6  and  S_7
REMARK    4  A    between atoms: S_7  and  N_10
REMARK    5  A    between atoms: N_10  and  C_11
REMARK    6  A    between atoms: N_10  and  C_20
REMARK    7  A    between atoms: C_11  and  C_12
REMARK    8  A    between atoms: C_12  and  C_13
REMARK    9  A    between atoms: C_13  and  N_14
REMARK   10  A    between atoms: C_20  and  C_21
REMARK   11  A    between atoms: C_24  and  O_25
REMARK   12  A    between atoms: O_25  and  C_26
REMARK   13  A    between atoms: C_27  and  O_28
REMARK   14  A    between atoms: O_28  and  C_29
REMARK                            x       y       z     vdW  Elec       q    Type
REMARK                         _______ _______ _______ _____ _____    ______ ____
ROOT
ATOM      1  N   UNL     1      -0.321  11.264  18.844  0.00  0.00    +0.000 NA
ENDROOT
BRANCH   1   2
ATOM      2  S   UNL     1       0.028  12.691  19.743  0.00  0.00    +0.000 S 
ATOM      3  O   UNL     1      -0.459  13.810  18.960  0.00  0.00    +0.000 OA
ATOM      4  O   UNL     1       1.406  12.618  20.182  0.00  0.00    +0.000 OA
BRANCH   2   8
ATOM      5  C   UNL     1      -2.738  12.021  23.220  0.00  0.00    +0.000 A 
ATOM      6  C   UNL     1      -3.041  13.036  22.301  0.00  0.00    +0.000 A 
ATOM      7  C   UNL     1      -2.134  13.386  21.294  0.00  0.00    +0.000 A 
ATOM      8  C   UNL     1      -0.904  12.737  21.245  0.00  0.00    +0.000 A 
ATOM      9  C   UNL     1      -0.567  11.775  22.211  0.00  0.00    +0.000 A 
ATOM     10  C   UNL     1      -1.486  11.413  23.191  0.00  0.00    +0.000 A 
BRANCH   5  12
ATOM     11  C   UNL     1      -4.534  12.793  24.545  0.00  0.00    +0.000 C 
ATOM     12  O   UNL     1      -3.730  11.698  24.107  0.00  0.00    +0.000 OA
ENDBRANCH   5  12
ENDBRANCH   2   8
ENDBRANCH   1   2
BRANCH   1  13
ATOM     13  C   UNL     1      -1.394  11.431  17.800  0.00  0.00    +0.000 C 
BRANCH  13  14
ATOM     14  C   UNL     1      -2.676  10.665  18.152  0.00  0.00    +0.000 C 
BRANCH  14  15
ATOM     15  C   UNL     1      -3.858  11.611  18.438  0.00  0.00    +0.000 C 
BRANCH  15  16
ATOM     16  N   UNL     1      -5.080  11.244  17.693  0.00  0.00    +0.000 NA
ATOM     17  C   UNL     1      -5.750  12.444  17.130  0.00  0.00    +0.000 C 
ATOM     18  C   UNL     1      -6.457  13.316  18.187  0.00  0.00    +0.000 C 
ATOM     19  O   UNL     1      -7.383  12.557  18.975  0.00  0.00    +0.000 OA
ATOM     20  C   UNL     1      -6.746  11.422  19.575  0.00  0.00    +0.000 C 
ATOM     21  C   UNL     1      -6.089  10.532  18.511  0.00  0.00    +0.000 C 
ENDBRANCH  15  16
ENDBRANCH  14  15
ENDBRANCH  13  14
ENDBRANCH   1  13
BRANCH   1  22
ATOM     22  C   UNL     1       0.935  10.587  18.326  0.00  0.00    +0.000 C 
BRANCH  22  23
ATOM     23  C   UNL     1       1.362   9.267  18.950  0.00  0.00    +0.000 A 
ATOM     24  C   UNL     1       0.983   8.926  20.255  0.00  0.00    +0.000 A 
ATOM     25  C   UNL     1       1.379   7.702  20.819  0.00  0.00    +0.000 A 
ATOM     26  C   UNL     1       2.146   6.773  20.094  0.00  0.00    +0.000 A 
ATOM     27  C   UNL     1       2.543   7.105  18.802  0.00  0.00    +0.000 A 
ATOM     28  C   UNL     1       2.197   8.359  18.299  0.00  0.00    +0.000 A 
BRANCH  26  29
ATOM     29  O   UNL     1       2.435   5.527  20.565  0.00  0.00    +0.000 OA
ATOM     30  C   UNL     1       1.392   4.571  20.409  0.00  0.00    +0.000 C 
ENDBRANCH  26  29
BRANCH  27  31
ATOM     31  O   UNL     1       3.203   6.357  17.874  0.00  0.00    +0.000 OA
ATOM     32  C   UNL     1       4.347   6.904  17.248  0.00  0.00    +0.000 C 
ENDBRANCH  27  31
ENDBRANCH  22  23
ENDBRANCH   1  22
TORSDOF 11
ENDMDL
MODEL 6
REMARK VINA RESULT:      -6.6      3.452      6.205
REMARK  Name = 
REMARK  14 active torsions:
REMARK  status: ('A' for Active; 'I' for Inactive)
REMARK    1  A    between atoms: C_1  and  O_2
REMARK    2  A    between atoms: O_2  and  C_3
REMARK    3  A    between atoms: C_6  and  S_7
REMARK    4  A    between atoms: S_7  and  N_10
REMARK    5  A    between atoms: N_10  and  C_11
REMARK    6  A    between atoms: N_10  and  C_20
REMARK    7  A    between atoms: C_11  and  C_12
REMARK    8  A    between atoms: C_12  and  C_13
REMARK    9  A    between atoms: C_13  and  N_14
REMARK   10  A    between atoms: C_20  and  C_21
REMARK   11  A    between atoms: C_24  and  O_25
REMARK   12  A    between atoms: O_25  and  C_26
REMARK   13  A    between atoms: C_27  and  O_28
REMARK   14  A    between atoms: O_28  and  C_29
REMARK                            x       y       z     vdW  Elec       q    Type
REMARK                         _______ _______ _______ _____ _____    ______ ____
ROOT
ATOM      1  N   UNL     1       4.976   5.720  17.523  0.00  0.00    +0.000 NA
ENDROOT
BRANCH   1   2
ATOM      2  S   UNL     1       6.515   5.708  16.750  0.00  0.00    +0.000 S 
ATOM      3  O   UNL     1       7.285   4.643  17.363  0.00  0.00    +0.000 OA
ATOM      4  O   UNL     1       7.007   7.070  16.710  0.00  0.00    +0.000 OA
BRANCH   2   8
ATOM      5  C   UNL     1       6.479   3.714  12.723  0.00  0.00    +0.000 A 
ATOM      6  C   UNL     1       7.475   4.661  13.000  0.00  0.00    +0.000 A 
ATOM      7  C   UNL     1       7.437   5.421  14.175  0.00  0.00    +0.000 A 
ATOM      8  C   UNL     1       6.366   5.250  15.048  0.00  0.00    +0.000 A 
ATOM      9  C   UNL     1       5.327   4.358  14.736  0.00  0.00    +0.000 A 
ATOM     10  C   UNL     1       5.388   3.587  13.580  0.00  0.00    +0.000 A 
BRANCH   5  12
ATOM     11  C   UNL     1       5.759   1.867  11.441  0.00  0.00    +0.000 C 
ATOM     12  O   UNL     1       6.659   2.964  11.592  0.00  0.00    +0.000 OA
ENDBRANCH   5  12
ENDBRANCH   2   8
ENDBRANCH   1   2
BRANCH   1  13
ATOM     13  C   UNL     1       5.029   5.574  19.021  0.00  0.00    +0.000 C 
BRANCH  13  14
ATOM     14  C   UNL     1       4.940   4.110  19.470  0.00  0.00    +0.000 C 
BRANCH  14  15
ATOM     15  C   UNL     1       3.954   3.298  18.609  0.00  0.00    +0.000 C 
BRANCH  15  16
ATOM     16  N   UNL     1       3.201   2.294  19.390  0.00  0.00    +0.000 NA
ATOM     17  C   UNL     1       1.812   2.148  18.886  0.00  0.00    +0.000 C 
ATOM     18  C   UNL     1       0.897   3.342  19.228  0.00  0.00    +0.000 C 
ATOM     19  O   UNL     1       0.887   3.622  20.635  0.00  0.00    +0.000 OA
ATOM     20  C   UNL     1       2.215   3.822  21.134  0.00  0.00    +0.000 C 
ATOM     21  C   UNL     1       3.105   2.607  20.834  0.00  0.00    +0.000 C 
ENDBRANCH  15  16
ENDBRANCH  14  15
ENDBRANCH  13  14
ENDBRANCH   1  13
BRANCH   1  22
ATOM     22  C   UNL     1       4.102   6.867  17.051  0.00  0.00    +0.000 C 
BRANCH  22  23
ATOM     23  C   UNL     1       3.121   7.488  18.034  0.00  0.00    +0.000 A 
ATOM     24  C   UNL     1       2.821   6.863  19.251  0.00  0.00    +0.000 A 
ATOM     25  C   UNL     1       1.918   7.450  20.154  0.00  0.00    +0.000 A 
ATOM     26  C   UNL     1       1.303   8.683  19.880  0.00  0.00    +0.000 A 
ATOM     27  C   UNL     1       1.578   9.308  18.668  0.00  0.00    +0.000 A 
ATOM     28  C   UNL     1       2.421   8.663  17.761  0.00  0.00    +0.000 A 
BRANCH  26  29
ATOM     29  O   UNL     1       0.524   9.337  20.788  0.00  0.00    +0.000 OA
ATOM     30  C   UNL     1      -0.304   8.495  21.583  0.00  0.00    +0.000 C 
ENDBRANCH  26  29
BRANCH  27  31
ATOM     31  O   UNL     1       1.188  10.529  18.207  0.00  0.00    +0.000 OA
ATOM     32  C   UNL     1       1.922  11.672  18.600  0.00  0.00    +0.000 C 
ENDBRANCH  27  31
ENDBRANCH  22  23
ENDBRANCH   1  22
TORSDOF 11
ENDMDL
MODEL 7
REMARK VINA RESULT:      -6.6      3.653      7.472
REMARK  Name = 
REMARK  14 active torsions:
REMARK  status: ('A' for Active; 'I' for Inactive)
REMARK    1  A    between atoms: C_1  and  O_2
REMARK    2  A    between atoms: O_2  and  C_3
REMARK    3  A    between atoms: C_6  and  S_7
REMARK    4  A    between atoms: S_7  and  N_10
REMARK    5  A    between atoms: N_10  and  C_11
REMARK    6  A    between atoms: N_10  and  C_20
REMARK    7  A    between atoms: C_11  and  C_12
REMARK    8  A    between atoms: C_12  and  C_13
REMARK    9  A    between atoms: C_13  and  N_14
REMARK   10  A    between atoms: C_20  and  C_21
REMARK   11  A    between atoms: C_24  and  O_25
REMARK   12  A    between atoms: O_25  and  C_26
REMARK   13  A    between atoms: C_27  and  O_28
REMARK   14  A    between atoms: O_28  and  C_29
REMARK                            x       y       z     vdW  Elec       q    Type
REMARK                         _______ _______ _______ _____ _____    ______ ____
ROOT
ATOM      1  N   UNL     1       1.820   8.252  18.424  0.00  0.00    +0.000 NA
ENDROOT
BRANCH   1   2
ATOM      2  S   UNL     1       1.320   9.808  18.965  0.00  0.00    +0.000 S 
ATOM      3  O   UNL     1       2.001  10.781  18.133  0.00  0.00    +0.000 OA
ATOM      4  O   UNL     1       1.433   9.837  20.409  0.00  0.00    +0.000 OA
BRANCH   2   8
ATOM      5  C   UNL     1      -2.750  11.106  17.574  0.00  0.00    +0.000 A 
ATOM      6  C   UNL     1      -2.302  11.523  18.835  0.00  0.00    +0.000 A 
ATOM      7  C   UNL     1      -1.114  11.020  19.377  0.00  0.00    +0.000 A 
ATOM      8  C   UNL     1      -0.403  10.063  18.659  0.00  0.00    +0.000 A 
ATOM      9  C   UNL     1      -0.890   9.586  17.430  0.00  0.00    +0.000 A 
ATOM     10  C   UNL     1      -2.057  10.114  16.887  0.00  0.00    +0.000 A 
BRANCH   5  12
ATOM     11  C   UNL     1      -5.109  11.108  17.463  0.00  0.00    +0.000 C 
ATOM     12  O   UNL     1      -3.875  11.727  17.100  0.00  0.00    +0.000 OA
ENDBRANCH   5  12
ENDBRANCH   2   8
ENDBRANCH   1   2
BRANCH   1  13
ATOM     13  C   UNL     1       2.884   8.274  17.357  0.00  0.00    +0.000 C 
BRANCH  13  14
ATOM     14  C   UNL     1       4.195   7.631  17.826  0.00  0.00    +0.000 C 
BRANCH  14  15
ATOM     15  C   UNL     1       4.876   6.818  16.709  0.00  0.00    +0.000 C 
BRANCH  15  16
ATOM     16  N   UNL     1       4.951   5.374  17.012  0.00  0.00    +0.000 NA
ATOM     17  C   UNL     1       5.834   5.111  18.176  0.00  0.00    +0.000 C 
ATOM     18  C   UNL     1       7.335   5.293  17.874  0.00  0.00    +0.000 C 
ATOM     19  O   UNL     1       7.753   4.508  16.750  0.00  0.00    +0.000 OA
ATOM     20  C   UNL     1       6.950   4.786  15.596  0.00  0.00    +0.000 C 
ATOM     21  C   UNL     1       5.461   4.552  15.891  0.00  0.00    +0.000 C 
ENDBRANCH  15  16
ENDBRANCH  14  15
ENDBRANCH  13  14
ENDBRANCH   1  13
BRANCH   1  22
ATOM     22  C   UNL     1       2.128   7.311  19.574  0.00  0.00    +0.000 C 
BRANCH  22  23
ATOM     23  C   UNL     1       2.110   5.812  19.316  0.00  0.00    +0.000 A 
ATOM     24  C   UNL     1       1.823   5.299  18.045  0.00  0.00    +0.000 A 
ATOM     25  C   UNL     1       1.815   3.913  17.817  0.00  0.00    +0.000 A 
ATOM     26  C   UNL     1       2.113   2.999  18.841  0.00  0.00    +0.000 A 
ATOM     27  C   UNL     1       2.386   3.493  20.113  0.00  0.00    +0.000 A 
ATOM     28  C   UNL     1       2.312   4.870  20.324  0.00  0.00    +0.000 A 
BRANCH  26  29
ATOM     29  O   UNL     1       2.240   1.659  18.621  0.00  0.00    +0.000 OA
ATOM     30  C   UNL     1       3.570   1.217  18.372  0.00  0.00    +0.000 C 
ENDBRANCH  26  29
BRANCH  27  31
ATOM     31  O   UNL     1       2.784   2.835  21.238  0.00  0.00    +0.000 OA
ATOM     32  C   UNL     1       1.799   2.363  22.135  0.00  0.00    +0.000 C 
ENDBRANCH  27  31
ENDBRANCH  22  23
ENDBRANCH   1  22
TORSDOF 11
ENDMDL
MODEL 8
REMARK VINA RESULT:      -6.5      4.595      8.961
REMARK  Name = 
REMARK  14 active torsions:
REMARK  status: ('A' for Active; 'I' for Inactive)
REMARK    1  A    between atoms: C_1  and  O_2
REMARK    2  A    between atoms: O_2  and  C_3
REMARK    3  A    between atoms: C_6  and  S_7
REMARK    4  A    between atoms: S_7  and  N_10
REMARK    5  A    between atoms: N_10  and  C_11
REMARK    6  A    between atoms: N_10  and  C_20
REMARK    7  A    between atoms: C_11  and  C_12
REMARK    8  A    between atoms: C_12  and  C_13
REMARK    9  A    between atoms: C_13  and  N_14
REMARK   10  A    between atoms: C_20  and  C_21
REMARK   11  A    between atoms: C_24  and  O_25
REMARK   12  A    between atoms: O_25  and  C_26
REMARK   13  A    between atoms: C_27  and  O_28
REMARK   14  A    between atoms: O_28  and  C_29
REMARK                            x       y       z     vdW  Elec       q    Type
REMARK                         _______ _______ _______ _____ _____    ______ ____
ROOT
ATOM      1  N   UNL     1       1.264   9.690  20.460  0.00  0.00    +0.000 NA
ENDROOT
BRANCH   1   2
ATOM      2  S   UNL     1       0.937  10.656  19.073  0.00  0.00    +0.000 S 
ATOM      3  O   UNL     1       1.643  10.048  17.962  0.00  0.00    +0.000 OA
ATOM      4  O   UNL     1       1.146  12.043  19.433  0.00  0.00    +0.000 OA
BRANCH   2   8
ATOM      5  C   UNL     1      -3.147  11.000  17.232  0.00  0.00    +0.000 A 
ATOM      6  C   UNL     1      -2.866  11.731  18.395  0.00  0.00    +0.000 A 
ATOM      7  C   UNL     1      -1.667  11.539  19.091  0.00  0.00    +0.000 A 
ATOM      8  C   UNL     1      -0.774  10.575  18.633  0.00  0.00    +0.000 A 
ATOM      9  C   UNL     1      -1.088   9.787  17.513  0.00  0.00    +0.000 A 
ATOM     10  C   UNL     1      -2.269  10.006  16.810  0.00  0.00    +0.000 A 
BRANCH   5  12
ATOM     11  C   UNL     1      -5.438  11.539  17.421  0.00  0.00    +0.000 C 
ATOM     12  O   UNL     1      -4.305  11.330  16.579  0.00  0.00    +0.000 OA
ENDBRANCH   5  12
ENDBRANCH   2   8
ENDBRANCH   1   2
BRANCH   1  13
ATOM     13  C   UNL     1       0.950  10.357  21.774  0.00  0.00    +0.000 C 
BRANCH  13  14
ATOM     14  C   UNL     1      -0.429   9.960  22.316  0.00  0.00    +0.000 C 
BRANCH  14  15
ATOM     15  C   UNL     1      -1.083  11.095  23.127  0.00  0.00    +0.000 C 
BRANCH  15  16
ATOM     16  N   UNL     1      -1.644  12.163  22.274  0.00  0.00    +0.000 NA
ATOM     17  C   UNL     1      -0.983  13.466  22.535  0.00  0.00    +0.000 C 
ATOM     18  C   UNL     1      -1.378  14.107  23.881  0.00  0.00    +0.000 C 
ATOM     19  O   UNL     1      -2.799  14.238  24.014  0.00  0.00    +0.000 OA
ATOM     20  C   UNL     1      -3.457  12.980  23.821  0.00  0.00    +0.000 C 
ATOM     21  C   UNL     1      -3.098  12.374  22.457  0.00  0.00    +0.000 C 
ENDBRANCH  15  16
ENDBRANCH  14  15
ENDBRANCH  13  14
ENDBRANCH   1  13
BRANCH   1  22
ATOM     22  C   UNL     1       0.695   8.289  20.336  0.00  0.00    +0.000 C 
BRANCH  22  23
ATOM     23  C   UNL     1       1.651   7.133  20.081  0.00  0.00    +0.000 A 
ATOM     24  C   UNL     1       2.627   7.207  19.080  0.00  0.00    +0.000 A 
ATOM     25  C   UNL     1       3.508   6.135  18.858  0.00  0.00    +0.000 A 
ATOM     26  C   UNL     1       3.456   4.969  19.639  0.00  0.00    +0.000 A 
ATOM     27  C   UNL     1       2.481   4.874  20.627  0.00  0.00    +0.000 A 
ATOM     28  C   UNL     1       1.574   5.924  20.772  0.00  0.00    +0.000 A 
BRANCH  26  29
ATOM     29  O   UNL     1       4.377   3.968  19.534  0.00  0.00    +0.000 OA
ATOM     30  C   UNL     1       3.997   2.892  18.683  0.00  0.00    +0.000 C 
ENDBRANCH  26  29
BRANCH  27  31
ATOM     31  O   UNL     1       2.278   3.904  21.562  0.00  0.00    +0.000 OA
ATOM     32  C   UNL     1       1.313   2.903  21.307  0.00  0.00    +0.000 C 
ENDBRANCH  27  31
ENDBRANCH  22  23
ENDBRANCH   1  22
TORSDOF 11
ENDMDL
MODEL 9
REMARK VINA RESULT:      -6.5      5.851      9.468
REMARK  Name = 
REMARK  14 active torsions:
REMARK  status: ('A' for Active; 'I' for Inactive)
REMARK    1  A    between atoms: C_1  and  O_2
REMARK    2  A    between atoms: O_2  and  C_3
REMARK    3  A    between atoms: C_6  and  S_7
REMARK    4  A    between atoms: S_7  and  N_10
REMARK    5  A    between atoms: N_10  and  C_11
REMARK    6  A    between atoms: N_10  and  C_20
REMARK    7  A    between atoms: C_11  and  C_12
REMARK    8  A    between atoms: C_12  and  C_13
REMARK    9  A    between atoms: C_13  and  N_14
REMARK   10  A    between atoms: C_20  and  C_21
REMARK   11  A    between atoms: C_24  and  O_25
REMARK   12  A    between atoms: O_25  and  C_26
REMARK   13  A    between atoms: C_27  and  O_28
REMARK   14  A    between atoms: O_28  and  C_29
REMARK                            x       y       z     vdW  Elec       q    Type
REMARK                         _______ _______ _______ _____ _____    ______ ____
ROOT
ATOM      1  N   UNL     1      -0.734  10.714  21.125  0.00  0.00    +0.000 NA
ENDROOT
BRANCH   1   2
ATOM      2  S   UNL     1       0.955  10.465  20.903  0.00  0.00    +0.000 S 
ATOM      3  O   UNL     1       1.497  10.087  22.194  0.00  0.00    +0.000 OA
ATOM      4  O   UNL     1       1.481  11.593  20.163  0.00  0.00    +0.000 OA
BRANCH   2   8
ATOM      5  C   UNL     1       2.630   7.076  18.474  0.00  0.00    +0.000 A 
ATOM      6  C   UNL     1       2.227   8.245  17.815  0.00  0.00    +0.000 A 
ATOM      7  C   UNL     1       1.557   9.263  18.504  0.00  0.00    +0.000 A 
ATOM      8  C   UNL     1       1.259   9.077  19.850  0.00  0.00    +0.000 A 
ATOM      9  C   UNL     1       1.593   7.874  20.494  0.00  0.00    +0.000 A 
ATOM     10  C   UNL     1       2.284   6.879  19.808  0.00  0.00    +0.000 A 
BRANCH   5  12
ATOM     11  C   UNL     1       3.900   5.085  18.459  0.00  0.00    +0.000 C 
ATOM     12  O   UNL     1       3.355   6.184  17.729  0.00  0.00    +0.000 OA
ENDBRANCH   5  12
ENDBRANCH   2   8
ENDBRANCH   1   2
BRANCH   1  13
ATOM     13  C   UNL     1      -1.168  10.806  22.564  0.00  0.00    +0.000 C 
BRANCH  13  14
ATOM     14  C   UNL     1      -1.417  12.253  23.008  0.00  0.00    +0.000 C 
BRANCH  14  15
ATOM     15  C   UNL     1      -2.911  12.625  22.967  0.00  0.00    +0.000 C 
BRANCH  15  16
ATOM     16  N   UNL     1      -3.330  13.452  24.117  0.00  0.00    +0.000 NA
ATOM     17  C   UNL     1      -4.429  12.805  24.876  0.00  0.00    +0.000 C 
ATOM     18  C   UNL     1      -5.789  12.834  24.150  0.00  0.00    +0.000 C 
ATOM     19  O   UNL     1      -6.166  14.164  23.772  0.00  0.00    +0.000 OA
ATOM     20  C   UNL     1      -5.142  14.791  22.989  0.00  0.00    +0.000 C 
ATOM     21  C   UNL     1      -3.804  14.804  23.742  0.00  0.00    +0.000 C 
ENDBRANCH  15  16
ENDBRANCH  14  15
ENDBRANCH  13  14
ENDBRANCH   1  13
BRANCH   1  22
ATOM     22  C   UNL     1      -1.272  11.833  20.252  0.00  0.00    +0.000 C 
BRANCH  22  23
ATOM     23  C   UNL     1      -2.016  11.470  18.976  0.00  0.00    +0.000 A 
ATOM     24  C   UNL     1      -1.408  10.699  17.977  0.00  0.00    +0.000 A 
ATOM     25  C   UNL     1      -2.108  10.365  16.805  0.00  0.00    +0.000 A 
ATOM     26  C   UNL     1      -3.438  10.770  16.603  0.00  0.00    +0.000 A 
ATOM     27  C   UNL     1      -4.050  11.550  17.580  0.00  0.00    +0.000 A 
ATOM     28  C   UNL     1      -3.304  11.928  18.697  0.00  0.00    +0.000 A 
BRANCH  26  29
ATOM     29  O   UNL     1      -4.183  10.355  15.540  0.00  0.00    +0.000 OA
ATOM     30  C   UNL     1      -3.439  10.092  14.355  0.00  0.00    +0.000 C 
ENDBRANCH  26  29
BRANCH  27  31
ATOM     31  O   UNL     1      -5.336  11.990  17.665  0.00  0.00    +0.000 OA
ATOM     32  C   UNL     1      -6.005  11.903  18.907  0.00  0.00    +0.000 C 
ENDBRANCH  27  31
ENDBRANCH  22  23
ENDBRANCH   1  22
TORSDOF 11
ENDMDL
