MODEL 1
REMARK VINA RESULT:      -8.6      0.000      0.000
REMARK  Name = 
REMARK  3 active torsions:
REMARK  status: ('A' for Active; 'I' for Inactive)
REMARK    1  A    between atoms: C_2  and  C_3
REMARK    2  A    between atoms: C_3  and  O_4
REMARK    3  A    between atoms: O_4  and  C_5
REMARK                            x       y       z     vdW  Elec       q    Type
REMARK                         _______ _______ _______ _____ _____    ______ ____
ROOT
ATOM      1  O   UNL     1       2.231   3.827  21.779  0.00  0.00    +0.000 OA
ATOM      2  C   UNL     1       2.504   4.290  20.665  0.00  0.00    +0.000 C 
ATOM      3  N   UNL     1       3.395   3.597  19.896  0.00  0.00    +0.000 N 
ATOM      4  C   UNL     1       3.955   4.053  18.737  0.00  0.00    +0.000 A 
ATOM      5  N   UNL     1       3.931   5.271  18.255  0.00  0.00    +0.000 NA
ATOM      6  C   UNL     1       4.655   5.230  17.091  0.00  0.00    +0.000 A 
ATOM      7  C   UNL     1       4.968   6.259  16.195  0.00  0.00    +0.000 A 
ATOM      8  C   UNL     1       5.698   5.941  15.043  0.00  0.00    +0.000 A 
ATOM      9  C   UNL     1       6.100   4.625  14.790  0.00  0.00    +0.000 A 
ATOM     10  C   UNL     1       5.810   3.588  15.684  0.00  0.00    +0.000 A 
ATOM     11  C   UNL     1       5.095   3.937  16.831  0.00  0.00    +0.000 A 
ATOM     12  N   UNL     1       4.665   3.215  17.915  0.00  0.00    +0.000 N 
ATOM     13  H   UNL     1       3.695   2.718  20.291  0.00  0.00    +0.000 HD
ATOM     14  H   UNL     1       4.797   2.225  18.053  0.00  0.00    +0.000 HD
ENDROOT
BRANCH   2  15
ATOM     15  C   UNL     1       1.764   5.515  20.119  0.00  0.00    +0.000 C 
BRANCH  15  16
ATOM     16  O   UNL     1       2.254   6.748  20.626  0.00  0.00    +0.000 OA
BRANCH  16  17
ATOM     17  C   UNL     1       1.836   7.876  19.951  0.00  0.00    +0.000 A 
ATOM     18  C   UNL     1       2.100   8.097  18.592  0.00  0.00    +0.000 A 
ATOM     19  C   UNL     1       1.631   9.245  17.954  0.00  0.00    +0.000 A 
ATOM     20  C   UNL     1       0.880  10.176  18.660  0.00  0.00    +0.000 A 
ATOM     21  C   UNL     1       0.583   9.976  20.016  0.00  0.00    +0.000 A 
ATOM     22  C   UNL     1      -0.184  10.921  20.716  0.00  0.00    +0.000 A 
ATOM     23  C   UNL     1      -0.485  10.739  22.065  0.00  0.00    +0.000 A 
ATOM     24  C   UNL     1      -0.020   9.613  22.730  0.00  0.00    +0.000 A 
ATOM     25  C   UNL     1       0.747   8.664  22.047  0.00  0.00    +0.000 A 
ATOM     26  C   UNL     1       1.062   8.816  20.680  0.00  0.00    +0.000 A 
ENDBRANCH  16  17
ENDBRANCH  15  16
ENDBRANCH   2  15
TORSDOF 3
ENDMDL
MODEL 2
REMARK VINA RESULT:      -8.5      3.712      5.148
REMARK  Name = 
REMARK  3 active torsions:
REMARK  status: ('A' for Active; 'I' for Inactive)
REMARK    1  A    between atoms: C_2  and  C_3
REMARK    2  A    between atoms: C_3  and  O_4
REMARK    3  A    between atoms: O_4  and  C_5
REMARK                            x       y       z     vdW  Elec       q    Type
REMARK                         _______ _______ _______ _____ _____    ______ ____
ROOT
ATOM      1  O   UNL     1       7.658   6.423  18.945  0.00  0.00    +0.000 OA
ATOM      2  C   UNL     1       7.293   5.664  18.039  0.00  0.00    +0.000 C 
ATOM      3  N   UNL     1       7.715   5.947  16.771  0.00  0.00    +0.000 N 
ATOM      4  C   UNL     1       7.257   5.341  15.636  0.00  0.00    +0.000 A 
ATOM      5  N   UNL     1       6.215   4.558  15.504  0.00  0.00    +0.000 NA
ATOM      6  C   UNL     1       6.156   4.231  14.174  0.00  0.00    +0.000 A 
ATOM      7  C   UNL     1       5.224   3.444  13.487  0.00  0.00    +0.000 A 
ATOM      8  C   UNL     1       5.415   3.227  12.117  0.00  0.00    +0.000 A 
ATOM      9  C   UNL     1       6.514   3.779  11.451  0.00  0.00    +0.000 A 
ATOM     10  C   UNL     1       7.446   4.582  12.120  0.00  0.00    +0.000 A 
ATOM     11  C   UNL     1       7.221   4.793  13.480  0.00  0.00    +0.000 A 
ATOM     12  N   UNL     1       7.887   5.525  14.431  0.00  0.00    +0.000 N 
ATOM     13  H   UNL     1       8.357   6.723  16.706  0.00  0.00    +0.000 HD
ATOM     14  H   UNL     1       8.729   6.059  14.280  0.00  0.00    +0.000 HD
ENDROOT
BRANCH   2  15
ATOM     15  C   UNL     1       6.515   4.382  18.352  0.00  0.00    +0.000 C 
BRANCH  15  16
ATOM     16  O   UNL     1       5.636   4.507  19.460  0.00  0.00    +0.000 OA
BRANCH  16  17
ATOM     17  C   UNL     1       4.344   4.884  19.154  0.00  0.00    +0.000 A 
ATOM     18  C   UNL     1       4.039   5.862  18.197  0.00  0.00    +0.000 A 
ATOM     19  C   UNL     1       2.713   6.187  17.910  0.00  0.00    +0.000 A 
ATOM     20  C   UNL     1       1.678   5.528  18.561  0.00  0.00    +0.000 A 
ATOM     21  C   UNL     1       1.950   4.532  19.511  0.00  0.00    +0.000 A 
ATOM     22  C   UNL     1       0.895   3.868  20.156  0.00  0.00    +0.000 A 
ATOM     23  C   UNL     1       1.147   2.878  21.105  0.00  0.00    +0.000 A 
ATOM     24  C   UNL     1       2.457   2.543  21.421  0.00  0.00    +0.000 A 
ATOM     25  C   UNL     1       3.518   3.197  20.788  0.00  0.00    +0.000 A 
ATOM     26  C   UNL     1       3.295   4.198  19.819  0.00  0.00    +0.000 A 
ENDBRANCH  16  17
ENDBRANCH  15  16
ENDBRANCH   2  15
TORSDOF 3
ENDMDL
MODEL 3
REMARK VINA RESULT:      -8.4      2.608      4.359
REMARK  Name = 
REMARK  3 active torsions:
REMARK  status: ('A' for Active; 'I' for Inactive)
REMARK    1  A    between atoms: C_2  and  C_3
REMARK    2  A    between atoms: C_3  and  O_4
REMARK    3  A    between atoms: O_4  and  C_5
REMARK                            x       y       z     vdW  Elec       q    Type
REMARK                         _______ _______ _______ _____ _____    ______ ____
ROOT
ATOM      1  O   UNL     1       6.419   5.417  19.646  0.00  0.00    +0.000 OA
ATOM      2  C   UNL     1       6.241   4.851  18.560  0.00  0.00    +0.000 C 
ATOM      3  N   UNL     1       6.960   5.302  17.489  0.00  0.00    +0.000 N 
ATOM      4  C   UNL     1       6.753   4.932  16.191  0.00  0.00    +0.000 A 
ATOM      5  N   UNL     1       5.736   4.273  15.693  0.00  0.00    +0.000 NA
ATOM      6  C   UNL     1       5.974   4.175  14.346  0.00  0.00    +0.000 A 
ATOM      7  C   UNL     1       5.193   3.595  13.339  0.00  0.00    +0.000 A 
ATOM      8  C   UNL     1       5.689   3.591  12.030  0.00  0.00    +0.000 A 
ATOM      9  C   UNL     1       6.937   4.149  11.734  0.00  0.00    +0.000 A 
ATOM     10  C   UNL     1       7.722   4.748  12.727  0.00  0.00    +0.000 A 
ATOM     11  C   UNL     1       7.196   4.751  14.019  0.00  0.00    +0.000 A 
ATOM     12  N   UNL     1       7.654   5.257  15.208  0.00  0.00    +0.000 N 
ATOM     13  H   UNL     1       7.634   6.021  17.709  0.00  0.00    +0.000 HD
ATOM     14  H   UNL     1       8.531   5.734  15.347  0.00  0.00    +0.000 HD
ENDROOT
BRANCH   2  15
ATOM     15  C   UNL     1       5.354   3.607  18.457  0.00  0.00    +0.000 C 
BRANCH  15  16
ATOM     16  O   UNL     1       4.021   3.890  18.057  0.00  0.00    +0.000 OA
BRANCH  16  17
ATOM     17  C   UNL     1       3.215   4.446  19.029  0.00  0.00    +0.000 A 
ATOM     18  C   UNL     1       2.773   3.737  20.155  0.00  0.00    +0.000 A 
ATOM     19  C   UNL     1       1.979   4.357  21.119  0.00  0.00    +0.000 A 
ATOM     20  C   UNL     1       1.632   5.694  20.980  0.00  0.00    +0.000 A 
ATOM     21  C   UNL     1       2.073   6.437  19.875  0.00  0.00    +0.000 A 
ATOM     22  C   UNL     1       1.722   7.790  19.751  0.00  0.00    +0.000 A 
ATOM     23  C   UNL     1       2.148   8.542  18.657  0.00  0.00    +0.000 A 
ATOM     24  C   UNL     1       2.928   7.948  17.673  0.00  0.00    +0.000 A 
ATOM     25  C   UNL     1       3.285   6.600  17.782  0.00  0.00    +0.000 A 
ATOM     26  C   UNL     1       2.874   5.815  18.882  0.00  0.00    +0.000 A 
ENDBRANCH  16  17
ENDBRANCH  15  16
ENDBRANCH   2  15
TORSDOF 3
ENDMDL
MODEL 4
REMARK VINA RESULT:      -8.3      2.685      4.606
REMARK  Name = 
REMARK  3 active torsions:
REMARK  status: ('A' for Active; 'I' for Inactive)
REMARK    1  A    between atoms: C_2  and  C_3
REMARK    2  A    between atoms: C_3  and  O_4
REMARK    3  A    between atoms: O_4  and  C_5
REMARK                            x       y       z     vdW  Elec       q    Type
REMARK                         _______ _______ _______ _____ _____    ______ ____
ROOT
ATOM      1  O   UNL     1       6.120   5.201  19.687  0.00  0.00    +0.000 OA
ATOM      2  C   UNL     1       6.056   4.673  18.570  0.00  0.00    +0.000 C 
ATOM      3  N   UNL     1       6.785   5.239  17.562  0.00  0.00    +0.000 N 
ATOM      4  C   UNL     1       6.684   4.913  16.240  0.00  0.00    +0.000 A 
ATOM      5  N   UNL     1       5.764   4.187  15.656  0.00  0.00    +0.000 NA
ATOM      6  C   UNL     1       6.082   4.175  14.323  0.00  0.00    +0.000 A 
ATOM      7  C   UNL     1       5.416   3.573  13.249  0.00  0.00    +0.000 A 
ATOM      8  C   UNL     1       5.980   3.677  11.971  0.00  0.00    +0.000 A 
ATOM      9  C   UNL     1       7.183   4.362  11.773  0.00  0.00    +0.000 A 
ATOM     10  C   UNL     1       7.852   4.984  12.833  0.00  0.00    +0.000 A 
ATOM     11  C   UNL     1       7.259   4.877  14.091  0.00  0.00    +0.000 A 
ATOM     12  N   UNL     1       7.602   5.367  15.326  0.00  0.00    +0.000 N 
ATOM     13  H   UNL     1       7.374   6.006  17.851  0.00  0.00    +0.000 HD
ATOM     14  H   UNL     1       8.420   5.917  15.535  0.00  0.00    +0.000 HD
ENDROOT
BRANCH   2  15
ATOM     15  C   UNL     1       5.299   3.358  18.363  0.00  0.00    +0.000 C 
BRANCH  15  16
ATOM     16  O   UNL     1       3.938   3.536  17.999  0.00  0.00    +0.000 OA
BRANCH  16  17
ATOM     17  C   UNL     1       3.047   3.615  19.050  0.00  0.00    +0.000 A 
ATOM     18  C   UNL     1       2.626   2.496  19.783  0.00  0.00    +0.000 A 
ATOM     19  C   UNL     1       1.743   2.638  20.852  0.00  0.00    +0.000 A 
ATOM     20  C   UNL     1       1.283   3.898  21.213  0.00  0.00    +0.000 A 
ATOM     21  C   UNL     1       1.699   5.040  20.512  0.00  0.00    +0.000 A 
ATOM     22  C   UNL     1       1.233   6.308  20.892  0.00  0.00    +0.000 A 
ATOM     23  C   UNL     1       1.633   7.452  20.204  0.00  0.00    +0.000 A 
ATOM     24  C   UNL     1       2.502   7.341  19.126  0.00  0.00    +0.000 A 
ATOM     25  C   UNL     1       2.973   6.084  18.734  0.00  0.00    +0.000 A 
ATOM     26  C   UNL     1       2.591   4.908  19.416  0.00  0.00    +0.000 A 
ENDBRANCH  16  17
ENDBRANCH  15  16
ENDBRANCH   2  15
TORSDOF 3
ENDMDL
MODEL 5
REMARK VINA RESULT:      -8.3      1.146      1.293
REMARK  Name = 
REMARK  3 active torsions:
REMARK  status: ('A' for Active; 'I' for Inactive)
REMARK    1  A    between atoms: C_2  and  C_3
REMARK    2  A    between atoms: C_3  and  O_4
REMARK    3  A    between atoms: O_4  and  C_5
REMARK                            x       y       z     vdW  Elec       q    Type
REMARK                         _______ _______ _______ _____ _____    ______ ____
ROOT
ATOM      1  O   UNL     1       0.669   3.742  20.390  0.00  0.00    +0.000 OA
ATOM      2  C   UNL     1       1.721   4.195  19.922  0.00  0.00    +0.000 C 
ATOM      3  N   UNL     1       2.126   3.721  18.706  0.00  0.00    +0.000 N 
ATOM      4  C   UNL     1       3.343   3.959  18.135  0.00  0.00    +0.000 A 
ATOM      5  N   UNL     1       4.407   4.480  18.693  0.00  0.00    +0.000 NA
ATOM      6  C   UNL     1       5.377   4.483  17.724  0.00  0.00    +0.000 A 
ATOM      7  C   UNL     1       6.711   4.904  17.794  0.00  0.00    +0.000 A 
ATOM      8  C   UNL     1       7.492   4.841  16.633  0.00  0.00    +0.000 A 
ATOM      9  C   UNL     1       6.952   4.373  15.431  0.00  0.00    +0.000 A 
ATOM     10  C   UNL     1       5.626   3.933  15.349  0.00  0.00    +0.000 A 
ATOM     11  C   UNL     1       4.876   3.993  16.524  0.00  0.00    +0.000 A 
ATOM     12  N   UNL     1       3.587   3.633  16.825  0.00  0.00    +0.000 N 
ATOM     13  H   UNL     1       1.476   3.087  18.266  0.00  0.00    +0.000 HD
ATOM     14  H   UNL     1       2.916   3.250  16.178  0.00  0.00    +0.000 HD
ENDROOT
BRANCH   2  15
ATOM     15  C   UNL     1       2.462   5.342  20.616  0.00  0.00    +0.000 C 
BRANCH  15  16
ATOM     16  O   UNL     1       1.637   6.463  20.899  0.00  0.00    +0.000 OA
BRANCH  16  17
ATOM     17  C   UNL     1       1.723   7.506  20.000  0.00  0.00    +0.000 A 
ATOM     18  C   UNL     1       2.402   7.408  18.777  0.00  0.00    +0.000 A 
ATOM     19  C   UNL     1       2.435   8.487  17.894  0.00  0.00    +0.000 A 
ATOM     20  C   UNL     1       1.780   9.669  18.214  0.00  0.00    +0.000 A 
ATOM     21  C   UNL     1       1.077   9.793  19.422  0.00  0.00    +0.000 A 
ATOM     22  C   UNL     1       0.411  10.990  19.729  0.00  0.00    +0.000 A 
ATOM     23  C   UNL     1      -0.289  11.132  20.926  0.00  0.00    +0.000 A 
ATOM     24  C   UNL     1      -0.329  10.079  21.831  0.00  0.00    +0.000 A 
ATOM     25  C   UNL     1       0.330   8.881  21.539  0.00  0.00    +0.000 A 
ATOM     26  C   UNL     1       1.041   8.705  20.333  0.00  0.00    +0.000 A 
ENDBRANCH  16  17
ENDBRANCH  15  16
ENDBRANCH   2  15
TORSDOF 3
ENDMDL
MODEL 6
REMARK VINA RESULT:      -8.3      3.631      5.504
REMARK  Name = 
REMARK  3 active torsions:
REMARK  status: ('A' for Active; 'I' for Inactive)
REMARK    1  A    between atoms: C_2  and  C_3
REMARK    2  A    between atoms: C_3  and  O_4
REMARK    3  A    between atoms: O_4  and  C_5
REMARK                            x       y       z     vdW  Elec       q    Type
REMARK                         _______ _______ _______ _____ _____    ______ ____
ROOT
ATOM      1  O   UNL     1       7.750   6.866  18.564  0.00  0.00    +0.000 OA
ATOM      2  C   UNL     1       7.347   6.032  17.744  0.00  0.00    +0.000 C 
ATOM      3  N   UNL     1       7.756   6.175  16.448  0.00  0.00    +0.000 N 
ATOM      4  C   UNL     1       7.263   5.473  15.386  0.00  0.00    +0.000 A 
ATOM      5  N   UNL     1       6.197   4.713  15.347  0.00  0.00    +0.000 NA
ATOM      6  C   UNL     1       6.106   4.257  14.057  0.00  0.00    +0.000 A 
ATOM      7  C   UNL     1       5.140   3.434  13.464  0.00  0.00    +0.000 A 
ATOM      8  C   UNL     1       5.303   3.076  12.121  0.00  0.00    +0.000 A 
ATOM      9  C   UNL     1       6.406   3.525  11.388  0.00  0.00    +0.000 A 
ATOM     10  C   UNL     1       7.371   4.362  11.961  0.00  0.00    +0.000 A 
ATOM     11  C   UNL     1       7.176   4.714  13.296  0.00  0.00    +0.000 A 
ATOM     12  N   UNL     1       7.877   5.517  14.159  0.00  0.00    +0.000 N 
ATOM     13  H   UNL     1       8.420   6.921  16.297  0.00  0.00    +0.000 HD
ATOM     14  H   UNL     1       8.732   6.007  13.945  0.00  0.00    +0.000 HD
ENDROOT
BRANCH   2  15
ATOM     15  C   UNL     1       6.538   4.812  18.193  0.00  0.00    +0.000 C 
BRANCH  15  16
ATOM     16  O   UNL     1       5.219   5.128  18.613  0.00  0.00    +0.000 OA
BRANCH  16  17
ATOM     17  C   UNL     1       4.287   4.124  18.451  0.00  0.00    +0.000 A 
ATOM     18  C   UNL     1       4.507   2.999  17.644  0.00  0.00    +0.000 A 
ATOM     19  C   UNL     1       3.539   2.001  17.536  0.00  0.00    +0.000 A 
ATOM     20  C   UNL     1       2.349   2.105  18.245  0.00  0.00    +0.000 A 
ATOM     21  C   UNL     1       2.106   3.210  19.075  0.00  0.00    +0.000 A 
ATOM     22  C   UNL     1       0.903   3.299  19.793  0.00  0.00    +0.000 A 
ATOM     23  C   UNL     1       0.643   4.391  20.620  0.00  0.00    +0.000 A 
ATOM     24  C   UNL     1       1.583   5.407  20.736  0.00  0.00    +0.000 A 
ATOM     25  C   UNL     1       2.785   5.333  20.027  0.00  0.00    +0.000 A 
ATOM     26  C   UNL     1       3.079   4.237  19.187  0.00  0.00    +0.000 A 
ENDBRANCH  16  17
ENDBRANCH  15  16
ENDBRANCH   2  15
TORSDOF 3
ENDMDL
MODEL 7
REMARK VINA RESULT:      -8.1      1.039      1.122
REMARK  Name = 
REMARK  3 active torsions:
REMARK  status: ('A' for Active; 'I' for Inactive)
REMARK    1  A    between atoms: C_2  and  C_3
REMARK    2  A    between atoms: C_3  and  O_4
REMARK    3  A    between atoms: O_4  and  C_5
REMARK                            x       y       z     vdW  Elec       q    Type
REMARK                         _______ _______ _______ _____ _____    ______ ____
ROOT
ATOM      1  O   UNL     1       1.037   4.576  20.648  0.00  0.00    +0.000 OA
ATOM      2  C   UNL     1       1.926   5.022  19.912  0.00  0.00    +0.000 C 
ATOM      3  N   UNL     1       2.412   4.196  18.939  0.00  0.00    +0.000 N 
ATOM      4  C   UNL     1       3.514   4.448  18.172  0.00  0.00    +0.000 A 
ATOM      5  N   UNL     1       4.420   5.378  18.344  0.00  0.00    +0.000 NA
ATOM      6  C   UNL     1       5.334   5.204  17.337  0.00  0.00    +0.000 A 
ATOM      7  C   UNL     1       6.515   5.906  17.068  0.00  0.00    +0.000 A 
ATOM      8  C   UNL     1       7.260   5.551  15.937  0.00  0.00    +0.000 A 
ATOM      9  C   UNL     1       6.833   4.523  15.092  0.00  0.00    +0.000 A 
ATOM     10  C   UNL     1       5.663   3.799  15.355  0.00  0.00    +0.000 A 
ATOM     11  C   UNL     1       4.950   4.165  16.497  0.00  0.00    +0.000 A 
ATOM     12  N   UNL     1       3.805   3.678  17.074  0.00  0.00    +0.000 N 
ATOM     13  H   UNL     1       1.938   3.308  18.867  0.00  0.00    +0.000 HD
ATOM     14  H   UNL     1       3.241   2.922  16.718  0.00  0.00    +0.000 HD
ENDROOT
BRANCH   2  15
ATOM     15  C   UNL     1       2.360   6.488  20.003  0.00  0.00    +0.000 C 
BRANCH  15  16
ATOM     16  O   UNL     1       1.487   7.293  20.782  0.00  0.00    +0.000 OA
BRANCH  16  17
ATOM     17  C   UNL     1       1.213   8.543  20.266  0.00  0.00    +0.000 A 
ATOM     18  C   UNL     1       1.580   8.934  18.970  0.00  0.00    +0.000 A 
ATOM     19  C   UNL     1       1.256  10.202  18.491  0.00  0.00    +0.000 A 
ATOM     20  C   UNL     1       0.548  11.089  19.293  0.00  0.00    +0.000 A 
ATOM     21  C   UNL     1       0.150  10.722  20.588  0.00  0.00    +0.000 A 
ATOM     22  C   UNL     1      -0.572  11.625  21.384  0.00  0.00    +0.000 A 
ATOM     23  C   UNL     1      -0.972  11.278  22.674  0.00  0.00    +0.000 A 
ATOM     24  C   UNL     1      -0.651  10.027  23.182  0.00  0.00    +0.000 A 
ATOM     25  C   UNL     1       0.069   9.118  22.402  0.00  0.00    +0.000 A 
ATOM     26  C   UNL     1       0.482   9.437  21.090  0.00  0.00    +0.000 A 
ENDBRANCH  16  17
ENDBRANCH  15  16
ENDBRANCH   2  15
TORSDOF 3
ENDMDL
MODEL 8
REMARK VINA RESULT:      -8.0      2.797      8.224
REMARK  Name = 
REMARK  3 active torsions:
REMARK  status: ('A' for Active; 'I' for Inactive)
REMARK    1  A    between atoms: C_2  and  C_3
REMARK    2  A    between atoms: C_3  and  O_4
REMARK    3  A    between atoms: O_4  and  C_5
REMARK                            x       y       z     vdW  Elec       q    Type
REMARK                         _______ _______ _______ _____ _____    ______ ____
ROOT
ATOM      1  O   UNL     1       2.611   8.678  17.066  0.00  0.00    +0.000 OA
ATOM      2  C   UNL     1       1.918   8.833  18.079  0.00  0.00    +0.000 C 
ATOM      3  N   UNL     1       1.079   9.911  18.110  0.00  0.00    +0.000 N 
ATOM      4  C   UNL     1       0.394  10.342  19.210  0.00  0.00    +0.000 A 
ATOM      5  N   UNL     1       0.554   9.972  20.456  0.00  0.00    +0.000 NA
ATOM      6  C   UNL     1      -0.343  10.708  21.186  0.00  0.00    +0.000 A 
ATOM      7  C   UNL     1      -0.572  10.727  22.567  0.00  0.00    +0.000 A 
ATOM      8  C   UNL     1      -1.590  11.550  23.063  0.00  0.00    +0.000 A 
ATOM      9  C   UNL     1      -2.365  12.331  22.200  0.00  0.00    +0.000 A 
ATOM     10  C   UNL     1      -2.138  12.336  20.819  0.00  0.00    +0.000 A 
ATOM     11  C   UNL     1      -1.107  11.519  20.354  0.00  0.00    +0.000 A 
ATOM     12  N   UNL     1      -0.591  11.292  19.104  0.00  0.00    +0.000 N 
ATOM     13  H   UNL     1       1.053  10.447  17.255  0.00  0.00    +0.000 HD
ATOM     14  H   UNL     1      -0.920  11.707  18.246  0.00  0.00    +0.000 HD
ENDROOT
BRANCH   2  15
ATOM     15  C   UNL     1       1.903   7.779  19.190  0.00  0.00    +0.000 C 
BRANCH  15  16
ATOM     16  O   UNL     1       3.088   7.000  19.252  0.00  0.00    +0.000 OA
BRANCH  16  17
ATOM     17  C   UNL     1       3.041   5.792  18.586  0.00  0.00    +0.000 A 
ATOM     18  C   UNL     1       1.986   4.880  18.730  0.00  0.00    +0.000 A 
ATOM     19  C   UNL     1       1.977   3.684  18.013  0.00  0.00    +0.000 A 
ATOM     20  C   UNL     1       3.012   3.392  17.133  0.00  0.00    +0.000 A 
ATOM     21  C   UNL     1       4.074   4.292  16.954  0.00  0.00    +0.000 A 
ATOM     22  C   UNL     1       5.108   3.989  16.056  0.00  0.00    +0.000 A 
ATOM     23  C   UNL     1       6.173   4.870  15.867  0.00  0.00    +0.000 A 
ATOM     24  C   UNL     1       6.215   6.062  16.578  0.00  0.00    +0.000 A 
ATOM     25  C   UNL     1       5.192   6.377  17.477  0.00  0.00    +0.000 A 
ATOM     26  C   UNL     1       4.098   5.509  17.684  0.00  0.00    +0.000 A 
ENDBRANCH  16  17
ENDBRANCH  15  16
ENDBRANCH   2  15
TORSDOF 3
ENDMDL
MODEL 9
REMARK VINA RESULT:      -8.0      2.989      8.360
REMARK  Name = 
REMARK  3 active torsions:
REMARK  status: ('A' for Active; 'I' for Inactive)
REMARK    1  A    between atoms: C_2  and  C_3
REMARK    2  A    between atoms: C_3  and  O_4
REMARK    3  A    between atoms: O_4  and  C_5
REMARK                            x       y       z     vdW  Elec       q    Type
REMARK                         _______ _______ _______ _____ _____    ______ ____
ROOT
ATOM      1  O   UNL     1       2.240   8.954  17.391  0.00  0.00    +0.000 OA
ATOM      2  C   UNL     1       1.532   9.185  18.378  0.00  0.00    +0.000 C 
ATOM      3  N   UNL     1       0.639  10.215  18.286  0.00  0.00    +0.000 N 
ATOM      4  C   UNL     1      -0.076  10.732  19.329  0.00  0.00    +0.000 A 
ATOM      5  N   UNL     1       0.093  10.513  20.609  0.00  0.00    +0.000 NA
ATOM      6  C   UNL     1      -0.847  11.279  21.249  0.00  0.00    +0.000 A 
ATOM      7  C   UNL     1      -1.087  11.442  22.619  0.00  0.00    +0.000 A 
ATOM      8  C   UNL     1      -2.151  12.261  23.016  0.00  0.00    +0.000 A 
ATOM      9  C   UNL     1      -2.958  12.899  22.069  0.00  0.00    +0.000 A 
ATOM     10  C   UNL     1      -2.720  12.760  20.696  0.00  0.00    +0.000 A 
ATOM     11  C   UNL     1      -1.645  11.950  20.329  0.00  0.00    +0.000 A 
ATOM     12  N   UNL     1      -1.108  11.610  19.114  0.00  0.00    +0.000 N 
ATOM     13  H   UNL     1       0.592  10.649  17.376  0.00  0.00    +0.000 HD
ATOM     14  H   UNL     1      -1.451  11.909  18.214  0.00  0.00    +0.000 HD
ENDROOT
BRANCH   2  15
ATOM     15  C   UNL     1       1.562   8.264  19.602  0.00  0.00    +0.000 C 
BRANCH  15  16
ATOM     16  O   UNL     1       2.706   7.425  19.654  0.00  0.00    +0.000 OA
BRANCH  16  17
ATOM     17  C   UNL     1       2.452   6.070  19.591  0.00  0.00    +0.000 A 
ATOM     18  C   UNL     1       1.551   5.419  20.447  0.00  0.00    +0.000 A 
ATOM     19  C   UNL     1       1.314   4.051  20.322  0.00  0.00    +0.000 A 
ATOM     20  C   UNL     1       1.960   3.320  19.333  0.00  0.00    +0.000 A 
ATOM     21  C   UNL     1       2.853   3.944  18.450  0.00  0.00    +0.000 A 
ATOM     22  C   UNL     1       3.492   3.195  17.449  0.00  0.00    +0.000 A 
ATOM     23  C   UNL     1       4.385   3.799  16.565  0.00  0.00    +0.000 A 
ATOM     24  C   UNL     1       4.651   5.158  16.674  0.00  0.00    +0.000 A 
ATOM     25  C   UNL     1       4.023   5.916  17.666  0.00  0.00    +0.000 A 
ATOM     26  C   UNL     1       3.109   5.335  18.571  0.00  0.00    +0.000 A 
ENDBRANCH  16  17
ENDBRANCH  15  16
ENDBRANCH   2  15
TORSDOF 3
ENDMDL
