MODEL 1
REMARK VINA RESULT:      -7.9      0.000      0.000
REMARK  Name = 
REMARK  12 active torsions:
REMARK  status: ('A' for Active; 'I' for Inactive)
REMARK    1  A    between atoms: C_1  and  C_2
REMARK    2  A    between atoms: C_2  and  C_3
REMARK    3  A    between atoms: C_3  and  C_4
REMARK    4  A    between atoms: C_4  and  C_5
REMARK    5  A    between atoms: C_4  and  C_8
REMARK    6  A    between atoms: C_5  and  C_6
REMARK    7  A    between atoms: C_6  and  C_7
REMARK    8  A    between atoms: N_10  and  C_11
REMARK    9  A    between atoms: C_11  and  C_12
REMARK   10  A    between atoms: N_19  and  C_20
REMARK   11  A    between atoms: C_23  and  O_24
REMARK   12  A    between atoms: O_24  and  C_25
REMARK                            x       y       z     vdW  Elec       q    Type
REMARK                         _______ _______ _______ _____ _____    ______ ____
ROOT
ATOM      1  C   UNL     1       2.705   6.250  19.233  0.00  0.00    +0.000 A 
ATOM      2  C   UNL     1       2.038   6.464  20.445  0.00  0.00    +0.000 A 
ATOM      3  C   UNL     1       1.423   7.687  20.735  0.00  0.00    +0.000 A 
ATOM      4  C   UNL     1       1.487   8.711  19.776  0.00  0.00    +0.000 A 
ATOM      5  C   UNL     1       2.121   8.517  18.550  0.00  0.00    +0.000 A 
ATOM      6  C   UNL     1       1.875   9.706  17.835  0.00  0.00    +0.000 A 
ATOM      7  N   UNL     1       1.107  10.564  18.503  0.00  0.00    +0.000 NA
ATOM      8  N   UNL     1       0.966  10.003  19.731  0.00  0.00    +0.000 N 
ATOM      9  C   UNL     1       2.767   7.293  18.288  0.00  0.00    +0.000 A 
ENDROOT
BRANCH   8  10
ATOM     10  C   UNL     1       0.375  10.734  20.782  0.00  0.00    +0.000 A 
ATOM     11  C   UNL     1      -0.490  10.126  21.692  0.00  0.00    +0.000 A 
ATOM     12  C   UNL     1      -1.058  10.900  22.707  0.00  0.00    +0.000 A 
ATOM     13  C   UNL     1      -0.769  12.258  22.741  0.00  0.00    +0.000 A 
ATOM     14  N   UNL     1       0.054  12.868  21.862  0.00  0.00    +0.000 NA
ATOM     15  C   UNL     1       0.607  12.095  20.903  0.00  0.00    +0.000 A 
BRANCH  13  16
ATOM     16  O   UNL     1      -1.370  13.006  23.729  0.00  0.00    +0.000 OA
ATOM     17  C   UNL     1      -1.072  14.397  23.610  0.00  0.00    +0.000 C 
ENDBRANCH  13  16
ENDBRANCH   8  10
BRANCH   1  18
ATOM     18  C   UNL     1       3.294   4.897  18.920  0.00  0.00    +0.000 C 
BRANCH  18  21
ATOM     19  C   UNL     1       5.548   4.421  18.104  0.00  0.00    +0.000 C 
ATOM     20  O   UNL     1       5.856   3.956  19.202  0.00  0.00    +0.000 OA
ATOM     21  N   UNL     1       4.293   4.944  17.874  0.00  0.00    +0.000 N 
ATOM     22  H   UNL     1       4.016   5.245  16.951  0.00  0.00    +0.000 HD
BRANCH  19  23
ATOM     23  C   UNL     1       6.543   4.500  16.930  0.00  0.00    +0.000 C 
BRANCH  23  24
ATOM     24  C   UNL     1       5.921   3.820  15.681  0.00  0.00    +0.000 C 
BRANCH  24  26
ATOM     25  C   UNL     1       6.214   3.604  13.179  0.00  0.00    +0.000 C 
ATOM     26  C   UNL     1       6.117   4.568  14.359  0.00  0.00    +0.000 C 
ENDBRANCH  24  26
ENDBRANCH  23  24
BRANCH  23  27
ATOM     27  C   UNL     1       7.040   5.941  16.682  0.00  0.00    +0.000 C 
BRANCH  27  28
ATOM     28  C   UNL     1       7.458   6.692  17.949  0.00  0.00    +0.000 C 
ATOM     29  C   UNL     1       7.816   8.142  17.650  0.00  0.00    +0.000 C 
ENDBRANCH  27  28
ENDBRANCH  23  27
ENDBRANCH  19  23
ENDBRANCH  18  21
ENDBRANCH   1  18
TORSDOF 9
ENDMDL
MODEL 2
REMARK VINA RESULT:      -7.9      0.947      1.093
REMARK  Name = 
REMARK  12 active torsions:
REMARK  status: ('A' for Active; 'I' for Inactive)
REMARK    1  A    between atoms: C_1  and  C_2
REMARK    2  A    between atoms: C_2  and  C_3
REMARK    3  A    between atoms: C_3  and  C_4
REMARK    4  A    between atoms: C_4  and  C_5
REMARK    5  A    between atoms: C_4  and  C_8
REMARK    6  A    between atoms: C_5  and  C_6
REMARK    7  A    between atoms: C_6  and  C_7
REMARK    8  A    between atoms: N_10  and  C_11
REMARK    9  A    between atoms: C_11  and  C_12
REMARK   10  A    between atoms: N_19  and  C_20
REMARK   11  A    between atoms: C_23  and  O_24
REMARK   12  A    between atoms: O_24  and  C_25
REMARK                            x       y       z     vdW  Elec       q    Type
REMARK                         _______ _______ _______ _____ _____    ______ ____
ROOT
ATOM      1  C   UNL     1       2.762   6.186  19.417  0.00  0.00    +0.000 A 
ATOM      2  C   UNL     1       1.991   6.384  20.568  0.00  0.00    +0.000 A 
ATOM      3  C   UNL     1       1.267   7.565  20.769  0.00  0.00    +0.000 A 
ATOM      4  C   UNL     1       1.328   8.563  19.781  0.00  0.00    +0.000 A 
ATOM      5  C   UNL     1       2.066   8.381  18.614  0.00  0.00    +0.000 A 
ATOM      6  C   UNL     1       1.788   9.527  17.841  0.00  0.00    +0.000 A 
ATOM      7  N   UNL     1       0.910  10.343  18.420  0.00  0.00    +0.000 NA
ATOM      8  N   UNL     1       0.717   9.810  19.653  0.00  0.00    +0.000 N 
ATOM      9  C   UNL     1       2.819   7.203  18.443  0.00  0.00    +0.000 A 
ENDROOT
BRANCH   8  10
ATOM     10  C   UNL     1      -0.003  10.524  20.631  0.00  0.00    +0.000 A 
ATOM     11  C   UNL     1      -0.958  11.478  20.277  0.00  0.00    +0.000 A 
ATOM     12  C   UNL     1      -1.634  12.167  21.286  0.00  0.00    +0.000 A 
ATOM     13  C   UNL     1      -1.295  11.902  22.607  0.00  0.00    +0.000 A 
ATOM     14  N   UNL     1      -0.365  10.993  22.971  0.00  0.00    +0.000 NA
ATOM     15  C   UNL     1       0.259  10.325  21.978  0.00  0.00    +0.000 A 
BRANCH  13  16
ATOM     16  O   UNL     1      -1.950  12.620  23.583  0.00  0.00    +0.000 OA
ATOM     17  C   UNL     1      -3.344  12.317  23.633  0.00  0.00    +0.000 C 
ENDBRANCH  13  16
ENDBRANCH   8  10
BRANCH   1  18
ATOM     18  C   UNL     1       3.472   4.874  19.195  0.00  0.00    +0.000 C 
BRANCH  18  21
ATOM     19  C   UNL     1       5.822   4.932  18.528  0.00  0.00    +0.000 C 
ATOM     20  O   UNL     1       6.166   4.905  19.710  0.00  0.00    +0.000 OA
ATOM     21  N   UNL     1       4.490   4.947  18.170  0.00  0.00    +0.000 N 
ATOM     22  H   UNL     1       4.211   4.883  17.202  0.00  0.00    +0.000 HD
BRANCH  19  23
ATOM     23  C   UNL     1       6.838   4.999  17.371  0.00  0.00    +0.000 C 
BRANCH  23  24
ATOM     24  C   UNL     1       6.305   4.172  16.170  0.00  0.00    +0.000 C 
BRANCH  24  26
ATOM     25  C   UNL     1       6.234   3.869  13.661  0.00  0.00    +0.000 C 
ATOM     26  C   UNL     1       6.386   4.866  14.807  0.00  0.00    +0.000 C 
ENDBRANCH  24  26
ENDBRANCH  23  24
BRANCH  23  27
ATOM     27  C   UNL     1       7.222   6.452  17.016  0.00  0.00    +0.000 C 
BRANCH  27  28
ATOM     28  C   UNL     1       7.922   7.214  18.145  0.00  0.00    +0.000 C 
ATOM     29  C   UNL     1       8.053   8.698  17.824  0.00  0.00    +0.000 C 
ENDBRANCH  27  28
ENDBRANCH  23  27
ENDBRANCH  19  23
ENDBRANCH  18  21
ENDBRANCH   1  18
TORSDOF 9
ENDMDL
MODEL 3
REMARK VINA RESULT:      -7.6      1.308      1.546
REMARK  Name = 
REMARK  12 active torsions:
REMARK  status: ('A' for Active; 'I' for Inactive)
REMARK    1  A    between atoms: C_1  and  C_2
REMARK    2  A    between atoms: C_2  and  C_3
REMARK    3  A    between atoms: C_3  and  C_4
REMARK    4  A    between atoms: C_4  and  C_5
REMARK    5  A    between atoms: C_4  and  C_8
REMARK    6  A    between atoms: C_5  and  C_6
REMARK    7  A    between atoms: C_6  and  C_7
REMARK    8  A    between atoms: N_10  and  C_11
REMARK    9  A    between atoms: C_11  and  C_12
REMARK   10  A    between atoms: N_19  and  C_20
REMARK   11  A    between atoms: C_23  and  O_24
REMARK   12  A    between atoms: O_24  and  C_25
REMARK                            x       y       z     vdW  Elec       q    Type
REMARK                         _______ _______ _______ _____ _____    ______ ____
ROOT
ATOM      1  C   UNL     1       3.241   5.250  19.355  0.00  0.00    +0.000 A 
ATOM      2  C   UNL     1       2.447   5.470  20.485  0.00  0.00    +0.000 A 
ATOM      3  C   UNL     1       1.765   6.677  20.677  0.00  0.00    +0.000 A 
ATOM      4  C   UNL     1       1.894   7.680  19.701  0.00  0.00    +0.000 A 
ATOM      5  C   UNL     1       2.657   7.478  18.553  0.00  0.00    +0.000 A 
ATOM      6  C   UNL     1       2.448   8.640  17.783  0.00  0.00    +0.000 A 
ATOM      7  N   UNL     1       1.587   9.486  18.344  0.00  0.00    +0.000 NA
ATOM      8  N   UNL     1       1.338   8.951  19.566  0.00  0.00    +0.000 N 
ATOM      9  C   UNL     1       3.367   6.272  18.393  0.00  0.00    +0.000 A 
ENDROOT
BRANCH   8  10
ATOM     10  C   UNL     1       0.619   9.686  20.531  0.00  0.00    +0.000 A 
ATOM     11  C   UNL     1      -0.488  10.460  20.176  0.00  0.00    +0.000 A 
ATOM     12  C   UNL     1      -1.156  11.179  21.169  0.00  0.00    +0.000 A 
ATOM     13  C   UNL     1      -0.663  11.127  22.467  0.00  0.00    +0.000 A 
ATOM     14  N   UNL     1       0.412  10.396  22.828  0.00  0.00    +0.000 NA
ATOM     15  C   UNL     1       1.029   9.692  21.854  0.00  0.00    +0.000 A 
BRANCH  13  16
ATOM     16  O   UNL     1      -1.319  11.873  23.421  0.00  0.00    +0.000 OA
ATOM     17  C   UNL     1      -1.219  13.276  23.173  0.00  0.00    +0.000 C 
ENDBRANCH  13  16
ENDBRANCH   8  10
BRANCH   1  18
ATOM     18  C   UNL     1       3.904   3.912  19.141  0.00  0.00    +0.000 C 
BRANCH  18  21
ATOM     19  C   UNL     1       4.801   3.801  16.871  0.00  0.00    +0.000 C 
ATOM     20  O   UNL     1       3.679   3.549  16.432  0.00  0.00    +0.000 OA
ATOM     21  N   UNL     1       5.020   3.973  18.222  0.00  0.00    +0.000 N 
ATOM     22  H   UNL     1       5.922   4.264  18.570  0.00  0.00    +0.000 HD
BRANCH  19  23
ATOM     23  C   UNL     1       6.044   3.897  15.964  0.00  0.00    +0.000 C 
BRANCH  23  24
ATOM     24  C   UNL     1       5.653   4.578  14.625  0.00  0.00    +0.000 C 
BRANCH  24  26
ATOM     25  C   UNL     1       6.886   3.992  12.497  0.00  0.00    +0.000 C 
ATOM     26  C   UNL     1       5.691   3.671  13.391  0.00  0.00    +0.000 C 
ENDBRANCH  24  26
ENDBRANCH  23  24
BRANCH  23  27
ATOM     27  C   UNL     1       7.240   4.557  16.682  0.00  0.00    +0.000 C 
BRANCH  27  28
ATOM     28  C   UNL     1       7.217   6.088  16.674  0.00  0.00    +0.000 C 
ATOM     29  C   UNL     1       7.494   6.662  18.058  0.00  0.00    +0.000 C 
ENDBRANCH  27  28
ENDBRANCH  23  27
ENDBRANCH  19  23
ENDBRANCH  18  21
ENDBRANCH   1  18
TORSDOF 9
ENDMDL
MODEL 4
REMARK VINA RESULT:      -7.6      3.518      9.837
REMARK  Name = 
REMARK  12 active torsions:
REMARK  status: ('A' for Active; 'I' for Inactive)
REMARK    1  A    between atoms: C_1  and  C_2
REMARK    2  A    between atoms: C_2  and  C_3
REMARK    3  A    between atoms: C_3  and  C_4
REMARK    4  A    between atoms: C_4  and  C_5
REMARK    5  A    between atoms: C_4  and  C_8
REMARK    6  A    between atoms: C_5  and  C_6
REMARK    7  A    between atoms: C_6  and  C_7
REMARK    8  A    between atoms: N_10  and  C_11
REMARK    9  A    between atoms: C_11  and  C_12
REMARK   10  A    between atoms: N_19  and  C_20
REMARK   11  A    between atoms: C_23  and  O_24
REMARK   12  A    between atoms: O_24  and  C_25
REMARK                            x       y       z     vdW  Elec       q    Type
REMARK                         _______ _______ _______ _____ _____    ______ ____
ROOT
ATOM      1  C   UNL     1       1.161   9.306  19.207  0.00  0.00    +0.000 A 
ATOM      2  C   UNL     1       1.847   9.338  17.989  0.00  0.00    +0.000 A 
ATOM      3  C   UNL     1       2.734   8.319  17.620  0.00  0.00    +0.000 A 
ATOM      4  C   UNL     1       2.926   7.248  18.509  0.00  0.00    +0.000 A 
ATOM      5  C   UNL     1       2.235   7.177  19.717  0.00  0.00    +0.000 A 
ATOM      6  C   UNL     1       2.602   5.927  20.258  0.00  0.00    +0.000 A 
ATOM      7  N   UNL     1       3.401   5.229  19.455  0.00  0.00    +0.000 NA
ATOM      8  N   UNL     1       3.689   6.083  18.440  0.00  0.00    +0.000 N 
ATOM      9  C   UNL     1       1.376   8.228  20.089  0.00  0.00    +0.000 A 
ENDROOT
BRANCH   8  10
ATOM     10  C   UNL     1       4.681   5.754  17.494  0.00  0.00    +0.000 A 
ATOM     11  C   UNL     1       4.621   4.567  16.763  0.00  0.00    +0.000 A 
ATOM     12  C   UNL     1       5.638   4.284  15.848  0.00  0.00    +0.000 A 
ATOM     13  C   UNL     1       6.693   5.180  15.736  0.00  0.00    +0.000 A 
ATOM     14  N   UNL     1       6.777   6.327  16.444  0.00  0.00    +0.000 NA
ATOM     15  C   UNL     1       5.771   6.589  17.306  0.00  0.00    +0.000 A 
BRANCH  13  16
ATOM     16  O   UNL     1       7.701   4.861  14.854  0.00  0.00    +0.000 OA
ATOM     17  C   UNL     1       7.240   4.803  13.504  0.00  0.00    +0.000 C 
ENDBRANCH  13  16
ENDBRANCH   8  10
BRANCH   1  18
ATOM     18  C   UNL     1       0.158  10.381  19.542  0.00  0.00    +0.000 C 
BRANCH  18  21
ATOM     19  C   UNL     1      -1.861  11.002  18.315  0.00  0.00    +0.000 C 
ATOM     20  O   UNL     1      -1.379  12.107  18.064  0.00  0.00    +0.000 OA
ATOM     21  N   UNL     1      -1.176  10.077  19.073  0.00  0.00    +0.000 N 
ATOM     22  H   UNL     1      -1.536   9.142  19.204  0.00  0.00    +0.000 HD
BRANCH  19  23
ATOM     23  C   UNL     1      -3.270  10.588  17.846  0.00  0.00    +0.000 C 
BRANCH  23  24
ATOM     24  C   UNL     1      -4.210  11.822  17.886  0.00  0.00    +0.000 C 
BRANCH  24  26
ATOM     25  C   UNL     1      -6.640  11.203  18.202  0.00  0.00    +0.000 C 
ATOM     26  C   UNL     1      -5.376  11.729  18.875  0.00  0.00    +0.000 C 
ENDBRANCH  24  26
ENDBRANCH  23  24
BRANCH  23  27
ATOM     27  C   UNL     1      -3.241   9.861  16.484  0.00  0.00    +0.000 C 
BRANCH  27  28
ATOM     28  C   UNL     1      -3.240  10.793  15.269  0.00  0.00    +0.000 C 
ATOM     29  C   UNL     1      -3.239  10.012  13.962  0.00  0.00    +0.000 C 
ENDBRANCH  27  28
ENDBRANCH  23  27
ENDBRANCH  19  23
ENDBRANCH  18  21
ENDBRANCH   1  18
TORSDOF 9
ENDMDL
MODEL 5
REMARK VINA RESULT:      -7.5      2.631      4.932
REMARK  Name = 
REMARK  12 active torsions:
REMARK  status: ('A' for Active; 'I' for Inactive)
REMARK    1  A    between atoms: C_1  and  C_2
REMARK    2  A    between atoms: C_2  and  C_3
REMARK    3  A    between atoms: C_3  and  C_4
REMARK    4  A    between atoms: C_4  and  C_5
REMARK    5  A    between atoms: C_4  and  C_8
REMARK    6  A    between atoms: C_5  and  C_6
REMARK    7  A    between atoms: C_6  and  C_7
REMARK    8  A    between atoms: N_10  and  C_11
REMARK    9  A    between atoms: C_11  and  C_12
REMARK   10  A    between atoms: N_19  and  C_20
REMARK   11  A    between atoms: C_23  and  O_24
REMARK   12  A    between atoms: O_24  and  C_25
REMARK                            x       y       z     vdW  Elec       q    Type
REMARK                         _______ _______ _______ _____ _____    ______ ____
ROOT
ATOM      1  C   UNL     1       5.509   5.010  16.924  0.00  0.00    +0.000 A 
ATOM      2  C   UNL     1       5.300   6.368  16.660  0.00  0.00    +0.000 A 
ATOM      3  C   UNL     1       4.331   7.106  17.349  0.00  0.00    +0.000 A 
ATOM      4  C   UNL     1       3.559   6.450  18.323  0.00  0.00    +0.000 A 
ATOM      5  C   UNL     1       3.765   5.106  18.625  0.00  0.00    +0.000 A 
ATOM      6  C   UNL     1       2.900   4.853  19.709  0.00  0.00    +0.000 A 
ATOM      7  N   UNL     1       2.243   5.938  20.113  0.00  0.00    +0.000 NA
ATOM      8  N   UNL     1       2.561   6.885  19.194  0.00  0.00    +0.000 N 
ATOM      9  C   UNL     1       4.718   4.368  17.897  0.00  0.00    +0.000 A 
ENDROOT
BRANCH   8  10
ATOM     10  C   UNL     1       1.884   8.121  19.185  0.00  0.00    +0.000 A 
ATOM     11  C   UNL     1       1.740   8.861  18.009  0.00  0.00    +0.000 A 
ATOM     12  C   UNL     1       1.071  10.086  18.058  0.00  0.00    +0.000 A 
ATOM     13  C   UNL     1       0.612  10.538  19.289  0.00  0.00    +0.000 A 
ATOM     14  N   UNL     1       0.752   9.845  20.438  0.00  0.00    +0.000 NA
ATOM     15  C   UNL     1       1.384   8.654  20.362  0.00  0.00    +0.000 A 
BRANCH  13  16
ATOM     16  O   UNL     1      -0.012  11.766  19.317  0.00  0.00    +0.000 OA
ATOM     17  C   UNL     1      -1.191  11.791  18.512  0.00  0.00    +0.000 C 
ENDBRANCH  13  16
ENDBRANCH   8  10
BRANCH   1  18
ATOM     18  C   UNL     1       6.611   4.260  16.217  0.00  0.00    +0.000 C 
BRANCH  18  21
ATOM     19  C   UNL     1       6.474   4.085  13.783  0.00  0.00    +0.000 C 
ATOM     20  O   UNL     1       7.101   5.138  13.664  0.00  0.00    +0.000 OA
ATOM     21  N   UNL     1       6.156   3.577  15.025  0.00  0.00    +0.000 N 
ATOM     22  H   UNL     1       5.718   2.672  15.120  0.00  0.00    +0.000 HD
BRANCH  19  23
ATOM     23  C   UNL     1       5.961   3.285  12.570  0.00  0.00    +0.000 C 
BRANCH  23  24
ATOM     24  C   UNL     1       4.583   3.847  12.127  0.00  0.00    +0.000 C 
BRANCH  24  26
ATOM     25  C   UNL     1       2.959   2.896  10.440  0.00  0.00    +0.000 C 
ATOM     26  C   UNL     1       4.252   3.681  10.641  0.00  0.00    +0.000 C 
ENDBRANCH  24  26
ENDBRANCH  23  24
BRANCH  23  27
ATOM     27  C   UNL     1       7.006   3.211  11.436  0.00  0.00    +0.000 C 
BRANCH  27  28
ATOM     28  C   UNL     1       7.290   1.795  10.927  0.00  0.00    +0.000 C 
ATOM     29  C   UNL     1       6.221   0.810  11.382  0.00  0.00    +0.000 C 
ENDBRANCH  27  28
ENDBRANCH  23  27
ENDBRANCH  19  23
ENDBRANCH  18  21
ENDBRANCH   1  18
TORSDOF 9
ENDMDL
MODEL 6
REMARK VINA RESULT:      -7.5      1.944      2.611
REMARK  Name = 
REMARK  12 active torsions:
REMARK  status: ('A' for Active; 'I' for Inactive)
REMARK    1  A    between atoms: C_1  and  C_2
REMARK    2  A    between atoms: C_2  and  C_3
REMARK    3  A    between atoms: C_3  and  C_4
REMARK    4  A    between atoms: C_4  and  C_5
REMARK    5  A    between atoms: C_4  and  C_8
REMARK    6  A    between atoms: C_5  and  C_6
REMARK    7  A    between atoms: C_6  and  C_7
REMARK    8  A    between atoms: N_10  and  C_11
REMARK    9  A    between atoms: C_11  and  C_12
REMARK   10  A    between atoms: N_19  and  C_20
REMARK   11  A    between atoms: C_23  and  O_24
REMARK   12  A    between atoms: O_24  and  C_25
REMARK                            x       y       z     vdW  Elec       q    Type
REMARK                         _______ _______ _______ _____ _____    ______ ____
ROOT
ATOM      1  C   UNL     1       2.385   6.367  19.247  0.00  0.00    +0.000 A 
ATOM      2  C   UNL     1       2.460   7.392  18.298  0.00  0.00    +0.000 A 
ATOM      3  C   UNL     1       2.004   8.686  18.579  0.00  0.00    +0.000 A 
ATOM      4  C   UNL     1       1.460   8.940  19.850  0.00  0.00    +0.000 A 
ATOM      5  C   UNL     1       1.398   7.945  20.823  0.00  0.00    +0.000 A 
ATOM      6  C   UNL     1       0.911   8.605  21.969  0.00  0.00    +0.000 A 
ATOM      7  N   UNL     1       0.733   9.910  21.780  0.00  0.00    +0.000 NA
ATOM      8  N   UNL     1       0.960  10.092  20.454  0.00  0.00    +0.000 N 
ATOM      9  C   UNL     1       1.826   6.640  20.511  0.00  0.00    +0.000 A 
ENDROOT
BRANCH   8  10
ATOM     10  C   UNL     1       0.664  11.329  19.846  0.00  0.00    +0.000 A 
ATOM     11  C   UNL     1       1.652  12.295  19.647  0.00  0.00    +0.000 A 
ATOM     12  C   UNL     1       1.301  13.508  19.051  0.00  0.00    +0.000 A 
ATOM     13  C   UNL     1      -0.031  13.720  18.720  0.00  0.00    +0.000 A 
ATOM     14  N   UNL     1      -1.003  12.805  18.916  0.00  0.00    +0.000 NA
ATOM     15  C   UNL     1      -0.636  11.631  19.473  0.00  0.00    +0.000 A 
BRANCH  13  16
ATOM     16  O   UNL     1      -0.357  14.939  18.167  0.00  0.00    +0.000 OA
ATOM     17  C   UNL     1       0.131  16.033  18.943  0.00  0.00    +0.000 C 
ENDBRANCH  13  16
ENDBRANCH   8  10
BRANCH   1  18
ATOM     18  C   UNL     1       2.952   5.004  18.938  0.00  0.00    +0.000 C 
BRANCH  18  21
ATOM     19  C   UNL     1       5.240   4.519  18.233  0.00  0.00    +0.000 C 
ATOM     20  O   UNL     1       5.496   4.064  19.348  0.00  0.00    +0.000 OA
ATOM     21  N   UNL     1       3.998   5.039  17.939  0.00  0.00    +0.000 N 
ATOM     22  H   UNL     1       3.765   5.332  17.001  0.00  0.00    +0.000 HD
BRANCH  19  23
ATOM     23  C   UNL     1       6.289   4.585  17.105  0.00  0.00    +0.000 C 
BRANCH  23  24
ATOM     24  C   UNL     1       5.758   3.823  15.862  0.00  0.00    +0.000 C 
BRANCH  24  26
ATOM     25  C   UNL     1       6.221   3.883  13.377  0.00  0.00    +0.000 C 
ATOM     26  C   UNL     1       5.665   4.649  14.575  0.00  0.00    +0.000 C 
ENDBRANCH  24  26
ENDBRANCH  23  24
BRANCH  23  27
ATOM     27  C   UNL     1       6.740   6.032  16.814  0.00  0.00    +0.000 C 
BRANCH  27  28
ATOM     28  C   UNL     1       7.457   6.719  17.980  0.00  0.00    +0.000 C 
ATOM     29  C   UNL     1       7.831   8.156  17.642  0.00  0.00    +0.000 C 
ENDBRANCH  27  28
ENDBRANCH  23  27
ENDBRANCH  19  23
ENDBRANCH  18  21
ENDBRANCH   1  18
TORSDOF 9
ENDMDL
MODEL 7
REMARK VINA RESULT:      -7.5      3.362      9.693
REMARK  Name = 
REMARK  12 active torsions:
REMARK  status: ('A' for Active; 'I' for Inactive)
REMARK    1  A    between atoms: C_1  and  C_2
REMARK    2  A    between atoms: C_2  and  C_3
REMARK    3  A    between atoms: C_3  and  C_4
REMARK    4  A    between atoms: C_4  and  C_5
REMARK    5  A    between atoms: C_4  and  C_8
REMARK    6  A    between atoms: C_5  and  C_6
REMARK    7  A    between atoms: C_6  and  C_7
REMARK    8  A    between atoms: N_10  and  C_11
REMARK    9  A    between atoms: C_11  and  C_12
REMARK   10  A    between atoms: N_19  and  C_20
REMARK   11  A    between atoms: C_23  and  O_24
REMARK   12  A    between atoms: O_24  and  C_25
REMARK                            x       y       z     vdW  Elec       q    Type
REMARK                         _______ _______ _______ _____ _____    ______ ____
ROOT
ATOM      1  C   UNL     1       1.065   9.441  19.514  0.00  0.00    +0.000 A 
ATOM      2  C   UNL     1       1.704   9.410  18.270  0.00  0.00    +0.000 A 
ATOM      3  C   UNL     1       2.510   8.332  17.888  0.00  0.00    +0.000 A 
ATOM      4  C   UNL     1       2.669   7.265  18.788  0.00  0.00    +0.000 A 
ATOM      5  C   UNL     1       2.023   7.257  20.022  0.00  0.00    +0.000 A 
ATOM      6  C   UNL     1       2.331   5.996  20.572  0.00  0.00    +0.000 A 
ATOM      7  N   UNL     1       3.053   5.235  19.753  0.00  0.00    +0.000 NA
ATOM      8  N   UNL     1       3.354   6.053  18.712  0.00  0.00    +0.000 N 
ATOM      9  C   UNL     1       1.246   8.367  20.407  0.00  0.00    +0.000 A 
ENDROOT
BRANCH   8  10
ATOM     10  C   UNL     1       4.287   5.647  17.736  0.00  0.00    +0.000 A 
ATOM     11  C   UNL     1       5.401   6.430  17.427  0.00  0.00    +0.000 A 
ATOM     12  C   UNL     1       6.286   5.987  16.442  0.00  0.00    +0.000 A 
ATOM     13  C   UNL     1       5.996   4.801  15.779  0.00  0.00    +0.000 A 
ATOM     14  N   UNL     1       4.918   4.037  16.053  0.00  0.00    +0.000 NA
ATOM     15  C   UNL     1       4.088   4.475  17.024  0.00  0.00    +0.000 A 
BRANCH  13  16
ATOM     16  O   UNL     1       6.866   4.404  14.787  0.00  0.00    +0.000 OA
ATOM     17  C   UNL     1       6.182   3.916  13.632  0.00  0.00    +0.000 C 
ENDBRANCH  13  16
ENDBRANCH   8  10
BRANCH   1  18
ATOM     18  C   UNL     1       0.144  10.583  19.867  0.00  0.00    +0.000 C 
BRANCH  18  21
ATOM     19  C   UNL     1      -1.576  11.480  18.381  0.00  0.00    +0.000 C 
ATOM     20  O   UNL     1      -0.892  12.484  18.183  0.00  0.00    +0.000 OA
ATOM     21  N   UNL     1      -1.152  10.481  19.233  0.00  0.00    +0.000 N 
ATOM     22  H   UNL     1      -1.674   9.622  19.326  0.00  0.00    +0.000 HD
BRANCH  19  23
ATOM     23  C   UNL     1      -2.963  11.282  17.739  0.00  0.00    +0.000 C 
BRANCH  23  24
ATOM     24  C   UNL     1      -3.144   9.790  17.352  0.00  0.00    +0.000 C 
BRANCH  24  26
ATOM     25  C   UNL     1      -3.118  10.786  15.029  0.00  0.00    +0.000 C 
ATOM     26  C   UNL     1      -3.175   9.499  15.849  0.00  0.00    +0.000 C 
ENDBRANCH  24  26
ENDBRANCH  23  24
BRANCH  23  27
ATOM     27  C   UNL     1      -4.099  11.848  18.619  0.00  0.00    +0.000 C 
BRANCH  27  28
ATOM     28  C   UNL     1      -5.454  11.164  18.419  0.00  0.00    +0.000 C 
ATOM     29  C   UNL     1      -6.606  12.153  18.541  0.00  0.00    +0.000 C 
ENDBRANCH  27  28
ENDBRANCH  23  27
ENDBRANCH  19  23
ENDBRANCH  18  21
ENDBRANCH   1  18
TORSDOF 9
ENDMDL
MODEL 8
REMARK VINA RESULT:      -7.4      2.153      9.438
REMARK  Name = 
REMARK  12 active torsions:
REMARK  status: ('A' for Active; 'I' for Inactive)
REMARK    1  A    between atoms: C_1  and  C_2
REMARK    2  A    between atoms: C_2  and  C_3
REMARK    3  A    between atoms: C_3  and  C_4
REMARK    4  A    between atoms: C_4  and  C_5
REMARK    5  A    between atoms: C_4  and  C_8
REMARK    6  A    between atoms: C_5  and  C_6
REMARK    7  A    between atoms: C_6  and  C_7
REMARK    8  A    between atoms: N_10  and  C_11
REMARK    9  A    between atoms: C_11  and  C_12
REMARK   10  A    between atoms: N_19  and  C_20
REMARK   11  A    between atoms: C_23  and  O_24
REMARK   12  A    between atoms: O_24  and  C_25
REMARK                            x       y       z     vdW  Elec       q    Type
REMARK                         _______ _______ _______ _____ _____    ______ ____
ROOT
ATOM      1  C   UNL     1       1.884   6.837  20.370  0.00  0.00    +0.000 A 
ATOM      2  C   UNL     1       2.418   7.476  19.246  0.00  0.00    +0.000 A 
ATOM      3  C   UNL     1       3.282   6.811  18.367  0.00  0.00    +0.000 A 
ATOM      4  C   UNL     1       3.609   5.471  18.638  0.00  0.00    +0.000 A 
ATOM      5  C   UNL     1       3.070   4.803  19.736  0.00  0.00    +0.000 A 
ATOM      6  C   UNL     1       3.532   3.478  19.601  0.00  0.00    +0.000 A 
ATOM      7  N   UNL     1       4.248   3.288  18.495  0.00  0.00    +0.000 NA
ATOM      8  N   UNL     1       4.389   4.531  17.968  0.00  0.00    +0.000 N 
ATOM      9  C   UNL     1       2.233   5.497  20.630  0.00  0.00    +0.000 A 
ENDROOT
BRANCH   8  10
ATOM     10  C   UNL     1       5.270   4.749  16.889  0.00  0.00    +0.000 A 
ATOM     11  C   UNL     1       5.100   4.091  15.669  0.00  0.00    +0.000 A 
ATOM     12  C   UNL     1       6.010   4.335  14.638  0.00  0.00    +0.000 A 
ATOM     13  C   UNL     1       7.074   5.192  14.885  0.00  0.00    +0.000 A 
ATOM     14  N   UNL     1       7.263   5.828  16.060  0.00  0.00    +0.000 NA
ATOM     15  C   UNL     1       6.359   5.593  17.035  0.00  0.00    +0.000 A 
BRANCH  13  16
ATOM     16  O   UNL     1       7.977   5.388  13.863  0.00  0.00    +0.000 OA
ATOM     17  C   UNL     1       7.469   4.952  12.602  0.00  0.00    +0.000 C 
ENDBRANCH  13  16
ENDBRANCH   8  10
BRANCH   1  18
ATOM     18  C   UNL     1       0.900   7.558  21.256  0.00  0.00    +0.000 C 
BRANCH  18  21
ATOM     19  C   UNL     1       0.668   9.991  21.262  0.00  0.00    +0.000 C 
ATOM     20  O   UNL     1       1.297  10.056  22.319  0.00  0.00    +0.000 OA
ATOM     21  N   UNL     1       0.394   8.778  20.665  0.00  0.00    +0.000 N 
ATOM     22  H   UNL     1      -0.046   8.733  19.757  0.00  0.00    +0.000 HD
BRANCH  19  23
ATOM     23  C   UNL     1       0.102  11.239  20.556  0.00  0.00    +0.000 C 
BRANCH  23  24
ATOM     24  C   UNL     1      -1.143  10.839  19.721  0.00  0.00    +0.000 C 
BRANCH  24  26
ATOM     25  C   UNL     1      -1.522   9.985  17.372  0.00  0.00    +0.000 C 
ATOM     26  C   UNL     1      -1.065  11.165  18.226  0.00  0.00    +0.000 C 
ENDBRANCH  24  26
ENDBRANCH  23  24
BRANCH  23  27
ATOM     27  C   UNL     1      -0.145  12.403  21.540  0.00  0.00    +0.000 C 
BRANCH  27  28
ATOM     28  C   UNL     1      -1.621  12.655  21.863  0.00  0.00    +0.000 C 
ATOM     29  C   UNL     1      -2.063  11.892  23.105  0.00  0.00    +0.000 C 
ENDBRANCH  27  28
ENDBRANCH  23  27
ENDBRANCH  19  23
ENDBRANCH  18  21
ENDBRANCH   1  18
TORSDOF 9
ENDMDL
MODEL 9
REMARK VINA RESULT:      -7.3      3.715      9.913
REMARK  Name = 
REMARK  12 active torsions:
REMARK  status: ('A' for Active; 'I' for Inactive)
REMARK    1  A    between atoms: C_1  and  C_2
REMARK    2  A    between atoms: C_2  and  C_3
REMARK    3  A    between atoms: C_3  and  C_4
REMARK    4  A    between atoms: C_4  and  C_5
REMARK    5  A    between atoms: C_4  and  C_8
REMARK    6  A    between atoms: C_5  and  C_6
REMARK    7  A    between atoms: C_6  and  C_7
REMARK    8  A    between atoms: N_10  and  C_11
REMARK    9  A    between atoms: C_11  and  C_12
REMARK   10  A    between atoms: N_19  and  C_20
REMARK   11  A    between atoms: C_23  and  O_24
REMARK   12  A    between atoms: O_24  and  C_25
REMARK                            x       y       z     vdW  Elec       q    Type
REMARK                         _______ _______ _______ _____ _____    ______ ____
ROOT
ATOM      1  C   UNL     1       0.933   9.398  19.148  0.00  0.00    +0.000 A 
ATOM      2  C   UNL     1       1.641   9.340  17.942  0.00  0.00    +0.000 A 
ATOM      3  C   UNL     1       2.562   8.318  17.683  0.00  0.00    +0.000 A 
ATOM      4  C   UNL     1       2.768   7.338  18.669  0.00  0.00    +0.000 A 
ATOM      5  C   UNL     1       2.057   7.356  19.867  0.00  0.00    +0.000 A 
ATOM      6  C   UNL     1       2.447   6.172  20.525  0.00  0.00    +0.000 A 
ATOM      7  N   UNL     1       3.281   5.428  19.802  0.00  0.00    +0.000 NA
ATOM      8  N   UNL     1       3.564   6.195  18.719  0.00  0.00    +0.000 N 
ATOM      9  C   UNL     1       1.161   8.411  20.128  0.00  0.00    +0.000 A 
ENDROOT
BRANCH   8  10
ATOM     10  C   UNL     1       4.582   5.811  17.823  0.00  0.00    +0.000 A 
ATOM     11  C   UNL     1       5.794   6.502  17.763  0.00  0.00    +0.000 A 
ATOM     12  C   UNL     1       6.764   6.087  16.848  0.00  0.00    +0.000 A 
ATOM     13  C   UNL     1       6.464   5.027  16.002  0.00  0.00    +0.000 A 
ATOM     14  N   UNL     1       5.294   4.355  16.035  0.00  0.00    +0.000 NA
ATOM     15  C   UNL     1       4.380   4.760  16.942  0.00  0.00    +0.000 A 
BRANCH  13  16
ATOM     16  O   UNL     1       7.423   4.661  15.084  0.00  0.00    +0.000 OA
ATOM     17  C   UNL     1       6.876   4.462  13.780  0.00  0.00    +0.000 C 
ENDBRANCH  13  16
ENDBRANCH   8  10
BRANCH   1  18
ATOM     18  C   UNL     1      -0.106  10.469  19.367  0.00  0.00    +0.000 C 
BRANCH  18  21
ATOM     19  C   UNL     1      -1.990  11.274  18.036  0.00  0.00    +0.000 C 
ATOM     20  O   UNL     1      -1.577  12.429  18.136  0.00  0.00    +0.000 OA
ATOM     21  N   UNL     1      -1.334  10.223  18.642  0.00  0.00    +0.000 N 
ATOM     22  H   UNL     1      -1.625   9.269  18.488  0.00  0.00    +0.000 HD
BRANCH  19  23
ATOM     23  C   UNL     1      -3.282  10.918  17.273  0.00  0.00    +0.000 C 
BRANCH  23  24
ATOM     24  C   UNL     1      -4.499  11.551  17.999  0.00  0.00    +0.000 C 
BRANCH  24  26
ATOM     25  C   UNL     1      -6.926  12.196  17.714  0.00  0.00    +0.000 C 
ATOM     26  C   UNL     1      -5.535  12.217  17.088  0.00  0.00    +0.000 C 
ENDBRANCH  24  26
ENDBRANCH  23  24
BRANCH  23  27
ATOM     27  C   UNL     1      -3.189  11.271  15.773  0.00  0.00    +0.000 C 
BRANCH  27  28
ATOM     28  C   UNL     1      -2.961  10.067  14.854  0.00  0.00    +0.000 C 
ATOM     29  C   UNL     1      -4.032   9.972  13.776  0.00  0.00    +0.000 C 
ENDBRANCH  27  28
ENDBRANCH  23  27
ENDBRANCH  19  23
ENDBRANCH  18  21
ENDBRANCH   1  18
TORSDOF 9
ENDMDL
