MODEL 1
REMARK VINA RESULT:      -6.2      0.000      0.000
REMARK  Name = 
REMARK  6 active torsions:
REMARK  status: ('A' for Active; 'I' for Inactive)
REMARK    1  A    between atoms: C_1  and  O_2
REMARK    2  A    between atoms: O_2  and  C_3
REMARK    3  A    between atoms: C_3  and  C_4
REMARK    4  A    between atoms: C_4  and  N_5
REMARK    5  A    between atoms: C_11  and  C_13
REMARK    6  A    between atoms: C_20  and  C_21
REMARK                            x       y       z     vdW  Elec       q    Type
REMARK                         _______ _______ _______ _____ _____    ______ ____
ROOT
ATOM      1  N   UNL     1      -0.301   9.690  19.728  0.00  0.00    +0.000 NA
ATOM      2  C   UNL     1       0.869  10.438  19.207  0.00  0.00    +0.000 C 
ATOM      3  C   UNL     1       0.170  11.793  19.530  0.00  0.00    +0.000 C 
ATOM      4  C   UNL     1       0.129  12.853  18.406  0.00  0.00    +0.000 C 
ATOM      5  C   UNL     1       1.464  13.590  18.321  0.00  0.00    +0.000 C 
ATOM      6  N   UNL     1       1.748  14.215  19.604  0.00  0.00    +0.000 N 
ATOM      7  C   UNL     1       1.808  15.581  19.917  0.00  0.00    +0.000 C 
ATOM      8  O   UNL     1       2.118  15.961  21.045  0.00  0.00    +0.000 OA
ATOM      9  C   UNL     1       1.921  13.254  20.677  0.00  0.00    +0.000 C 
ATOM     10  C   UNL     1       0.633  12.453  20.856  0.00  0.00    +0.000 C 
ATOM     11  C   UNL     1      -1.144  10.910  19.618  0.00  0.00    +0.000 C 
ENDROOT
BRANCH  11  12
ATOM     12  C   UNL     1      -2.110  10.799  18.307  0.00  0.00    +0.000 A 
ATOM     13  C   UNL     1      -1.833  10.014  17.168  0.00  0.00    +0.000 A 
ATOM     14  C   UNL     1      -2.691  10.022  16.071  0.00  0.00    +0.000 A 
ATOM     15  N   UNL     1      -3.819  10.752  16.010  0.00  0.00    +0.000 NA
ATOM     16  C   UNL     1      -4.104  11.493  17.096  0.00  0.00    +0.000 A 
ATOM     17  C   UNL     1      -3.304  11.544  18.232  0.00  0.00    +0.000 A 
ENDBRANCH  11  12
BRANCH   7  18
ATOM     18  C   UNL     1       1.537  16.563  18.881  0.00  0.00    +0.000 A 
ATOM     19  C   UNL     1       0.342  17.234  18.466  0.00  0.00    +0.000 A 
ATOM     20  C   UNL     1       0.673  17.993  17.378  0.00  0.00    +0.000 A 
ATOM     21  O   UNL     1       2.006  17.948  17.154  0.00  0.00    +0.000 OA
ATOM     22  C   UNL     1       2.527  17.108  18.086  0.00  0.00    +0.000 A 
ENDBRANCH   7  18
BRANCH   1  23
ATOM     23  C   UNL     1      -0.100   9.255  21.123  0.00  0.00    +0.000 C 
BRANCH  23  24
ATOM     24  C   UNL     1       1.285   8.660  21.411  0.00  0.00    +0.000 C 
BRANCH  24  26
ATOM     25  C   UNL     1       2.217   7.085  19.920  0.00  0.00    +0.000 C 
ATOM     26  O   UNL     1       1.292   7.289  20.982  0.00  0.00    +0.000 OA
ENDBRANCH  24  26
ENDBRANCH  23  24
ENDBRANCH   1  23
TORSDOF 5
ENDMDL
MODEL 2
REMARK VINA RESULT:      -6.1      1.214      1.910
REMARK  Name = 
REMARK  6 active torsions:
REMARK  status: ('A' for Active; 'I' for Inactive)
REMARK    1  A    between atoms: C_1  and  O_2
REMARK    2  A    between atoms: O_2  and  C_3
REMARK    3  A    between atoms: C_3  and  C_4
REMARK    4  A    between atoms: C_4  and  N_5
REMARK    5  A    between atoms: C_11  and  C_13
REMARK    6  A    between atoms: C_20  and  C_21
REMARK                            x       y       z     vdW  Elec       q    Type
REMARK                         _______ _______ _______ _____ _____    ______ ____
ROOT
ATOM      1  N   UNL     1       0.288   9.840  19.836  0.00  0.00    +0.000 NA
ATOM      2  C   UNL     1       1.381  10.568  19.146  0.00  0.00    +0.000 C 
ATOM      3  C   UNL     1       0.733  11.934  19.521  0.00  0.00    +0.000 C 
ATOM      4  C   UNL     1       0.549  12.965  18.385  0.00  0.00    +0.000 C 
ATOM      5  C   UNL     1       1.862  13.692  18.106  0.00  0.00    +0.000 C 
ATOM      6  N   UNL     1       2.313  14.349  19.324  0.00  0.00    +0.000 N 
ATOM      7  C   UNL     1       2.417  15.721  19.590  0.00  0.00    +0.000 C 
ATOM      8  O   UNL     1       2.873  16.129  20.657  0.00  0.00    +0.000 OA
ATOM      9  C   UNL     1       2.623  13.415  20.390  0.00  0.00    +0.000 C 
ATOM     10  C   UNL     1       1.367  12.626  20.757  0.00  0.00    +0.000 C 
ATOM     11  C   UNL     1      -0.560  11.062  19.804  0.00  0.00    +0.000 C 
ENDROOT
BRANCH  11  12
ATOM     12  C   UNL     1      -1.689  10.922  18.634  0.00  0.00    +0.000 A 
ATOM     13  C   UNL     1      -2.903  11.641  18.597  0.00  0.00    +0.000 A 
ATOM     14  C   UNL     1      -3.833  11.417  17.586  0.00  0.00    +0.000 A 
ATOM     15  N   UNL     1      -3.657  10.530  16.591  0.00  0.00    +0.000 NA
ATOM     16  C   UNL     1      -2.496   9.849  16.604  0.00  0.00    +0.000 A 
ATOM     17  C   UNL     1      -1.514  10.010  17.575  0.00  0.00    +0.000 A 
ENDBRANCH  11  12
BRANCH   7  18
ATOM     18  C   UNL     1       2.015  16.678  18.572  0.00  0.00    +0.000 A 
ATOM     19  C   UNL     1       0.848  17.492  18.410  0.00  0.00    +0.000 A 
ATOM     20  C   UNL     1       0.981  18.139  17.213  0.00  0.00    +0.000 A 
ATOM     21  O   UNL     1       2.195  17.890  16.670  0.00  0.00    +0.000 OA
ATOM     22  C   UNL     1       2.828  17.033  17.513  0.00  0.00    +0.000 A 
ENDBRANCH   7  18
BRANCH   1  23
ATOM     23  C   UNL     1       0.668   9.440  21.203  0.00  0.00    +0.000 C 
BRANCH  23  24
ATOM     24  C   UNL     1      -0.485   9.457  22.215  0.00  0.00    +0.000 C 
BRANCH  24  26
ATOM     25  C   UNL     1      -1.397  11.391  23.215  0.00  0.00    +0.000 C 
ATOM     26  O   UNL     1      -0.264  10.532  23.142  0.00  0.00    +0.000 OA
ENDBRANCH  24  26
ENDBRANCH  23  24
ENDBRANCH   1  23
TORSDOF 5
ENDMDL
MODEL 3
REMARK VINA RESULT:      -6.0      1.163      1.780
REMARK  Name = 
REMARK  6 active torsions:
REMARK  status: ('A' for Active; 'I' for Inactive)
REMARK    1  A    between atoms: C_1  and  O_2
REMARK    2  A    between atoms: O_2  and  C_3
REMARK    3  A    between atoms: C_3  and  C_4
REMARK    4  A    between atoms: C_4  and  N_5
REMARK    5  A    between atoms: C_11  and  C_13
REMARK    6  A    between atoms: C_20  and  C_21
REMARK                            x       y       z     vdW  Elec       q    Type
REMARK                         _______ _______ _______ _____ _____    ______ ____
ROOT
ATOM      1  N   UNL     1      -0.527   9.940  19.522  0.00  0.00    +0.000 NA
ATOM      2  C   UNL     1       0.584  10.828  19.102  0.00  0.00    +0.000 C 
ATOM      3  C   UNL     1      -0.286  12.087  19.396  0.00  0.00    +0.000 C 
ATOM      4  C   UNL     1      -0.367  13.165  18.291  0.00  0.00    +0.000 C 
ATOM      5  C   UNL     1       0.878  14.049  18.318  0.00  0.00    +0.000 C 
ATOM      6  N   UNL     1       0.997  14.669  19.629  0.00  0.00    +0.000 N 
ATOM      7  C   UNL     1       0.879  16.024  19.970  0.00  0.00    +0.000 C 
ATOM      8  O   UNL     1       1.063  16.407  21.123  0.00  0.00    +0.000 OA
ATOM      9  C   UNL     1       1.202  13.705  20.694  0.00  0.00    +0.000 C 
ATOM     10  C   UNL     1       0.003  12.760  20.764  0.00  0.00    +0.000 C 
ATOM     11  C   UNL     1      -1.494  11.061  19.372  0.00  0.00    +0.000 C 
ENDROOT
BRANCH  11  12
ATOM     12  C   UNL     1      -2.345  10.876  17.992  0.00  0.00    +0.000 A 
ATOM     13  C   UNL     1      -3.561  11.531  17.702  0.00  0.00    +0.000 A 
ATOM     14  C   UNL     1      -4.247  11.271  16.519  0.00  0.00    +0.000 A 
ATOM     15  N   UNL     1      -3.819  10.405  15.582  0.00  0.00    +0.000 NA
ATOM     16  C   UNL     1      -2.652   9.786  15.837  0.00  0.00    +0.000 A 
ATOM     17  C   UNL     1      -1.904   9.986  16.992  0.00  0.00    +0.000 A 
ENDBRANCH  11  12
BRANCH   7  18
ATOM     18  C   UNL     1       0.573  16.996  18.933  0.00  0.00    +0.000 A 
ATOM     19  C   UNL     1       1.393  17.748  18.033  0.00  0.00    +0.000 A 
ATOM     20  C   UNL     1       0.558  18.574  17.333  0.00  0.00    +0.000 A 
ATOM     21  O   UNL     1      -0.734  18.311  17.636  0.00  0.00    +0.000 OA
ATOM     22  C   UNL     1      -0.720  17.334  18.580  0.00  0.00    +0.000 A 
ENDBRANCH   7  18
BRANCH   1  23
ATOM     23  C   UNL     1      -0.378   9.494  20.920  0.00  0.00    +0.000 C 
BRANCH  23  24
ATOM     24  C   UNL     1       1.065   9.176  21.335  0.00  0.00    +0.000 C 
BRANCH  24  26
ATOM     25  C   UNL     1      -0.022   9.558  23.395  0.00  0.00    +0.000 C 
ATOM     26  O   UNL     1       1.230   9.523  22.719  0.00  0.00    +0.000 OA
ENDBRANCH  24  26
ENDBRANCH  23  24
ENDBRANCH   1  23
TORSDOF 5
ENDMDL
MODEL 4
REMARK VINA RESULT:      -5.9      2.514      4.501
REMARK  Name = 
REMARK  6 active torsions:
REMARK  status: ('A' for Active; 'I' for Inactive)
REMARK    1  A    between atoms: C_1  and  O_2
REMARK    2  A    between atoms: O_2  and  C_3
REMARK    3  A    between atoms: C_3  and  C_4
REMARK    4  A    between atoms: C_4  and  N_5
REMARK    5  A    between atoms: C_11  and  C_13
REMARK    6  A    between atoms: C_20  and  C_21
REMARK                            x       y       z     vdW  Elec       q    Type
REMARK                         _______ _______ _______ _____ _____    ______ ____
ROOT
ATOM      1  N   UNL     1      -1.387  11.345  19.665  0.00  0.00    +0.000 NA
ATOM      2  C   UNL     1      -0.663  12.380  20.442  0.00  0.00    +0.000 C 
ATOM      3  C   UNL     1       0.271  12.664  19.227  0.00  0.00    +0.000 C 
ATOM      4  C   UNL     1       1.794  12.684  19.495  0.00  0.00    +0.000 C 
ATOM      5  C   UNL     1       2.210  14.023  20.098  0.00  0.00    +0.000 C 
ATOM      6  N   UNL     1       1.838  15.095  19.186  0.00  0.00    +0.000 N 
ATOM      7  C   UNL     1       2.673  15.953  18.458  0.00  0.00    +0.000 C 
ATOM      8  O   UNL     1       2.208  16.856  17.765  0.00  0.00    +0.000 OA
ATOM      9  C   UNL     1       0.404  15.202  18.996  0.00  0.00    +0.000 C 
ATOM     10  C   UNL     1      -0.128  13.906  18.388  0.00  0.00    +0.000 C 
ATOM     11  C   UNL     1      -0.261  11.268  18.696  0.00  0.00    +0.000 C 
ENDROOT
BRANCH  11  12
ATOM     12  C   UNL     1       0.623   9.926  18.979  0.00  0.00    +0.000 A 
ATOM     13  C   UNL     1       0.716   9.273  20.226  0.00  0.00    +0.000 A 
ATOM     14  C   UNL     1       1.540   8.161  20.388  0.00  0.00    +0.000 A 
ATOM     15  N   UNL     1       2.286   7.633  19.401  0.00  0.00    +0.000 NA
ATOM     16  C   UNL     1       2.193   8.236  18.202  0.00  0.00    +0.000 A 
ATOM     17  C   UNL     1       1.398   9.349  17.953  0.00  0.00    +0.000 A 
ENDBRANCH  11  12
BRANCH   7  18
ATOM     18  C   UNL     1       4.116  15.798  18.555  0.00  0.00    +0.000 A 
ATOM     19  C   UNL     1       5.099  16.368  19.425  0.00  0.00    +0.000 A 
ATOM     20  C   UNL     1       6.316  15.918  18.995  0.00  0.00    +0.000 A 
ATOM     21  O   UNL     1       6.164  15.013  18.002  0.00  0.00    +0.000 OA
ATOM     22  C   UNL     1       4.830  14.920  17.763  0.00  0.00    +0.000 A 
ENDBRANCH   7  18
BRANCH   1  23
ATOM     23  C   UNL     1      -2.627  11.873  19.065  0.00  0.00    +0.000 C 
BRANCH  23  24
ATOM     24  C   UNL     1      -3.310  10.920  18.074  0.00  0.00    +0.000 C 
BRANCH  24  26
ATOM     25  C   UNL     1      -2.640  10.514  15.848  0.00  0.00    +0.000 C 
ATOM     26  O   UNL     1      -3.184  11.468  16.753  0.00  0.00    +0.000 OA
ENDBRANCH  24  26
ENDBRANCH  23  24
ENDBRANCH   1  23
TORSDOF 5
ENDMDL
MODEL 5
REMARK VINA RESULT:      -5.9      2.566      4.662
REMARK  Name = 
REMARK  6 active torsions:
REMARK  status: ('A' for Active; 'I' for Inactive)
REMARK    1  A    between atoms: C_1  and  O_2
REMARK    2  A    between atoms: O_2  and  C_3
REMARK    3  A    between atoms: C_3  and  C_4
REMARK    4  A    between atoms: C_4  and  N_5
REMARK    5  A    between atoms: C_11  and  C_13
REMARK    6  A    between atoms: C_20  and  C_21
REMARK                            x       y       z     vdW  Elec       q    Type
REMARK                         _______ _______ _______ _____ _____    ______ ____
ROOT
ATOM      1  N   UNL     1      -1.348  11.356  19.685  0.00  0.00    +0.000 NA
ATOM      2  C   UNL     1      -0.606  12.395  20.440  0.00  0.00    +0.000 C 
ATOM      3  C   UNL     1       0.319  12.652  19.213  0.00  0.00    +0.000 C 
ATOM      4  C   UNL     1       1.844  12.660  19.466  0.00  0.00    +0.000 C 
ATOM      5  C   UNL     1       2.280  14.004  20.045  0.00  0.00    +0.000 C 
ATOM      6  N   UNL     1       1.910  15.066  19.122  0.00  0.00    +0.000 N 
ATOM      7  C   UNL     1       2.746  15.905  18.373  0.00  0.00    +0.000 C 
ATOM      8  O   UNL     1       2.283  16.803  17.672  0.00  0.00    +0.000 OA
ATOM      9  C   UNL     1       0.475  15.185  18.944  0.00  0.00    +0.000 C 
ATOM     10  C   UNL     1      -0.076  13.886  18.359  0.00  0.00    +0.000 C 
ATOM     11  C   UNL     1      -0.233  11.254  18.707  0.00  0.00    +0.000 C 
ENDROOT
BRANCH  11  12
ATOM     12  C   UNL     1       0.640   9.907  19.000  0.00  0.00    +0.000 A 
ATOM     13  C   UNL     1       0.759   9.284  20.260  0.00  0.00    +0.000 A 
ATOM     14  C   UNL     1       1.571   8.166  20.429  0.00  0.00    +0.000 A 
ATOM     15  N   UNL     1       2.283   7.602  19.436  0.00  0.00    +0.000 NA
ATOM     16  C   UNL     1       2.166   8.176  18.224  0.00  0.00    +0.000 A 
ATOM     17  C   UNL     1       1.379   9.294  17.969  0.00  0.00    +0.000 A 
ENDBRANCH  11  12
BRANCH   7  18
ATOM     18  C   UNL     1       4.188  15.736  18.458  0.00  0.00    +0.000 A 
ATOM     19  C   UNL     1       5.100  14.837  17.818  0.00  0.00    +0.000 A 
ATOM     20  C   UNL     1       6.336  15.085  18.348  0.00  0.00    +0.000 A 
ATOM     21  O   UNL     1       6.292  16.151  19.179  0.00  0.00    +0.000 OA
ATOM     22  C   UNL     1       4.997  16.561  19.216  0.00  0.00    +0.000 A 
ENDBRANCH   7  18
BRANCH   1  23
ATOM     23  C   UNL     1      -2.588  11.888  19.090  0.00  0.00    +0.000 C 
BRANCH  23  24
ATOM     24  C   UNL     1      -2.852  11.427  17.650  0.00  0.00    +0.000 C 
BRANCH  24  26
ATOM     25  C   UNL     1      -5.013  11.685  18.563  0.00  0.00    +0.000 C 
ATOM     26  O   UNL     1      -4.249  11.592  17.365  0.00  0.00    +0.000 OA
ENDBRANCH  24  26
ENDBRANCH  23  24
ENDBRANCH   1  23
TORSDOF 5
ENDMDL
MODEL 6
REMARK VINA RESULT:      -5.8      0.505      1.041
REMARK  Name = 
REMARK  6 active torsions:
REMARK  status: ('A' for Active; 'I' for Inactive)
REMARK    1  A    between atoms: C_1  and  O_2
REMARK    2  A    between atoms: O_2  and  C_3
REMARK    3  A    between atoms: C_3  and  C_4
REMARK    4  A    between atoms: C_4  and  N_5
REMARK    5  A    between atoms: C_11  and  C_13
REMARK    6  A    between atoms: C_20  and  C_21
REMARK                            x       y       z     vdW  Elec       q    Type
REMARK                         _______ _______ _______ _____ _____    ______ ____
ROOT
ATOM      1  N   UNL     1      -0.457   9.889  19.637  0.00  0.00    +0.000 NA
ATOM      2  C   UNL     1       0.681  10.732  19.194  0.00  0.00    +0.000 C 
ATOM      3  C   UNL     1      -0.125  12.024  19.523  0.00  0.00    +0.000 C 
ATOM      4  C   UNL     1      -0.189  13.116  18.430  0.00  0.00    +0.000 C 
ATOM      5  C   UNL     1       1.093  13.945  18.430  0.00  0.00    +0.000 C 
ATOM      6  N   UNL     1       1.274  14.546  19.743  0.00  0.00    +0.000 N 
ATOM      7  C   UNL     1       1.224  15.901  20.099  0.00  0.00    +0.000 C 
ATOM      8  O   UNL     1       1.455  16.265  21.250  0.00  0.00    +0.000 OA
ATOM      9  C   UNL     1       1.465  13.564  20.794  0.00  0.00    +0.000 C 
ATOM     10  C   UNL     1       0.229  12.671  20.888  0.00  0.00    +0.000 C 
ATOM     11  C   UNL     1      -1.377  11.052  19.522  0.00  0.00    +0.000 C 
ENDROOT
BRANCH  11  12
ATOM     12  C   UNL     1      -2.272  10.917  18.164  0.00  0.00    +0.000 A 
ATOM     13  C   UNL     1      -3.482  11.603  17.927  0.00  0.00    +0.000 A 
ATOM     14  C   UNL     1      -4.207  11.385  16.758  0.00  0.00    +0.000 A 
ATOM     15  N   UNL     1      -3.826  10.534  15.789  0.00  0.00    +0.000 NA
ATOM     16  C   UNL     1      -2.664   9.886  15.994  0.00  0.00    +0.000 A 
ATOM     17  C   UNL     1      -1.879  10.043  17.131  0.00  0.00    +0.000 A 
ENDBRANCH  11  12
BRANCH   7  18
ATOM     18  C   UNL     1       0.933  16.896  19.080  0.00  0.00    +0.000 A 
ATOM     19  C   UNL     1      -0.292  17.407  18.543  0.00  0.00    +0.000 A 
ATOM     20  C   UNL     1       0.047  18.274  17.541  0.00  0.00    +0.000 A 
ATOM     21  O   UNL     1       1.388  18.441  17.490  0.00  0.00    +0.000 OA
ATOM     22  C   UNL     1       1.916  17.630  18.444  0.00  0.00    +0.000 A 
ENDBRANCH   7  18
BRANCH   1  23
ATOM     23  C   UNL     1      -0.289   9.423  21.026  0.00  0.00    +0.000 C 
BRANCH  23  24
ATOM     24  C   UNL     1       1.140   8.998  21.387  0.00  0.00    +0.000 C 
BRANCH  24  26
ATOM     25  C   UNL     1       2.128   7.388  19.971  0.00  0.00    +0.000 C 
ATOM     26  O   UNL     1       1.287   7.599  21.100  0.00  0.00    +0.000 OA
ENDBRANCH  24  26
ENDBRANCH  23  24
ENDBRANCH   1  23
TORSDOF 5
ENDMDL
MODEL 7
REMARK VINA RESULT:      -5.8      2.466      4.519
REMARK  Name = 
REMARK  6 active torsions:
REMARK  status: ('A' for Active; 'I' for Inactive)
REMARK    1  A    between atoms: C_1  and  O_2
REMARK    2  A    between atoms: O_2  and  C_3
REMARK    3  A    between atoms: C_3  and  C_4
REMARK    4  A    between atoms: C_4  and  N_5
REMARK    5  A    between atoms: C_11  and  C_13
REMARK    6  A    between atoms: C_20  and  C_21
REMARK                            x       y       z     vdW  Elec       q    Type
REMARK                         _______ _______ _______ _____ _____    ______ ____
ROOT
ATOM      1  N   UNL     1      -1.265  11.194  19.563  0.00  0.00    +0.000 NA
ATOM      2  C   UNL     1      -0.579  12.264  20.328  0.00  0.00    +0.000 C 
ATOM      3  C   UNL     1       0.367  12.544  19.122  0.00  0.00    +0.000 C 
ATOM      4  C   UNL     1       1.884  12.608  19.412  0.00  0.00    +0.000 C 
ATOM      5  C   UNL     1       2.258  13.970  19.991  0.00  0.00    +0.000 C 
ATOM      6  N   UNL     1       1.874  15.012  19.050  0.00  0.00    +0.000 N 
ATOM      7  C   UNL     1       2.699  15.875  18.316  0.00  0.00    +0.000 C 
ATOM      8  O   UNL     1       2.222  16.751  17.596  0.00  0.00    +0.000 OA
ATOM      9  C   UNL     1       0.441  15.080  18.836  0.00  0.00    +0.000 C 
ATOM     10  C   UNL     1      -0.050  13.757  18.249  0.00  0.00    +0.000 C 
ATOM     11  C   UNL     1      -0.123  11.125  18.613  0.00  0.00    +0.000 C 
ENDROOT
BRANCH  11  12
ATOM     12  C   UNL     1       0.789   9.811  18.939  0.00  0.00    +0.000 A 
ATOM     13  C   UNL     1       1.603   9.144  18.000  0.00  0.00    +0.000 A 
ATOM     14  C   UNL     1       2.307   7.996  18.355  0.00  0.00    +0.000 A 
ATOM     15  N   UNL     1       2.274   7.448  19.583  0.00  0.00    +0.000 NA
ATOM     16  C   UNL     1       1.515   8.085  20.494  0.00  0.00    +0.000 A 
ATOM     17  C   UNL     1       0.780   9.234  20.225  0.00  0.00    +0.000 A 
ENDBRANCH  11  12
BRANCH   7  18
ATOM     18  C   UNL     1       4.143  15.757  18.437  0.00  0.00    +0.000 A 
ATOM     19  C   UNL     1       5.102  14.885  17.828  0.00  0.00    +0.000 A 
ATOM     20  C   UNL     1       6.314  15.181  18.386  0.00  0.00    +0.000 A 
ATOM     21  O   UNL     1       6.213  16.252  19.206  0.00  0.00    +0.000 OA
ATOM     22  C   UNL     1       4.904  16.616  19.207  0.00  0.00    +0.000 A 
ENDBRANCH   7  18
BRANCH   1  23
ATOM     23  C   UNL     1      -2.508  11.678  18.933  0.00  0.00    +0.000 C 
BRANCH  23  24
ATOM     24  C   UNL     1      -3.008  10.814  17.767  0.00  0.00    +0.000 C 
BRANCH  24  26
ATOM     25  C   UNL     1      -3.110  10.716  15.412  0.00  0.00    +0.000 C 
ATOM     26  O   UNL     1      -2.689  11.480  16.536  0.00  0.00    +0.000 OA
ENDBRANCH  24  26
ENDBRANCH  23  24
ENDBRANCH   1  23
TORSDOF 5
ENDMDL
MODEL 8
REMARK VINA RESULT:      -5.7      2.491      4.579
REMARK  Name = 
REMARK  6 active torsions:
REMARK  status: ('A' for Active; 'I' for Inactive)
REMARK    1  A    between atoms: C_1  and  O_2
REMARK    2  A    between atoms: O_2  and  C_3
REMARK    3  A    between atoms: C_3  and  C_4
REMARK    4  A    between atoms: C_4  and  N_5
REMARK    5  A    between atoms: C_11  and  C_13
REMARK    6  A    between atoms: C_20  and  C_21
REMARK                            x       y       z     vdW  Elec       q    Type
REMARK                         _______ _______ _______ _____ _____    ______ ____
ROOT
ATOM      1  N   UNL     1      -1.227  11.364  19.742  0.00  0.00    +0.000 NA
ATOM      2  C   UNL     1      -0.488  12.399  20.505  0.00  0.00    +0.000 C 
ATOM      3  C   UNL     1       0.401  12.706  19.263  0.00  0.00    +0.000 C 
ATOM      4  C   UNL     1       1.931  12.741  19.480  0.00  0.00    +0.000 C 
ATOM      5  C   UNL     1       2.353  14.079  20.083  0.00  0.00    +0.000 C 
ATOM      6  N   UNL     1       1.938  15.155  19.196  0.00  0.00    +0.000 N 
ATOM      7  C   UNL     1       2.739  16.031  18.449  0.00  0.00    +0.000 C 
ATOM      8  O   UNL     1       2.240  16.936  17.782  0.00  0.00    +0.000 OA
ATOM      9  C   UNL     1       0.497  15.249  19.055  0.00  0.00    +0.000 C 
ATOM     10  C   UNL     1      -0.041  13.952  18.451  0.00  0.00    +0.000 C 
ATOM     11  C   UNL     1      -0.134  11.310  18.735  0.00  0.00    +0.000 C 
ENDROOT
BRANCH  11  12
ATOM     12  C   UNL     1       0.773   9.976  18.974  0.00  0.00    +0.000 A 
ATOM     13  C   UNL     1       1.558   9.348  17.983  0.00  0.00    +0.000 A 
ATOM     14  C   UNL     1       2.259   8.179  18.263  0.00  0.00    +0.000 A 
ATOM     15  N   UNL     1       2.252   7.572  19.464  0.00  0.00    +0.000 NA
ATOM     16  C   UNL     1       1.521   8.169  20.424  0.00  0.00    +0.000 A 
ATOM     17  C   UNL     1       0.790   9.336  20.229  0.00  0.00    +0.000 A 
ENDBRANCH  11  12
BRANCH   7  18
ATOM     18  C   UNL     1       4.185  15.890  18.495  0.00  0.00    +0.000 A 
ATOM     19  C   UNL     1       5.197  16.512  19.295  0.00  0.00    +0.000 A 
ATOM     20  C   UNL     1       6.400  16.049  18.840  0.00  0.00    +0.000 A 
ATOM     21  O   UNL     1       6.217  15.094  17.900  0.00  0.00    +0.000 OA
ATOM     22  C   UNL     1       4.876  14.979  17.720  0.00  0.00    +0.000 A 
ENDBRANCH   7  18
BRANCH   1  23
ATOM     23  C   UNL     1      -2.492  11.884  19.190  0.00  0.00    +0.000 C 
BRANCH  23  24
ATOM     24  C   UNL     1      -2.817  11.394  17.773  0.00  0.00    +0.000 C 
BRANCH  24  26
ATOM     25  C   UNL     1      -5.030  11.692  17.010  0.00  0.00    +0.000 C 
ATOM     26  O   UNL     1      -4.152  10.866  17.766  0.00  0.00    +0.000 OA
ENDBRANCH  24  26
ENDBRANCH  23  24
ENDBRANCH   1  23
TORSDOF 5
ENDMDL
MODEL 9
REMARK VINA RESULT:      -5.6      2.650      4.684
REMARK  Name = 
REMARK  6 active torsions:
REMARK  status: ('A' for Active; 'I' for Inactive)
REMARK    1  A    between atoms: C_1  and  O_2
REMARK    2  A    between atoms: O_2  and  C_3
REMARK    3  A    between atoms: C_3  and  C_4
REMARK    4  A    between atoms: C_4  and  N_5
REMARK    5  A    between atoms: C_11  and  C_13
REMARK    6  A    between atoms: C_20  and  C_21
REMARK                            x       y       z     vdW  Elec       q    Type
REMARK                         _______ _______ _______ _____ _____    ______ ____
ROOT
ATOM      1  N   UNL     1      -1.228  11.343  19.720  0.00  0.00    +0.000 NA
ATOM      2  C   UNL     1      -0.480  12.384  20.467  0.00  0.00    +0.000 C 
ATOM      3  C   UNL     1       0.398  12.677  19.214  0.00  0.00    +0.000 C 
ATOM      4  C   UNL     1       1.931  12.711  19.417  0.00  0.00    +0.000 C 
ATOM      5  C   UNL     1       2.361  14.053  20.003  0.00  0.00    +0.000 C 
ATOM      6  N   UNL     1       1.940  15.123  19.110  0.00  0.00    +0.000 N 
ATOM      7  C   UNL     1       2.735  15.990  18.348  0.00  0.00    +0.000 C 
ATOM      8  O   UNL     1       2.233  16.889  17.678  0.00  0.00    +0.000 OA
ATOM      9  C   UNL     1       0.498  15.218  18.981  0.00  0.00    +0.000 C 
ATOM     10  C   UNL     1      -0.048  13.917  18.394  0.00  0.00    +0.000 C 
ATOM     11  C   UNL     1      -0.144  11.278  18.703  0.00  0.00    +0.000 C 
ENDROOT
BRANCH  11  12
ATOM     12  C   UNL     1       0.763   9.943  18.946  0.00  0.00    +0.000 A 
ATOM     13  C   UNL     1       1.509   9.285  17.946  0.00  0.00    +0.000 A 
ATOM     14  C   UNL     1       2.213   8.118  18.233  0.00  0.00    +0.000 A 
ATOM     15  N   UNL     1       2.243   7.543  19.449  0.00  0.00    +0.000 NA
ATOM     16  C   UNL     1       1.549   8.170  20.417  0.00  0.00    +0.000 A 
ATOM     17  C   UNL     1       0.819   9.337  20.217  0.00  0.00    +0.000 A 
ENDBRANCH  11  12
BRANCH   7  18
ATOM     18  C   UNL     1       4.182  15.847  18.383  0.00  0.00    +0.000 A 
ATOM     19  C   UNL     1       5.083  14.927  17.756  0.00  0.00    +0.000 A 
ATOM     20  C   UNL     1       6.334  15.222  18.220  0.00  0.00    +0.000 A 
ATOM     21  O   UNL     1       6.306  16.332  18.993  0.00  0.00    +0.000 OA
ATOM     22  C   UNL     1       5.007  16.724  19.060  0.00  0.00    +0.000 A 
ENDBRANCH   7  18
BRANCH   1  23
ATOM     23  C   UNL     1      -2.497  11.860  19.175  0.00  0.00    +0.000 C 
BRANCH  23  24
ATOM     24  C   UNL     1      -3.323  12.691  20.165  0.00  0.00    +0.000 C 
BRANCH  24  26
ATOM     25  C   UNL     1      -5.543  12.703  20.967  0.00  0.00    +0.000 C 
ATOM     26  O   UNL     1      -4.711  12.568  19.820  0.00  0.00    +0.000 OA
ENDBRANCH  24  26
ENDBRANCH  23  24
ENDBRANCH   1  23
TORSDOF 5
ENDMDL
