MODEL 1
REMARK VINA RESULT:      -6.8      0.000      0.000
REMARK  Name = 
REMARK  10 active torsions:
REMARK  status: ('A' for Active; 'I' for Inactive)
REMARK    1  A    between atoms: C_2  and  C_3
REMARK    2  A    between atoms: C_3  and  C_4
REMARK    3  A    between atoms: C_4  and  C_5
REMARK    4  A    between atoms: C_4  and  C_9
REMARK    5  A    between atoms: C_4  and  C_13
REMARK    6  A    between atoms: C_5  and  O_7
REMARK    7  A    between atoms: O_7  and  C_8
REMARK    8  A    between atoms: C_9  and  O_11
REMARK    9  A    between atoms: O_11  and  C_12
REMARK   10  A    between atoms: C_16  and  N_17
REMARK                            x       y       z     vdW  Elec       q    Type
REMARK                         _______ _______ _______ _____ _____    ______ ____
ROOT
ATOM      1  C   UNL     1       6.356   5.394  17.252  0.00  0.00    +0.000 C 
ENDROOT
BRANCH   1   2
ATOM      2  C   UNL     1       4.990   4.852  17.730  0.00  0.00    +0.000 A 
ATOM      3  C   UNL     1       3.791   5.518  17.427  0.00  0.00    +0.000 A 
ATOM      4  C   UNL     1       2.568   4.996  17.857  0.00  0.00    +0.000 A 
ATOM      5  C   UNL     1       2.565   3.813  18.588  0.00  0.00    +0.000 A 
ATOM      6  C   UNL     1       3.770   3.193  18.849  0.00  0.00    +0.000 A 
ATOM      7  N   UNL     1       4.961   3.683  18.418  0.00  0.00    +0.000 NA
BRANCH   5   8
ATOM      8  N   UNL     1       1.323   3.228  19.072  0.00  0.00    +0.000 N 
ATOM      9  O   UNL     1       0.536   2.774  18.229  0.00  0.00    +0.000 OA
ATOM     10  O   UNL     1       1.127   3.217  20.295  0.00  0.00    +0.000 OA
ENDBRANCH   5   8
ENDBRANCH   1   2
BRANCH   1  11
ATOM     11  C   UNL     1       6.704   4.957  15.811  0.00  0.00    +0.000 C 
ATOM     12  O   UNL     1       7.487   5.515  15.050  0.00  0.00    +0.000 OA
BRANCH  11  13
ATOM     13  O   UNL     1       5.902   3.921  15.401  0.00  0.00    +0.000 OA
ATOM     14  C   UNL     1       5.597   3.923  14.005  0.00  0.00    +0.000 C 
ENDBRANCH  11  13
ENDBRANCH   1  11
BRANCH   1  15
ATOM     15  C   UNL     1       7.457   4.882  18.192  0.00  0.00    +0.000 C 
ATOM     16  O   UNL     1       8.398   4.178  17.832  0.00  0.00    +0.000 OA
BRANCH  15  17
ATOM     17  O   UNL     1       7.265   5.249  19.490  0.00  0.00    +0.000 OA
ATOM     18  C   UNL     1       8.460   5.445  20.251  0.00  0.00    +0.000 C 
ENDBRANCH  15  17
ENDBRANCH   1  15
BRANCH   1  19
ATOM     19  C   UNL     1       6.364   6.954  17.382  0.00  0.00    +0.000 C 
BRANCH  19  21
ATOM     20  C   UNL     1       7.950   8.853  17.873  0.00  0.00    +0.000 C 
ATOM     21  C   UNL     1       7.731   7.598  17.461  0.00  0.00    +0.000 C 
ENDBRANCH  19  21
ENDBRANCH   1  19
TORSDOF 8
ENDMDL
MODEL 2
REMARK VINA RESULT:      -6.7      1.741      3.535
REMARK  Name = 
REMARK  10 active torsions:
REMARK  status: ('A' for Active; 'I' for Inactive)
REMARK    1  A    between atoms: C_2  and  C_3
REMARK    2  A    between atoms: C_3  and  C_4
REMARK    3  A    between atoms: C_4  and  C_5
REMARK    4  A    between atoms: C_4  and  C_9
REMARK    5  A    between atoms: C_4  and  C_13
REMARK    6  A    between atoms: C_5  and  O_7
REMARK    7  A    between atoms: O_7  and  C_8
REMARK    8  A    between atoms: C_9  and  O_11
REMARK    9  A    between atoms: O_11  and  C_12
REMARK   10  A    between atoms: C_16  and  N_17
REMARK                            x       y       z     vdW  Elec       q    Type
REMARK                         _______ _______ _______ _____ _____    ______ ____
ROOT
ATOM      1  C   UNL     1       5.607   5.084  16.358  0.00  0.00    +0.000 C 
ENDROOT
BRANCH   1   2
ATOM      2  C   UNL     1       4.780   4.403  17.473  0.00  0.00    +0.000 A 
ATOM      3  C   UNL     1       3.485   3.919  17.231  0.00  0.00    +0.000 A 
ATOM      4  C   UNL     1       2.766   3.291  18.252  0.00  0.00    +0.000 A 
ATOM      5  C   UNL     1       3.357   3.160  19.504  0.00  0.00    +0.000 A 
ATOM      6  C   UNL     1       4.637   3.643  19.685  0.00  0.00    +0.000 A 
ATOM      7  N   UNL     1       5.349   4.236  18.693  0.00  0.00    +0.000 NA
BRANCH   5   8
ATOM      8  N   UNL     1       2.653   2.525  20.608  0.00  0.00    +0.000 N 
ATOM      9  O   UNL     1       1.474   2.193  20.422  0.00  0.00    +0.000 OA
ATOM     10  O   UNL     1       3.274   2.353  21.667  0.00  0.00    +0.000 OA
ENDBRANCH   5   8
ENDBRANCH   1   2
BRANCH   1  11
ATOM     11  C   UNL     1       7.114   5.161  16.692  0.00  0.00    +0.000 C 
ATOM     12  O   UNL     1       7.858   4.213  16.919  0.00  0.00    +0.000 OA
BRANCH  11  13
ATOM     13  O   UNL     1       7.519   6.461  16.860  0.00  0.00    +0.000 OA
ATOM     14  C   UNL     1       7.895   6.799  18.197  0.00  0.00    +0.000 C 
ENDBRANCH  11  13
ENDBRANCH   1  11
BRANCH   1  15
ATOM     15  C   UNL     1       5.085   6.513  16.147  0.00  0.00    +0.000 C 
ATOM     16  O   UNL     1       5.035   7.074  15.055  0.00  0.00    +0.000 OA
BRANCH  15  17
ATOM     17  O   UNL     1       4.717   7.124  17.308  0.00  0.00    +0.000 OA
ATOM     18  C   UNL     1       3.383   7.638  17.330  0.00  0.00    +0.000 C 
ENDBRANCH  15  17
ENDBRANCH   1  15
BRANCH   1  19
ATOM     19  C   UNL     1       5.370   4.330  15.008  0.00  0.00    +0.000 C 
BRANCH  19  21
ATOM     20  C   UNL     1       6.496   3.805  12.812  0.00  0.00    +0.000 C 
ATOM     21  C   UNL     1       6.533   4.337  14.040  0.00  0.00    +0.000 C 
ENDBRANCH  19  21
ENDBRANCH   1  19
TORSDOF 8
ENDMDL
MODEL 3
REMARK VINA RESULT:      -6.7      1.168      3.357
REMARK  Name = 
REMARK  10 active torsions:
REMARK  status: ('A' for Active; 'I' for Inactive)
REMARK    1  A    between atoms: C_2  and  C_3
REMARK    2  A    between atoms: C_3  and  C_4
REMARK    3  A    between atoms: C_4  and  C_5
REMARK    4  A    between atoms: C_4  and  C_9
REMARK    5  A    between atoms: C_4  and  C_13
REMARK    6  A    between atoms: C_5  and  O_7
REMARK    7  A    between atoms: O_7  and  C_8
REMARK    8  A    between atoms: C_9  and  O_11
REMARK    9  A    between atoms: O_11  and  C_12
REMARK   10  A    between atoms: C_16  and  N_17
REMARK                            x       y       z     vdW  Elec       q    Type
REMARK                         _______ _______ _______ _____ _____    ______ ____
ROOT
ATOM      1  C   UNL     1       6.318   4.786  16.902  0.00  0.00    +0.000 C 
ENDROOT
BRANCH   1   2
ATOM      2  C   UNL     1       4.926   4.394  17.451  0.00  0.00    +0.000 A 
ATOM      3  C   UNL     1       4.346   3.151  17.155  0.00  0.00    +0.000 A 
ATOM      4  C   UNL     1       3.095   2.815  17.679  0.00  0.00    +0.000 A 
ATOM      5  C   UNL     1       2.441   3.734  18.492  0.00  0.00    +0.000 A 
ATOM      6  C   UNL     1       3.061   4.938  18.762  0.00  0.00    +0.000 A 
ATOM      7  N   UNL     1       4.285   5.263  18.272  0.00  0.00    +0.000 NA
BRANCH   5   8
ATOM      8  N   UNL     1       1.132   3.445  19.057  0.00  0.00    +0.000 N 
ATOM      9  O   UNL     1       0.436   2.592  18.487  0.00  0.00    +0.000 OA
ATOM     10  O   UNL     1       0.791   4.065  20.074  0.00  0.00    +0.000 OA
ENDBRANCH   5   8
ENDBRANCH   1   2
BRANCH   1  11
ATOM     11  C   UNL     1       7.446   4.599  17.941  0.00  0.00    +0.000 C 
ATOM     12  O   UNL     1       8.522   4.041  17.755  0.00  0.00    +0.000 OA
BRANCH  11  13
ATOM     13  O   UNL     1       7.045   5.009  19.188  0.00  0.00    +0.000 OA
ATOM     14  C   UNL     1       8.082   5.581  19.988  0.00  0.00    +0.000 C 
ENDBRANCH  11  13
ENDBRANCH   1  11
BRANCH   1  15
ATOM     15  C   UNL     1       6.292   6.261  16.475  0.00  0.00    +0.000 C 
ATOM     16  O   UNL     1       5.294   6.837  16.050  0.00  0.00    +0.000 OA
BRANCH  15  17
ATOM     17  O   UNL     1       7.508   6.867  16.573  0.00  0.00    +0.000 OA
ATOM     18  C   UNL     1       7.543   8.034  17.398  0.00  0.00    +0.000 C 
ENDBRANCH  15  17
ENDBRANCH   1  15
BRANCH   1  19
ATOM     19  C   UNL     1       6.609   3.962  15.604  0.00  0.00    +0.000 C 
BRANCH  19  21
ATOM     20  C   UNL     1       5.869   3.773  13.200  0.00  0.00    +0.000 C 
ATOM     21  C   UNL     1       5.937   4.464  14.345  0.00  0.00    +0.000 C 
ENDBRANCH  19  21
ENDBRANCH   1  19
TORSDOF 8
ENDMDL
MODEL 4
REMARK VINA RESULT:      -6.7      1.508      3.468
REMARK  Name = 
REMARK  10 active torsions:
REMARK  status: ('A' for Active; 'I' for Inactive)
REMARK    1  A    between atoms: C_2  and  C_3
REMARK    2  A    between atoms: C_3  and  C_4
REMARK    3  A    between atoms: C_4  and  C_5
REMARK    4  A    between atoms: C_4  and  C_9
REMARK    5  A    between atoms: C_4  and  C_13
REMARK    6  A    between atoms: C_5  and  O_7
REMARK    7  A    between atoms: O_7  and  C_8
REMARK    8  A    between atoms: C_9  and  O_11
REMARK    9  A    between atoms: O_11  and  C_12
REMARK   10  A    between atoms: C_16  and  N_17
REMARK                            x       y       z     vdW  Elec       q    Type
REMARK                         _______ _______ _______ _____ _____    ______ ____
ROOT
ATOM      1  C   UNL     1       5.932   4.747  16.990  0.00  0.00    +0.000 C 
ENDROOT
BRANCH   1   2
ATOM      2  C   UNL     1       4.796   4.482  18.005  0.00  0.00    +0.000 A 
ATOM      3  C   UNL     1       4.102   3.262  18.024  0.00  0.00    +0.000 A 
ATOM      4  C   UNL     1       3.091   3.042  18.963  0.00  0.00    +0.000 A 
ATOM      5  C   UNL     1       2.789   4.051  19.871  0.00  0.00    +0.000 A 
ATOM      6  C   UNL     1       3.510   5.227  19.817  0.00  0.00    +0.000 A 
ATOM      7  N   UNL     1       4.507   5.441  18.920  0.00  0.00    +0.000 NA
BRANCH   5   8
ATOM      8  N   UNL     1       1.740   3.883  20.865  0.00  0.00    +0.000 N 
ATOM      9  O   UNL     1       2.075   3.494  21.993  0.00  0.00    +0.000 OA
ATOM     10  O   UNL     1       0.577   4.142  20.527  0.00  0.00    +0.000 OA
ENDBRANCH   5   8
ENDBRANCH   1   2
BRANCH   1  11
ATOM     11  C   UNL     1       7.338   4.548  17.599  0.00  0.00    +0.000 C 
ATOM     12  O   UNL     1       8.353   4.215  16.996  0.00  0.00    +0.000 OA
BRANCH  11  13
ATOM     13  O   UNL     1       7.304   4.645  18.968  0.00  0.00    +0.000 OA
ATOM     14  C   UNL     1       8.151   5.659  19.514  0.00  0.00    +0.000 C 
ENDBRANCH  11  13
ENDBRANCH   1  11
BRANCH   1  15
ATOM     15  C   UNL     1       5.824   6.193  16.483  0.00  0.00    +0.000 C 
ATOM     16  O   UNL     1       4.791   6.693  16.045  0.00  0.00    +0.000 OA
BRANCH  15  17
ATOM     17  O   UNL     1       7.009   6.864  16.523  0.00  0.00    +0.000 OA
ATOM     18  C   UNL     1       7.022   8.029  17.351  0.00  0.00    +0.000 C 
ENDBRANCH  15  17
ENDBRANCH   1  15
BRANCH   1  19
ATOM     19  C   UNL     1       5.729   3.830  15.739  0.00  0.00    +0.000 C 
BRANCH  19  21
ATOM     20  C   UNL     1       6.151   3.794  13.253  0.00  0.00    +0.000 C 
ATOM     21  C   UNL     1       6.404   4.296  14.468  0.00  0.00    +0.000 C 
ENDBRANCH  19  21
ENDBRANCH   1  19
TORSDOF 8
ENDMDL
MODEL 5
REMARK VINA RESULT:      -6.6      1.135      3.323
REMARK  Name = 
REMARK  10 active torsions:
REMARK  status: ('A' for Active; 'I' for Inactive)
REMARK    1  A    between atoms: C_2  and  C_3
REMARK    2  A    between atoms: C_3  and  C_4
REMARK    3  A    between atoms: C_4  and  C_5
REMARK    4  A    between atoms: C_4  and  C_9
REMARK    5  A    between atoms: C_4  and  C_13
REMARK    6  A    between atoms: C_5  and  O_7
REMARK    7  A    between atoms: O_7  and  C_8
REMARK    8  A    between atoms: C_9  and  O_11
REMARK    9  A    between atoms: O_11  and  C_12
REMARK   10  A    between atoms: C_16  and  N_17
REMARK                            x       y       z     vdW  Elec       q    Type
REMARK                         _______ _______ _______ _____ _____    ______ ____
ROOT
ATOM      1  C   UNL     1       6.284   4.752  16.949  0.00  0.00    +0.000 C 
ENDROOT
BRANCH   1   2
ATOM      2  C   UNL     1       4.912   4.422  17.580  0.00  0.00    +0.000 A 
ATOM      3  C   UNL     1       4.293   5.297  18.486  0.00  0.00    +0.000 A 
ATOM      4  C   UNL     1       3.044   4.982  19.028  0.00  0.00    +0.000 A 
ATOM      5  C   UNL     1       2.434   3.789  18.654  0.00  0.00    +0.000 A 
ATOM      6  C   UNL     1       3.080   2.970  17.751  0.00  0.00    +0.000 A 
ATOM      7  N   UNL     1       4.285   3.279  17.205  0.00  0.00    +0.000 NA
BRANCH   5   8
ATOM      8  N   UNL     1       1.139   3.402  19.193  0.00  0.00    +0.000 N 
ATOM      9  O   UNL     1       0.676   4.083  20.120  0.00  0.00    +0.000 OA
ATOM     10  O   UNL     1       0.575   2.419  18.694  0.00  0.00    +0.000 OA
ENDBRANCH   5   8
ENDBRANCH   1   2
BRANCH   1  11
ATOM     11  C   UNL     1       7.456   4.588  17.944  0.00  0.00    +0.000 C 
ATOM     12  O   UNL     1       8.540   4.065  17.711  0.00  0.00    +0.000 OA
BRANCH  11  13
ATOM     13  O   UNL     1       7.089   4.973  19.209  0.00  0.00    +0.000 OA
ATOM     14  C   UNL     1       8.127   5.601  19.964  0.00  0.00    +0.000 C 
ENDBRANCH  11  13
ENDBRANCH   1  11
BRANCH   1  15
ATOM     15  C   UNL     1       6.272   6.205  16.451  0.00  0.00    +0.000 C 
ATOM     16  O   UNL     1       5.281   6.766  15.988  0.00  0.00    +0.000 OA
BRANCH  15  17
ATOM     17  O   UNL     1       7.491   6.809  16.532  0.00  0.00    +0.000 OA
ATOM     18  C   UNL     1       7.545   7.962  17.375  0.00  0.00    +0.000 C 
ENDBRANCH  15  17
ENDBRANCH   1  15
BRANCH   1  19
ATOM     19  C   UNL     1       6.496   3.859  15.682  0.00  0.00    +0.000 C 
BRANCH  19  21
ATOM     20  C   UNL     1       6.021   3.813  13.205  0.00  0.00    +0.000 C 
ATOM     21  C   UNL     1       6.072   4.476  14.367  0.00  0.00    +0.000 C 
ENDBRANCH  19  21
ENDBRANCH   1  19
TORSDOF 8
ENDMDL
MODEL 6
REMARK VINA RESULT:      -6.6      1.448      3.305
REMARK  Name = 
REMARK  10 active torsions:
REMARK  status: ('A' for Active; 'I' for Inactive)
REMARK    1  A    between atoms: C_2  and  C_3
REMARK    2  A    between atoms: C_3  and  C_4
REMARK    3  A    between atoms: C_4  and  C_5
REMARK    4  A    between atoms: C_4  and  C_9
REMARK    5  A    between atoms: C_4  and  C_13
REMARK    6  A    between atoms: C_5  and  O_7
REMARK    7  A    between atoms: O_7  and  C_8
REMARK    8  A    between atoms: C_9  and  O_11
REMARK    9  A    between atoms: O_11  and  C_12
REMARK   10  A    between atoms: C_16  and  N_17
REMARK                            x       y       z     vdW  Elec       q    Type
REMARK                         _______ _______ _______ _____ _____    ______ ____
ROOT
ATOM      1  C   UNL     1       5.846   4.865  17.000  0.00  0.00    +0.000 C 
ENDROOT
BRANCH   1   2
ATOM      2  C   UNL     1       4.763   4.629  18.078  0.00  0.00    +0.000 A 
ATOM      3  C   UNL     1       4.208   5.694  18.804  0.00  0.00    +0.000 A 
ATOM      4  C   UNL     1       3.218   5.455  19.761  0.00  0.00    +0.000 A 
ATOM      5  C   UNL     1       2.799   4.146  19.977  0.00  0.00    +0.000 A 
ATOM      6  C   UNL     1       3.369   3.137  19.228  0.00  0.00    +0.000 A 
ATOM      7  N   UNL     1       4.317   3.364  18.283  0.00  0.00    +0.000 NA
BRANCH   5   8
ATOM      8  N   UNL     1       1.779   3.834  20.967  0.00  0.00    +0.000 N 
ATOM      9  O   UNL     1       0.595   4.015  20.648  0.00  0.00    +0.000 OA
ATOM     10  O   UNL     1       2.154   3.405  22.067  0.00  0.00    +0.000 OA
ENDBRANCH   5   8
ENDBRANCH   1   2
BRANCH   1  11
ATOM     11  C   UNL     1       7.275   4.575  17.514  0.00  0.00    +0.000 C 
ATOM     12  O   UNL     1       8.238   4.237  16.834  0.00  0.00    +0.000 OA
BRANCH  11  13
ATOM     13  O   UNL     1       7.322   4.594  18.885  0.00  0.00    +0.000 OA
ATOM     14  C   UNL     1       8.117   5.645  19.439  0.00  0.00    +0.000 C 
ENDBRANCH  11  13
ENDBRANCH   1  11
BRANCH   1  15
ATOM     15  C   UNL     1       5.785   6.328  16.538  0.00  0.00    +0.000 C 
ATOM     16  O   UNL     1       4.762   6.883  16.144  0.00  0.00    +0.000 OA
BRANCH  15  17
ATOM     17  O   UNL     1       6.998   6.948  16.564  0.00  0.00    +0.000 OA
ATOM     18  C   UNL     1       7.073   8.105  17.401  0.00  0.00    +0.000 C 
ENDBRANCH  15  17
ENDBRANCH   1  15
BRANCH   1  19
ATOM     19  C   UNL     1       5.517   3.996  15.741  0.00  0.00    +0.000 C 
BRANCH  19  21
ATOM     20  C   UNL     1       6.347   3.854  13.364  0.00  0.00    +0.000 C 
ATOM     21  C   UNL     1       5.940   4.581  14.412  0.00  0.00    +0.000 C 
ENDBRANCH  19  21
ENDBRANCH   1  19
TORSDOF 8
ENDMDL
MODEL 7
REMARK VINA RESULT:      -6.5      0.958      1.287
REMARK  Name = 
REMARK  10 active torsions:
REMARK  status: ('A' for Active; 'I' for Inactive)
REMARK    1  A    between atoms: C_2  and  C_3
REMARK    2  A    between atoms: C_3  and  C_4
REMARK    3  A    between atoms: C_4  and  C_5
REMARK    4  A    between atoms: C_4  and  C_9
REMARK    5  A    between atoms: C_4  and  C_13
REMARK    6  A    between atoms: C_5  and  O_7
REMARK    7  A    between atoms: O_7  and  C_8
REMARK    8  A    between atoms: C_9  and  O_11
REMARK    9  A    between atoms: O_11  and  C_12
REMARK   10  A    between atoms: C_16  and  N_17
REMARK                            x       y       z     vdW  Elec       q    Type
REMARK                         _______ _______ _______ _____ _____    ______ ____
ROOT
ATOM      1  C   UNL     1       5.974   5.458  17.002  0.00  0.00    +0.000 C 
ENDROOT
BRANCH   1   2
ATOM      2  C   UNL     1       4.663   4.879  17.585  0.00  0.00    +0.000 A 
ATOM      3  C   UNL     1       4.239   3.576  17.280  0.00  0.00    +0.000 A 
ATOM      4  C   UNL     1       3.060   3.072  17.834  0.00  0.00    +0.000 A 
ATOM      5  C   UNL     1       2.319   3.885  18.686  0.00  0.00    +0.000 A 
ATOM      6  C   UNL     1       2.786   5.154  18.961  0.00  0.00    +0.000 A 
ATOM      7  N   UNL     1       3.942   5.644  18.442  0.00  0.00    +0.000 NA
BRANCH   5   8
ATOM      8  N   UNL     1       1.077   3.419  19.283  0.00  0.00    +0.000 N 
ATOM      9  O   UNL     1       0.650   4.033  20.272  0.00  0.00    +0.000 OA
ATOM     10  O   UNL     1       0.520   2.439  18.770  0.00  0.00    +0.000 OA
ENDBRANCH   5   8
ENDBRANCH   1   2
BRANCH   1  11
ATOM     11  C   UNL     1       6.063   5.310  15.467  0.00  0.00    +0.000 C 
ATOM     12  O   UNL     1       5.797   6.172  14.636  0.00  0.00    +0.000 OA
BRANCH  11  13
ATOM     13  O   UNL     1       6.342   4.015  15.109  0.00  0.00    +0.000 OA
ATOM     14  C   UNL     1       6.201   3.740  13.713  0.00  0.00    +0.000 C 
ENDBRANCH  11  13
ENDBRANCH   1  11
BRANCH   1  15
ATOM     15  C   UNL     1       7.169   4.726  17.630  0.00  0.00    +0.000 C 
ATOM     16  O   UNL     1       8.110   4.267  16.987  0.00  0.00    +0.000 OA
BRANCH  15  17
ATOM     17  O   UNL     1       7.064   4.592  18.982  0.00  0.00    +0.000 OA
ATOM     18  C   UNL     1       8.031   5.319  19.743  0.00  0.00    +0.000 C 
ENDBRANCH  15  17
ENDBRANCH   1  15
BRANCH   1  19
ATOM     19  C   UNL     1       6.108   6.957  17.430  0.00  0.00    +0.000 C 
BRANCH  19  21
ATOM     20  C   UNL     1       7.859   8.736  17.794  0.00  0.00    +0.000 C 
ATOM     21  C   UNL     1       7.483   7.565  17.264  0.00  0.00    +0.000 C 
ENDBRANCH  19  21
ENDBRANCH   1  19
TORSDOF 8
ENDMDL
MODEL 8
REMARK VINA RESULT:      -6.5      1.773      3.604
REMARK  Name = 
REMARK  10 active torsions:
REMARK  status: ('A' for Active; 'I' for Inactive)
REMARK    1  A    between atoms: C_2  and  C_3
REMARK    2  A    between atoms: C_3  and  C_4
REMARK    3  A    between atoms: C_4  and  C_5
REMARK    4  A    between atoms: C_4  and  C_9
REMARK    5  A    between atoms: C_4  and  C_13
REMARK    6  A    between atoms: C_5  and  O_7
REMARK    7  A    between atoms: O_7  and  C_8
REMARK    8  A    between atoms: C_9  and  O_11
REMARK    9  A    between atoms: O_11  and  C_12
REMARK   10  A    between atoms: C_16  and  N_17
REMARK                            x       y       z     vdW  Elec       q    Type
REMARK                         _______ _______ _______ _____ _____    ______ ____
ROOT
ATOM      1  C   UNL     1       5.571   5.093  16.559  0.00  0.00    +0.000 C 
ENDROOT
BRANCH   1   2
ATOM      2  C   UNL     1       4.761   4.435  17.700  0.00  0.00    +0.000 A 
ATOM      3  C   UNL     1       5.316   4.243  18.975  0.00  0.00    +0.000 A 
ATOM      4  C   UNL     1       4.556   3.661  19.994  0.00  0.00    +0.000 A 
ATOM      5  C   UNL     1       3.249   3.277  19.717  0.00  0.00    +0.000 A 
ATOM      6  C   UNL     1       2.748   3.497  18.450  0.00  0.00    +0.000 A 
ATOM      7  N   UNL     1       3.474   4.080  17.461  0.00  0.00    +0.000 NA
BRANCH   5   8
ATOM      8  N   UNL     1       2.414   2.656  20.733  0.00  0.00    +0.000 N 
ATOM      9  O   UNL     1       1.262   2.331  20.411  0.00  0.00    +0.000 OA
ATOM     10  O   UNL     1       2.902   2.486  21.859  0.00  0.00    +0.000 OA
ENDBRANCH   5   8
ENDBRANCH   1   2
BRANCH   1  11
ATOM     11  C   UNL     1       7.078   5.205  16.881  0.00  0.00    +0.000 C 
ATOM     12  O   UNL     1       7.865   4.275  17.016  0.00  0.00    +0.000 OA
BRANCH  11  13
ATOM     13  O   UNL     1       7.430   6.503  17.156  0.00  0.00    +0.000 OA
ATOM     14  C   UNL     1       7.949   6.712  18.472  0.00  0.00    +0.000 C 
ENDBRANCH  11  13
ENDBRANCH   1  11
BRANCH   1  15
ATOM     15  C   UNL     1       5.023   6.505  16.305  0.00  0.00    +0.000 C 
ATOM     16  O   UNL     1       4.975   7.036  15.198  0.00  0.00    +0.000 OA
BRANCH  15  17
ATOM     17  O   UNL     1       4.631   7.140  17.445  0.00  0.00    +0.000 OA
ATOM     18  C   UNL     1       3.306   7.677  17.418  0.00  0.00    +0.000 C 
ENDBRANCH  15  17
ENDBRANCH   1  15
BRANCH   1  19
ATOM     19  C   UNL     1       5.339   4.291  15.236  0.00  0.00    +0.000 C 
BRANCH  19  21
ATOM     20  C   UNL     1       6.418   3.843  13.000  0.00  0.00    +0.000 C 
ATOM     21  C   UNL     1       6.496   4.287  14.260  0.00  0.00    +0.000 C 
ENDBRANCH  19  21
ENDBRANCH   1  19
TORSDOF 8
ENDMDL
MODEL 9
REMARK VINA RESULT:      -6.4      0.927      1.197
REMARK  Name = 
REMARK  10 active torsions:
REMARK  status: ('A' for Active; 'I' for Inactive)
REMARK    1  A    between atoms: C_2  and  C_3
REMARK    2  A    between atoms: C_3  and  C_4
REMARK    3  A    between atoms: C_4  and  C_5
REMARK    4  A    between atoms: C_4  and  C_9
REMARK    5  A    between atoms: C_4  and  C_13
REMARK    6  A    between atoms: C_5  and  O_7
REMARK    7  A    between atoms: O_7  and  C_8
REMARK    8  A    between atoms: C_9  and  O_11
REMARK    9  A    between atoms: O_11  and  C_12
REMARK   10  A    between atoms: C_16  and  N_17
REMARK                            x       y       z     vdW  Elec       q    Type
REMARK                         _______ _______ _______ _____ _____    ______ ____
ROOT
ATOM      1  C   UNL     1       6.020   5.232  17.167  0.00  0.00    +0.000 C 
ENDROOT
BRANCH   1   2
ATOM      2  C   UNL     1       4.751   4.868  17.971  0.00  0.00    +0.000 A 
ATOM      3  C   UNL     1       3.806   5.843  18.328  0.00  0.00    +0.000 A 
ATOM      4  C   UNL     1       2.659   5.484  19.041  0.00  0.00    +0.000 A 
ATOM      5  C   UNL     1       2.477   4.149  19.388  0.00  0.00    +0.000 A 
ATOM      6  C   UNL     1       3.431   3.229  19.002  0.00  0.00    +0.000 A 
ATOM      7  N   UNL     1       4.538   3.568  18.293  0.00  0.00    +0.000 NA
BRANCH   5   8
ATOM      8  N   UNL     1       1.308   3.718  20.139  0.00  0.00    +0.000 N 
ATOM      9  O   UNL     1       0.487   4.585  20.473  0.00  0.00    +0.000 OA
ATOM     10  O   UNL     1       1.200   2.511  20.397  0.00  0.00    +0.000 OA
ENDBRANCH   5   8
ENDBRANCH   1   2
BRANCH   1  11
ATOM     11  C   UNL     1       6.039   4.597  15.758  0.00  0.00    +0.000 C 
ATOM     12  O   UNL     1       5.898   3.408  15.494  0.00  0.00    +0.000 OA
BRANCH  11  13
ATOM     13  O   UNL     1       6.391   5.518  14.804  0.00  0.00    +0.000 OA
ATOM     14  C   UNL     1       7.233   5.009  13.767  0.00  0.00    +0.000 C 
ENDBRANCH  11  13
ENDBRANCH   1  11
BRANCH   1  15
ATOM     15  C   UNL     1       7.258   4.746  17.934  0.00  0.00    +0.000 C 
ATOM     16  O   UNL     1       8.253   4.260  17.400  0.00  0.00    +0.000 OA
BRANCH  15  17
ATOM     17  O   UNL     1       7.130   4.863  19.286  0.00  0.00    +0.000 OA
ATOM     18  C   UNL     1       8.212   5.525  19.945  0.00  0.00    +0.000 C 
ENDBRANCH  15  17
ENDBRANCH   1  15
BRANCH   1  19
ATOM     19  C   UNL     1       6.145   6.789  17.081  0.00  0.00    +0.000 C 
BRANCH  19  21
ATOM     20  C   UNL     1       7.833   8.561  17.695  0.00  0.00    +0.000 C 
ATOM     21  C   UNL     1       7.547   7.343  17.218  0.00  0.00    +0.000 C 
ENDBRANCH  19  21
ENDBRANCH   1  19
TORSDOF 8
ENDMDL
