MODEL 1
REMARK VINA RESULT:      -7.7      0.000      0.000
REMARK  Name = 
REMARK  5 active torsions:
REMARK  status: ('A' for Active; 'I' for Inactive)
REMARK    1  A    between atoms: C_1  and  O_2
REMARK    2  A    between atoms: O_2  and  C_3
REMARK    3  A    between atoms: C_3  and  C_4
REMARK    4  A    between atoms: C_4  and  N_5
REMARK    5  A    between atoms: C_6  and  C_8
REMARK                            x       y       z     vdW  Elec       q    Type
REMARK                         _______ _______ _______ _____ _____    ______ ____
ROOT
ATOM      1  C   UNL     1       7.683   5.780  17.435  0.00  0.00    +0.000 C 
ATOM      2  C   UNL     1       7.623   5.187  18.843  0.00  0.00    +0.000 C 
ATOM      3  C   UNL     1       6.191   5.024  19.328  0.00  0.00    +0.000 C 
ATOM      4  C   UNL     1       5.350   4.232  18.330  0.00  0.00    +0.000 C 
ATOM      5  C   UNL     1       5.608   4.657  16.866  0.00  0.00    +0.000 C 
ATOM      6  C   UNL     1       4.599   5.775  16.618  0.00  0.00    +0.000 C 
ATOM      7  C   UNL     1       3.393   5.390  17.468  0.00  0.00    +0.000 C 
ATOM      8  N   UNL     1       3.935   4.531  18.502  0.00  0.00    +0.000 N 
ATOM      9  C   UNL     1       3.133   3.981  19.453  0.00  0.00    +0.000 A 
ATOM     10  N   UNL     1       1.818   4.275  19.421  0.00  0.00    +0.000 NA
ATOM     11  C   UNL     1       1.030   3.750  20.384  0.00  0.00    +0.000 A 
ATOM     12  C   UNL     1       1.507   2.939  21.377  0.00  0.00    +0.000 A 
ATOM     13  F   UNL     1       0.712   2.432  22.324  0.00  0.00    +0.000 F 
ATOM     14  C   UNL     1       2.851   2.680  21.335  0.00  0.00    +0.000 A 
ATOM     15  N   UNL     1       3.676   3.179  20.387  0.00  0.00    +0.000 NA
ATOM     16  O   UNL     1       6.939   5.008  16.500  0.00  0.00    +0.000 OA
ENDROOT
BRANCH   1  18
ATOM     17  N   UNL     1       8.307   8.037  18.188  0.00  0.00    +0.000 N 
ATOM     18  C   UNL     1       7.423   7.306  17.415  0.00  0.00    +0.000 C 
ATOM     19  O   UNL     1       6.492   7.825  16.806  0.00  0.00    +0.000 OA
ATOM     20  H   UNL     1       9.215   7.612  18.359  0.00  0.00    +0.000 HD
BRANCH  17  21
ATOM     21  C   UNL     1       8.249   9.489  18.144  0.00  0.00    +0.000 C 
BRANCH  21  22
ATOM     22  C   UNL     1       9.191  10.152  19.145  0.00  0.00    +0.000 C 
BRANCH  22  24
ATOM     23  C   UNL     1      10.557  11.709  18.019  0.00  0.00    +0.000 C 
ATOM     24  O   UNL     1       9.368  11.524  18.778  0.00  0.00    +0.000 OA
ENDBRANCH  22  24
ENDBRANCH  21  22
ENDBRANCH  17  21
ENDBRANCH   1  18
TORSDOF 4
ENDMDL
MODEL 2
REMARK VINA RESULT:      -7.4      4.483      6.711
REMARK  Name = 
REMARK  5 active torsions:
REMARK  status: ('A' for Active; 'I' for Inactive)
REMARK    1  A    between atoms: C_1  and  O_2
REMARK    2  A    between atoms: O_2  and  C_3
REMARK    3  A    between atoms: C_3  and  C_4
REMARK    4  A    between atoms: C_4  and  N_5
REMARK    5  A    between atoms: C_6  and  C_8
REMARK                            x       y       z     vdW  Elec       q    Type
REMARK                         _______ _______ _______ _____ _____    ______ ____
ROOT
ATOM      1  C   UNL     1       2.594   3.918  19.408  0.00  0.00    +0.000 C 
ATOM      2  C   UNL     1       2.264   3.595  17.950  0.00  0.00    +0.000 C 
ATOM      3  C   UNL     1       3.323   4.129  16.998  0.00  0.00    +0.000 C 
ATOM      4  C   UNL     1       4.719   3.656  17.393  0.00  0.00    +0.000 C 
ATOM      5  C   UNL     1       4.964   3.735  18.918  0.00  0.00    +0.000 C 
ATOM      6  C   UNL     1       5.529   5.137  19.132  0.00  0.00    +0.000 C 
ATOM      7  C   UNL     1       6.323   5.422  17.862  0.00  0.00    +0.000 C 
ATOM      8  N   UNL     1       5.733   4.554  16.861  0.00  0.00    +0.000 N 
ATOM      9  C   UNL     1       6.202   4.530  15.584  0.00  0.00    +0.000 A 
ATOM     10  N   UNL     1       7.220   5.356  15.267  0.00  0.00    +0.000 NA
ATOM     11  C   UNL     1       7.663   5.350  13.992  0.00  0.00    +0.000 A 
ATOM     12  C   UNL     1       7.130   4.548  13.021  0.00  0.00    +0.000 A 
ATOM     13  F   UNL     1       7.580   4.560  11.762  0.00  0.00    +0.000 F 
ATOM     14  C   UNL     1       6.107   3.733  13.424  0.00  0.00    +0.000 A 
ATOM     15  N   UNL     1       5.634   3.701  14.691  0.00  0.00    +0.000 NA
ATOM     16  O   UNL     1       3.876   3.429  19.783  0.00  0.00    +0.000 OA
ENDROOT
BRANCH   1  18
ATOM     17  N   UNL     1       2.446   6.277  18.729  0.00  0.00    +0.000 N 
ATOM     18  C   UNL     1       2.293   5.390  19.779  0.00  0.00    +0.000 C 
ATOM     19  O   UNL     1       1.988   5.753  20.912  0.00  0.00    +0.000 OA
ATOM     20  H   UNL     1       2.349   5.889  17.794  0.00  0.00    +0.000 HD
BRANCH  17  21
ATOM     21  C   UNL     1       2.063   7.667  18.918  0.00  0.00    +0.000 C 
BRANCH  21  22
ATOM     22  C   UNL     1       2.686   8.600  17.883  0.00  0.00    +0.000 C 
BRANCH  22  24
ATOM     23  C   UNL     1       0.818   9.892  18.516  0.00  0.00    +0.000 C 
ATOM     24  O   UNL     1       1.699   9.543  17.455  0.00  0.00    +0.000 OA
ENDBRANCH  22  24
ENDBRANCH  21  22
ENDBRANCH  17  21
ENDBRANCH   1  18
TORSDOF 4
ENDMDL
MODEL 3
REMARK VINA RESULT:      -7.3      4.396      6.936
REMARK  Name = 
REMARK  5 active torsions:
REMARK  status: ('A' for Active; 'I' for Inactive)
REMARK    1  A    between atoms: C_1  and  O_2
REMARK    2  A    between atoms: O_2  and  C_3
REMARK    3  A    between atoms: C_3  and  C_4
REMARK    4  A    between atoms: C_4  and  N_5
REMARK    5  A    between atoms: C_6  and  C_8
REMARK                            x       y       z     vdW  Elec       q    Type
REMARK                         _______ _______ _______ _____ _____    ______ ____
ROOT
ATOM      1  C   UNL     1       2.691   4.678  19.419  0.00  0.00    +0.000 C 
ATOM      2  C   UNL     1       2.299   4.228  18.011  0.00  0.00    +0.000 C 
ATOM      3  C   UNL     1       3.363   4.586  16.985  0.00  0.00    +0.000 C 
ATOM      4  C   UNL     1       4.736   4.065  17.398  0.00  0.00    +0.000 C 
ATOM      5  C   UNL     1       5.030   4.286  18.899  0.00  0.00    +0.000 C 
ATOM      6  C   UNL     1       5.690   5.662  18.951  0.00  0.00    +0.000 C 
ATOM      7  C   UNL     1       6.464   5.758  17.640  0.00  0.00    +0.000 C 
ATOM      8  N   UNL     1       5.791   4.832  16.751  0.00  0.00    +0.000 N 
ATOM      9  C   UNL     1       6.221   4.643  15.474  0.00  0.00    +0.000 A 
ATOM     10  N   UNL     1       7.280   5.360  15.049  0.00  0.00    +0.000 NA
ATOM     11  C   UNL     1       7.685   5.191  13.773  0.00  0.00    +0.000 A 
ATOM     12  C   UNL     1       7.073   4.330  12.904  0.00  0.00    +0.000 A 
ATOM     13  F   UNL     1       7.487   4.179  11.642  0.00  0.00    +0.000 F 
ATOM     14  C   UNL     1       6.012   3.631  13.414  0.00  0.00    +0.000 A 
ATOM     15  N   UNL     1       5.575   3.764  14.687  0.00  0.00    +0.000 NA
ATOM     16  O   UNL     1       3.950   4.146  19.816  0.00  0.00    +0.000 OA
ENDROOT
BRANCH   1  18
ATOM     17  N   UNL     1       1.810   6.516  20.795  0.00  0.00    +0.000 N 
ATOM     18  C   UNL     1       2.497   6.198  19.638  0.00  0.00    +0.000 C 
ATOM     19  O   UNL     1       2.877   7.050  18.839  0.00  0.00    +0.000 OA
ATOM     20  H   UNL     1       1.845   5.829  21.543  0.00  0.00    +0.000 HD
BRANCH  17  21
ATOM     21  C   UNL     1       1.683   7.913  21.179  0.00  0.00    +0.000 C 
BRANCH  21  22
ATOM     22  C   UNL     1       0.231   8.364  21.304  0.00  0.00    +0.000 C 
BRANCH  22  24
ATOM     23  C   UNL     1       0.652   9.815  19.493  0.00  0.00    +0.000 C 
ATOM     24  O   UNL     1       0.115   9.701  20.806  0.00  0.00    +0.000 OA
ENDBRANCH  22  24
ENDBRANCH  21  22
ENDBRANCH  17  21
ENDBRANCH   1  18
TORSDOF 4
ENDMDL
MODEL 4
REMARK VINA RESULT:      -7.2      4.603      7.068
REMARK  Name = 
REMARK  5 active torsions:
REMARK  status: ('A' for Active; 'I' for Inactive)
REMARK    1  A    between atoms: C_1  and  O_2
REMARK    2  A    between atoms: O_2  and  C_3
REMARK    3  A    between atoms: C_3  and  C_4
REMARK    4  A    between atoms: C_4  and  N_5
REMARK    5  A    between atoms: C_6  and  C_8
REMARK                            x       y       z     vdW  Elec       q    Type
REMARK                         _______ _______ _______ _____ _____    ______ ____
ROOT
ATOM      1  C   UNL     1       3.061   4.929  19.226  0.00  0.00    +0.000 C 
ATOM      2  C   UNL     1       2.668   4.255  17.911  0.00  0.00    +0.000 C 
ATOM      3  C   UNL     1       3.643   4.587  16.791  0.00  0.00    +0.000 C 
ATOM      4  C   UNL     1       5.082   4.277  17.193  0.00  0.00    +0.000 C 
ATOM      5  C   UNL     1       5.407   4.727  18.636  0.00  0.00    +0.000 C 
ATOM      6  C   UNL     1       5.907   6.160  18.476  0.00  0.00    +0.000 C 
ATOM      7  C   UNL     1       6.613   6.165  17.124  0.00  0.00    +0.000 C 
ATOM      8  N   UNL     1       6.016   5.061  16.398  0.00  0.00    +0.000 N 
ATOM      9  C   UNL     1       6.415   4.751  15.135  0.00  0.00    +0.000 A 
ATOM     10  N   UNL     1       7.368   5.516  14.565  0.00  0.00    +0.000 NA
ATOM     11  C   UNL     1       7.739   5.223  13.301  0.00  0.00    +0.000 A 
ATOM     12  C   UNL     1       7.197   4.192  12.584  0.00  0.00    +0.000 A 
ATOM     13  F   UNL     1       7.575   3.920  11.331  0.00  0.00    +0.000 F 
ATOM     14  C   UNL     1       6.243   3.457  13.235  0.00  0.00    +0.000 A 
ATOM     15  N   UNL     1       5.843   3.710  14.502  0.00  0.00    +0.000 NA
ATOM     16  O   UNL     1       4.386   4.594  19.620  0.00  0.00    +0.000 OA
ENDROOT
BRANCH   1  18
ATOM     17  N   UNL     1       2.140   6.853  20.451  0.00  0.00    +0.000 N 
ATOM     18  C   UNL     1       2.703   6.434  19.259  0.00  0.00    +0.000 C 
ATOM     19  O   UNL     1       2.860   7.188  18.301  0.00  0.00    +0.000 OA
ATOM     20  H   UNL     1       2.363   6.298  21.273  0.00  0.00    +0.000 HD
BRANCH  17  21
ATOM     21  C   UNL     1       1.886   8.270  20.652  0.00  0.00    +0.000 C 
BRANCH  21  22
ATOM     22  C   UNL     1       0.601   8.538  21.430  0.00  0.00    +0.000 C 
BRANCH  22  24
ATOM     23  C   UNL     1      -0.274   9.711  23.278  0.00  0.00    +0.000 C 
ATOM     24  O   UNL     1       0.883   9.455  22.492  0.00  0.00    +0.000 OA
ENDBRANCH  22  24
ENDBRANCH  21  22
ENDBRANCH  17  21
ENDBRANCH   1  18
TORSDOF 4
ENDMDL
MODEL 5
REMARK VINA RESULT:      -7.1      3.801      5.397
REMARK  Name = 
REMARK  5 active torsions:
REMARK  status: ('A' for Active; 'I' for Inactive)
REMARK    1  A    between atoms: C_1  and  O_2
REMARK    2  A    between atoms: O_2  and  C_3
REMARK    3  A    between atoms: C_3  and  C_4
REMARK    4  A    between atoms: C_4  and  N_5
REMARK    5  A    between atoms: C_6  and  C_8
REMARK                            x       y       z     vdW  Elec       q    Type
REMARK                         _______ _______ _______ _____ _____    ______ ____
ROOT
ATOM      1  C   UNL     1       3.753   3.710  18.930  0.00  0.00    +0.000 C 
ATOM      2  C   UNL     1       3.163   3.947  20.321  0.00  0.00    +0.000 C 
ATOM      3  C   UNL     1       2.817   5.411  20.547  0.00  0.00    +0.000 C 
ATOM      4  C   UNL     1       1.919   5.951  19.438  0.00  0.00    +0.000 C 
ATOM      5  C   UNL     1       2.367   5.489  18.032  0.00  0.00    +0.000 C 
ATOM      6  C   UNL     1       3.344   6.570  17.578  0.00  0.00    +0.000 C 
ATOM      7  C   UNL     1       2.809   7.851  18.210  0.00  0.00    +0.000 C 
ATOM      8  N   UNL     1       2.032   7.400  19.347  0.00  0.00    +0.000 N 
ATOM      9  C   UNL     1       1.386   8.283  20.155  0.00  0.00    +0.000 A 
ATOM     10  N   UNL     1       1.507   9.598  19.881  0.00  0.00    +0.000 NA
ATOM     11  C   UNL     1       0.888  10.473  20.702  0.00  0.00    +0.000 A 
ATOM     12  C   UNL     1       0.150  10.084  21.785  0.00  0.00    +0.000 A 
ATOM     13  F   UNL     1      -0.452  10.966  22.590  0.00  0.00    +0.000 F 
ATOM     14  C   UNL     1       0.068   8.733  21.990  0.00  0.00    +0.000 A 
ATOM     15  N   UNL     1       0.666   7.820  21.192  0.00  0.00    +0.000 NA
ATOM     16  O   UNL     1       2.887   4.170  17.900  0.00  0.00    +0.000 OA
ENDROOT
BRANCH   1  18
ATOM     17  N   UNL     1       5.776   3.994  17.561  0.00  0.00    +0.000 N 
ATOM     18  C   UNL     1       5.232   4.154  18.823  0.00  0.00    +0.000 C 
ATOM     19  O   UNL     1       5.884   4.570  19.776  0.00  0.00    +0.000 OA
ATOM     20  H   UNL     1       5.121   3.990  16.784  0.00  0.00    +0.000 HD
BRANCH  17  21
ATOM     21  C   UNL     1       7.115   4.500  17.301  0.00  0.00    +0.000 C 
BRANCH  21  22
ATOM     22  C   UNL     1       7.113   5.808  16.516  0.00  0.00    +0.000 C 
BRANCH  22  24
ATOM     23  C   UNL     1       6.866   4.797  14.400  0.00  0.00    +0.000 C 
ATOM     24  O   UNL     1       7.709   5.582  15.235  0.00  0.00    +0.000 OA
ENDBRANCH  22  24
ENDBRANCH  21  22
ENDBRANCH  17  21
ENDBRANCH   1  18
TORSDOF 4
ENDMDL
MODEL 6
REMARK VINA RESULT:      -7.0      3.758      5.129
REMARK  Name = 
REMARK  5 active torsions:
REMARK  status: ('A' for Active; 'I' for Inactive)
REMARK    1  A    between atoms: C_1  and  O_2
REMARK    2  A    between atoms: O_2  and  C_3
REMARK    3  A    between atoms: C_3  and  C_4
REMARK    4  A    between atoms: C_4  and  N_5
REMARK    5  A    between atoms: C_6  and  C_8
REMARK                            x       y       z     vdW  Elec       q    Type
REMARK                         _______ _______ _______ _____ _____    ______ ____
ROOT
ATOM      1  C   UNL     1       3.783   3.776  18.805  0.00  0.00    +0.000 C 
ATOM      2  C   UNL     1       3.223   4.009  20.209  0.00  0.00    +0.000 C 
ATOM      3  C   UNL     1       2.877   5.471  20.446  0.00  0.00    +0.000 C 
ATOM      4  C   UNL     1       1.952   6.010  19.358  0.00  0.00    +0.000 C 
ATOM      5  C   UNL     1       2.371   5.552  17.941  0.00  0.00    +0.000 C 
ATOM      6  C   UNL     1       3.334   6.638  17.468  0.00  0.00    +0.000 C 
ATOM      7  C   UNL     1       2.808   7.915  18.114  0.00  0.00    +0.000 C 
ATOM      8  N   UNL     1       2.058   7.459  19.267  0.00  0.00    +0.000 N 
ATOM      9  C   UNL     1       1.427   8.339  20.091  0.00  0.00    +0.000 A 
ATOM     10  N   UNL     1       1.537   9.654  19.817  0.00  0.00    +0.000 NA
ATOM     11  C   UNL     1       0.933  10.525  20.653  0.00  0.00    +0.000 A 
ATOM     12  C   UNL     1       0.220  10.131  21.752  0.00  0.00    +0.000 A 
ATOM     13  F   UNL     1      -0.367  11.009  22.571  0.00  0.00    +0.000 F 
ATOM     14  C   UNL     1       0.148   8.779  21.956  0.00  0.00    +0.000 A 
ATOM     15  N   UNL     1       0.731   7.871  21.143  0.00  0.00    +0.000 NA
ATOM     16  O   UNL     1       2.893   4.235  17.795  0.00  0.00    +0.000 OA
ENDROOT
BRANCH   1  18
ATOM     17  N   UNL     1       5.782   4.047  17.399  0.00  0.00    +0.000 N 
ATOM     18  C   UNL     1       5.257   4.226  18.666  0.00  0.00    +0.000 C 
ATOM     19  O   UNL     1       5.923   4.662  19.601  0.00  0.00    +0.000 OA
ATOM     20  H   UNL     1       5.114   4.026  16.633  0.00  0.00    +0.000 HD
BRANCH  17  21
ATOM     21  C   UNL     1       7.113   4.555  17.108  0.00  0.00    +0.000 C 
BRANCH  21  22
ATOM     22  C   UNL     1       7.106   5.693  16.091  0.00  0.00    +0.000 C 
BRANCH  22  24
ATOM     23  C   UNL     1       7.625   7.445  17.580  0.00  0.00    +0.000 C 
ATOM     24  O   UNL     1       6.633   6.884  16.729  0.00  0.00    +0.000 OA
ENDBRANCH  22  24
ENDBRANCH  21  22
ENDBRANCH  17  21
ENDBRANCH   1  18
TORSDOF 4
ENDMDL
MODEL 7
REMARK VINA RESULT:      -7.0      1.164      1.204
REMARK  Name = 
REMARK  5 active torsions:
REMARK  status: ('A' for Active; 'I' for Inactive)
REMARK    1  A    between atoms: C_1  and  O_2
REMARK    2  A    between atoms: O_2  and  C_3
REMARK    3  A    between atoms: C_3  and  C_4
REMARK    4  A    between atoms: C_4  and  N_5
REMARK    5  A    between atoms: C_6  and  C_8
REMARK                            x       y       z     vdW  Elec       q    Type
REMARK                         _______ _______ _______ _____ _____    ______ ____
ROOT
ATOM      1  C   UNL     1       7.483   6.078  16.951  0.00  0.00    +0.000 C 
ATOM      2  C   UNL     1       7.408   4.791  17.772  0.00  0.00    +0.000 C 
ATOM      3  C   UNL     1       6.131   4.719  18.596  0.00  0.00    +0.000 C 
ATOM      4  C   UNL     1       4.893   4.924  17.728  0.00  0.00    +0.000 C 
ATOM      5  C   UNL     1       5.068   6.069  16.704  0.00  0.00    +0.000 C 
ATOM      6  C   UNL     1       4.583   7.311  17.448  0.00  0.00    +0.000 C 
ATOM      7  C   UNL     1       3.476   6.796  18.361  0.00  0.00    +0.000 C 
ATOM      8  N   UNL     1       3.773   5.387  18.535  0.00  0.00    +0.000 N 
ATOM      9  C   UNL     1       2.977   4.587  19.295  0.00  0.00    +0.000 A 
ATOM     10  N   UNL     1       1.912   5.147  19.903  0.00  0.00    +0.000 NA
ATOM     11  C   UNL     1       1.142   4.356  20.679  0.00  0.00    +0.000 A 
ATOM     12  C   UNL     1       1.393   3.025  20.869  0.00  0.00    +0.000 A 
ATOM     13  F   UNL     1       0.620   2.259  21.645  0.00  0.00    +0.000 F 
ATOM     14  C   UNL     1       2.486   2.530  20.210  0.00  0.00    +0.000 A 
ATOM     15  N   UNL     1       3.283   3.283  19.418  0.00  0.00    +0.000 NA
ATOM     16  O   UNL     1       6.349   6.237  16.106  0.00  0.00    +0.000 OA
ENDROOT
BRANCH   1  18
ATOM     17  N   UNL     1       7.643   8.522  17.175  0.00  0.00    +0.000 N 
ATOM     18  C   UNL     1       7.874   7.310  17.802  0.00  0.00    +0.000 C 
ATOM     19  O   UNL     1       8.384   7.229  18.916  0.00  0.00    +0.000 OA
ATOM     20  H   UNL     1       6.928   8.527  16.453  0.00  0.00    +0.000 HD
BRANCH  17  21
ATOM     21  C   UNL     1       7.843   9.752  17.924  0.00  0.00    +0.000 C 
BRANCH  21  22
ATOM     22  C   UNL     1       9.294  10.224  17.913  0.00  0.00    +0.000 C 
BRANCH  22  24
ATOM     23  C   UNL     1       9.676  12.544  17.732  0.00  0.00    +0.000 C 
ATOM     24  O   UNL     1       9.384  11.468  18.616  0.00  0.00    +0.000 OA
ENDBRANCH  22  24
ENDBRANCH  21  22
ENDBRANCH  17  21
ENDBRANCH   1  18
TORSDOF 4
ENDMDL
MODEL 8
REMARK VINA RESULT:      -7.0      1.226      1.314
REMARK  Name = 
REMARK  5 active torsions:
REMARK  status: ('A' for Active; 'I' for Inactive)
REMARK    1  A    between atoms: C_1  and  O_2
REMARK    2  A    between atoms: O_2  and  C_3
REMARK    3  A    between atoms: C_3  and  C_4
REMARK    4  A    between atoms: C_4  and  N_5
REMARK    5  A    between atoms: C_6  and  C_8
REMARK                            x       y       z     vdW  Elec       q    Type
REMARK                         _______ _______ _______ _____ _____    ______ ____
ROOT
ATOM      1  C   UNL     1       8.204   6.010  18.380  0.00  0.00    +0.000 C 
ATOM      2  C   UNL     1       7.488   5.613  19.671  0.00  0.00    +0.000 C 
ATOM      3  C   UNL     1       6.009   5.345  19.441  0.00  0.00    +0.000 C 
ATOM      4  C   UNL     1       5.792   4.329  18.323  0.00  0.00    +0.000 C 
ATOM      5  C   UNL     1       6.715   4.577  17.107  0.00  0.00    +0.000 C 
ATOM      6  C   UNL     1       5.911   5.520  16.216  0.00  0.00    +0.000 C 
ATOM      7  C   UNL     1       4.460   5.113  16.447  0.00  0.00    +0.000 C 
ATOM      8  N   UNL     1       4.463   4.475  17.748  0.00  0.00    +0.000 N 
ATOM      9  C   UNL     1       3.321   3.967  18.287  0.00  0.00    +0.000 A 
ATOM     10  N   UNL     1       2.178   4.093  17.584  0.00  0.00    +0.000 NA
ATOM     11  C   UNL     1       1.043   3.613  18.135  0.00  0.00    +0.000 A 
ATOM     12  C   UNL     1       1.007   3.009  19.362  0.00  0.00    +0.000 A 
ATOM     13  F   UNL     1      -0.129   2.544  19.892  0.00  0.00    +0.000 F 
ATOM     14  C   UNL     1       2.210   2.911  20.008  0.00  0.00    +0.000 A 
ATOM     15  N   UNL     1       3.372   3.372  19.492  0.00  0.00    +0.000 NA
ATOM     16  O   UNL     1       8.039   5.033  17.359  0.00  0.00    +0.000 OA
ENDROOT
BRANCH   1  18
ATOM     17  N   UNL     1       8.630   8.410  18.706  0.00  0.00    +0.000 N 
ATOM     18  C   UNL     1       7.926   7.476  17.968  0.00  0.00    +0.000 C 
ATOM     19  O   UNL     1       7.122   7.792  17.095  0.00  0.00    +0.000 OA
ATOM     20  H   UNL     1       9.494   8.088  19.133  0.00  0.00    +0.000 HD
BRANCH  17  21
ATOM     21  C   UNL     1       8.557   9.811  18.324  0.00  0.00    +0.000 C 
BRANCH  21  22
ATOM     22  C   UNL     1       9.352  10.722  19.254  0.00  0.00    +0.000 C 
BRANCH  22  24
ATOM     23  C   UNL     1      11.532  11.578  18.981  0.00  0.00    +0.000 C 
ATOM     24  O   UNL     1      10.206  11.559  18.467  0.00  0.00    +0.000 OA
ENDBRANCH  22  24
ENDBRANCH  21  22
ENDBRANCH  17  21
ENDBRANCH   1  18
TORSDOF 4
ENDMDL
MODEL 9
REMARK VINA RESULT:      -6.9      4.523      6.850
REMARK  Name = 
REMARK  5 active torsions:
REMARK  status: ('A' for Active; 'I' for Inactive)
REMARK    1  A    between atoms: C_1  and  O_2
REMARK    2  A    between atoms: O_2  and  C_3
REMARK    3  A    between atoms: C_3  and  C_4
REMARK    4  A    between atoms: C_4  and  N_5
REMARK    5  A    between atoms: C_6  and  C_8
REMARK                            x       y       z     vdW  Elec       q    Type
REMARK                         _______ _______ _______ _____ _____    ______ ____
ROOT
ATOM      1  C   UNL     1       1.342   3.085  19.359  0.00  0.00    +0.000 C 
ATOM      2  C   UNL     1       1.208   3.647  17.943  0.00  0.00    +0.000 C 
ATOM      3  C   UNL     1       2.543   4.127  17.395  0.00  0.00    +0.000 C 
ATOM      4  C   UNL     1       3.609   3.038  17.487  0.00  0.00    +0.000 C 
ATOM      5  C   UNL     1       3.572   2.283  18.836  0.00  0.00    +0.000 C 
ATOM      6  C   UNL     1       4.510   3.083  19.736  0.00  0.00    +0.000 C 
ATOM      7  C   UNL     1       5.579   3.617  18.789  0.00  0.00    +0.000 C 
ATOM      8  N   UNL     1       4.941   3.624  17.487  0.00  0.00    +0.000 N 
ATOM      9  C   UNL     1       5.611   4.037  16.377  0.00  0.00    +0.000 A 
ATOM     10  N   UNL     1       6.882   4.462  16.524  0.00  0.00    +0.000 NA
ATOM     11  C   UNL     1       7.532   4.897  15.425  0.00  0.00    +0.000 A 
ATOM     12  C   UNL     1       6.962   4.923  14.182  0.00  0.00    +0.000 A 
ATOM     13  F   UNL     1       7.622   5.362  13.105  0.00  0.00    +0.000 F 
ATOM     14  C   UNL     1       5.673   4.467  14.114  0.00  0.00    +0.000 A 
ATOM     15  N   UNL     1       4.984   4.016  15.187  0.00  0.00    +0.000 NA
ATOM     16  O   UNL     1       2.300   2.036  19.426  0.00  0.00    +0.000 OA
ENDROOT
BRANCH   1  18
ATOM     17  N   UNL     1       1.489   5.476  19.918  0.00  0.00    +0.000 N 
ATOM     18  C   UNL     1       1.470   4.192  20.433  0.00  0.00    +0.000 C 
ATOM     19  O   UNL     1       1.590   3.959  21.633  0.00  0.00    +0.000 OA
ATOM     20  H   UNL     1       1.047   5.604  19.012  0.00  0.00    +0.000 HD
BRANCH  17  21
ATOM     21  C   UNL     1       1.471   6.604  20.835  0.00  0.00    +0.000 C 
BRANCH  21  22
ATOM     22  C   UNL     1       1.827   7.925  20.159  0.00  0.00    +0.000 C 
BRANCH  22  24
ATOM     23  C   UNL     1       1.984   8.659  17.924  0.00  0.00    +0.000 C 
ATOM     24  O   UNL     1       2.357   7.652  18.858  0.00  0.00    +0.000 OA
ENDBRANCH  22  24
ENDBRANCH  21  22
ENDBRANCH  17  21
ENDBRANCH   1  18
TORSDOF 4
ENDMDL
