MODEL 1
REMARK VINA RESULT:      -7.9      0.000      0.000
REMARK  Name = 
REMARK  8 active torsions:
REMARK  status: ('A' for Active; 'I' for Inactive)
REMARK    1  A    between atoms: C_1  and  C_2
REMARK    2  A    between atoms: C_2  and  C_3
REMARK    3  A    between atoms: C_2  and  C_4
REMARK    4  A    between atoms: C_6  and  N_7
REMARK    5  A    between atoms: C_10  and  C_11
REMARK    6  A    between atoms: C_11  and  C_12
REMARK    7  A    between atoms: C_12  and  C_13
REMARK    8  A    between atoms: N_15  and  C_16
REMARK                            x       y       z     vdW  Elec       q    Type
REMARK                         _______ _______ _______ _____ _____    ______ ____
ROOT
ATOM      1  N   UNL     1       3.922   3.735  17.117  0.00  0.00    +0.000 N 
ATOM      2  C   UNL     1       4.073   2.545  17.974  0.00  0.00    +0.000 C 
ATOM      3  C   UNL     1       2.748   1.774  17.967  0.00  0.00    +0.000 C 
ATOM      4  C   UNL     1       1.559   2.647  18.421  0.00  0.00    +0.000 C 
ATOM      5  C   UNL     1       1.537   3.938  17.581  0.00  0.00    +0.000 C 
ATOM      6  C   UNL     1       2.884   4.661  17.601  0.00  0.00    +0.000 C 
ENDROOT
BRANCH   1   9
ATOM      7  C   UNL     1       6.540   4.437  14.545  0.00  0.00    +0.000 A 
ATOM      8  C   UNL     1       5.327   3.862  15.197  0.00  0.00    +0.000 A 
ATOM      9  C   UNL     1       5.039   4.262  16.446  0.00  0.00    +0.000 A 
ATOM     10  N   UNL     1       5.899   5.208  17.063  0.00  0.00    +0.000 N 
ATOM     11  N   UNL     1       5.804   5.776  18.305  0.00  0.00    +0.000 NA
ATOM     12  C   UNL     1       6.867   6.575  18.393  0.00  0.00    +0.000 A 
ATOM     13  C   UNL     1       7.657   6.561  17.237  0.00  0.00    +0.000 A 
ATOM     14  C   UNL     1       7.022   5.697  16.376  0.00  0.00    +0.000 A 
ATOM     15  N   UNL     1       7.331   5.313  15.100  0.00  0.00    +0.000 NA
BRANCH   7  17
ATOM     16  C   UNL     1       5.504   3.519  12.470  0.00  0.00    +0.000 C 
ATOM     17  C   UNL     1       6.812   3.973  13.114  0.00  0.00    +0.000 C 
ATOM     18  C   UNL     1       7.488   5.052  12.273  0.00  0.00    +0.000 C 
ENDBRANCH   7  17
ENDBRANCH   1   9
BRANCH   4  19
ATOM     19  C   UNL     1       1.622   2.903  19.941  0.00  0.00    +0.000 C 
BRANCH  19  20
ATOM     20  C   UNL     1       0.782   4.092  20.411  0.00  0.00    +0.000 C 
BRANCH  20  21
ATOM     21  C   UNL     1       1.654   5.292  20.724  0.00  0.00    +0.000 C 
ATOM     22  O   UNL     1       2.834   5.201  21.060  0.00  0.00    +0.000 OA
ATOM     23  N   UNL     1       0.995   6.496  20.579  0.00  0.00    +0.000 N 
ATOM     24  H   UNL     1       0.021   6.501  20.303  0.00  0.00    +0.000 HD
BRANCH  23  25
ATOM     25  C   UNL     1       1.655   7.742  20.810  0.00  0.00    +0.000 C 
ATOM     26  C   UNL     1       1.083   9.039  20.314  0.00  0.00    +0.000 C 
ATOM     27  C   UNL     1       1.080   8.731  21.783  0.00  0.00    +0.000 C 
ENDBRANCH  23  25
ENDBRANCH  20  21
ENDBRANCH  19  20
ENDBRANCH   4  19
TORSDOF 6
ENDMDL
MODEL 2
REMARK VINA RESULT:      -7.8      2.301      7.889
REMARK  Name = 
REMARK  8 active torsions:
REMARK  status: ('A' for Active; 'I' for Inactive)
REMARK    1  A    between atoms: C_1  and  C_2
REMARK    2  A    between atoms: C_2  and  C_3
REMARK    3  A    between atoms: C_2  and  C_4
REMARK    4  A    between atoms: C_6  and  N_7
REMARK    5  A    between atoms: C_10  and  C_11
REMARK    6  A    between atoms: C_11  and  C_12
REMARK    7  A    between atoms: C_12  and  C_13
REMARK    8  A    between atoms: N_15  and  C_16
REMARK                            x       y       z     vdW  Elec       q    Type
REMARK                         _______ _______ _______ _____ _____    ______ ____
ROOT
ATOM      1  N   UNL     1       4.681   5.890  18.779  0.00  0.00    +0.000 N 
ATOM      2  C   UNL     1       5.790   5.076  19.308  0.00  0.00    +0.000 C 
ATOM      3  C   UNL     1       7.111   5.735  18.897  0.00  0.00    +0.000 C 
ATOM      4  C   UNL     1       7.225   5.916  17.368  0.00  0.00    +0.000 C 
ATOM      5  C   UNL     1       5.973   6.653  16.858  0.00  0.00    +0.000 C 
ATOM      6  C   UNL     1       4.681   5.972  17.309  0.00  0.00    +0.000 C 
ENDROOT
BRANCH   1   9
ATOM      7  C   UNL     1       1.627   7.074  20.579  0.00  0.00    +0.000 A 
ATOM      8  C   UNL     1       2.923   7.101  19.838  0.00  0.00    +0.000 A 
ATOM      9  C   UNL     1       3.450   5.925  19.458  0.00  0.00    +0.000 A 
ATOM     10  N   UNL     1       2.743   4.737  19.778  0.00  0.00    +0.000 N 
ATOM     11  N   UNL     1       3.063   3.440  19.483  0.00  0.00    +0.000 NA
ATOM     12  C   UNL     1       2.081   2.719  20.022  0.00  0.00    +0.000 A 
ATOM     13  C   UNL     1       1.111   3.505  20.656  0.00  0.00    +0.000 A 
ATOM     14  C   UNL     1       1.529   4.804  20.479  0.00  0.00    +0.000 A 
ATOM     15  N   UNL     1       0.965   5.988  20.868  0.00  0.00    +0.000 NA
BRANCH   7  17
ATOM     16  C   UNL     1       0.954   9.318  19.724  0.00  0.00    +0.000 C 
ATOM     17  C   UNL     1       1.052   8.436  20.967  0.00  0.00    +0.000 C 
ATOM     18  C   UNL     1      -0.304   8.317  21.659  0.00  0.00    +0.000 C 
ENDBRANCH   7  17
ENDBRANCH   1   9
BRANCH   4  19
ATOM     19  C   UNL     1       7.467   4.559  16.677  0.00  0.00    +0.000 C 
BRANCH  19  20
ATOM     20  C   UNL     1       6.268   4.039  15.882  0.00  0.00    +0.000 C 
BRANCH  20  21
ATOM     21  C   UNL     1       6.477   4.221  14.391  0.00  0.00    +0.000 C 
ATOM     22  O   UNL     1       7.170   5.115  13.910  0.00  0.00    +0.000 OA
ATOM     23  N   UNL     1       5.821   3.274  13.630  0.00  0.00    +0.000 N 
ATOM     24  H   UNL     1       5.262   2.566  14.090  0.00  0.00    +0.000 HD
BRANCH  23  25
ATOM     25  C   UNL     1       5.912   3.266  12.204  0.00  0.00    +0.000 C 
ATOM     26  C   UNL     1       5.614   2.031  11.404  0.00  0.00    +0.000 C 
ATOM     27  C   UNL     1       4.665   3.194  11.370  0.00  0.00    +0.000 C 
ENDBRANCH  23  25
ENDBRANCH  20  21
ENDBRANCH  19  20
ENDBRANCH   4  19
TORSDOF 6
ENDMDL
MODEL 3
REMARK VINA RESULT:      -7.7      0.875      1.019
REMARK  Name = 
REMARK  8 active torsions:
REMARK  status: ('A' for Active; 'I' for Inactive)
REMARK    1  A    between atoms: C_1  and  C_2
REMARK    2  A    between atoms: C_2  and  C_3
REMARK    3  A    between atoms: C_2  and  C_4
REMARK    4  A    between atoms: C_6  and  N_7
REMARK    5  A    between atoms: C_10  and  C_11
REMARK    6  A    between atoms: C_11  and  C_12
REMARK    7  A    between atoms: C_12  and  C_13
REMARK    8  A    between atoms: N_15  and  C_16
REMARK                            x       y       z     vdW  Elec       q    Type
REMARK                         _______ _______ _______ _____ _____    ______ ____
ROOT
ATOM      1  N   UNL     1       4.287   3.582  17.587  0.00  0.00    +0.000 N 
ATOM      2  C   UNL     1       4.462   3.690  19.047  0.00  0.00    +0.000 C 
ATOM      3  C   UNL     1       3.808   2.469  19.702  0.00  0.00    +0.000 C 
ATOM      4  C   UNL     1       2.318   2.327  19.323  0.00  0.00    +0.000 C 
ATOM      5  C   UNL     1       2.188   2.359  17.788  0.00  0.00    +0.000 C 
ATOM      6  C   UNL     1       2.873   3.582  17.178  0.00  0.00    +0.000 C 
ENDROOT
BRANCH   1   9
ATOM      7  C   UNL     1       6.423   4.306  14.608  0.00  0.00    +0.000 A 
ATOM      8  C   UNL     1       5.376   3.683  15.471  0.00  0.00    +0.000 A 
ATOM      9  C   UNL     1       5.241   4.149  16.723  0.00  0.00    +0.000 A 
ATOM     10  N   UNL     1       6.092   5.204  17.144  0.00  0.00    +0.000 N 
ATOM     11  N   UNL     1       6.129   5.850  18.349  0.00  0.00    +0.000 NA
ATOM     12  C   UNL     1       7.116   6.737  18.226  0.00  0.00    +0.000 A 
ATOM     13  C   UNL     1       7.726   6.704  16.966  0.00  0.00    +0.000 A 
ATOM     14  C   UNL     1       7.052   5.730  16.265  0.00  0.00    +0.000 A 
ATOM     15  N   UNL     1       7.204   5.282  14.982  0.00  0.00    +0.000 NA
BRANCH   7  17
ATOM     16  C   UNL     1       5.119   3.576  12.611  0.00  0.00    +0.000 C 
ATOM     17  C   UNL     1       6.523   3.763  13.182  0.00  0.00    +0.000 C 
ATOM     18  C   UNL     1       7.364   4.660  12.278  0.00  0.00    +0.000 C 
ENDBRANCH   7  17
ENDBRANCH   1   9
BRANCH   4  19
ATOM     19  C   UNL     1       1.472   3.401  20.035  0.00  0.00    +0.000 C 
BRANCH  19  20
ATOM     20  C   UNL     1       2.291   4.413  20.839  0.00  0.00    +0.000 C 
BRANCH  20  21
ATOM     21  C   UNL     1       2.061   5.826  20.341  0.00  0.00    +0.000 C 
ATOM     22  O   UNL     1       2.330   6.192  19.198  0.00  0.00    +0.000 OA
ATOM     23  N   UNL     1       1.505   6.655  21.294  0.00  0.00    +0.000 N 
ATOM     24  H   UNL     1       1.311   6.291  22.219  0.00  0.00    +0.000 HD
BRANCH  23  25
ATOM     25  C   UNL     1       1.195   8.020  21.009  0.00  0.00    +0.000 C 
ATOM     26  C   UNL     1      -0.050   8.671  21.539  0.00  0.00    +0.000 C 
ATOM     27  C   UNL     1       1.291   9.057  22.092  0.00  0.00    +0.000 C 
ENDBRANCH  23  25
ENDBRANCH  20  21
ENDBRANCH  19  20
ENDBRANCH   4  19
TORSDOF 6
ENDMDL
MODEL 4
REMARK VINA RESULT:      -7.6      1.184      1.344
REMARK  Name = 
REMARK  8 active torsions:
REMARK  status: ('A' for Active; 'I' for Inactive)
REMARK    1  A    between atoms: C_1  and  C_2
REMARK    2  A    between atoms: C_2  and  C_3
REMARK    3  A    between atoms: C_2  and  C_4
REMARK    4  A    between atoms: C_6  and  N_7
REMARK    5  A    between atoms: C_10  and  C_11
REMARK    6  A    between atoms: C_11  and  C_12
REMARK    7  A    between atoms: C_12  and  C_13
REMARK    8  A    between atoms: N_15  and  C_16
REMARK                            x       y       z     vdW  Elec       q    Type
REMARK                         _______ _______ _______ _____ _____    ______ ____
ROOT
ATOM      1  N   UNL     1       3.917   3.768  18.152  0.00  0.00    +0.000 N 
ATOM      2  C   UNL     1       3.895   3.617  19.618  0.00  0.00    +0.000 C 
ATOM      3  C   UNL     1       2.841   2.565  19.980  0.00  0.00    +0.000 C 
ATOM      4  C   UNL     1       1.443   2.923  19.430  0.00  0.00    +0.000 C 
ATOM      5  C   UNL     1       1.557   3.202  17.920  0.00  0.00    +0.000 C 
ATOM      6  C   UNL     1       2.634   4.241  17.606  0.00  0.00    +0.000 C 
ENDROOT
BRANCH   1   9
ATOM      7  C   UNL     1       6.561   4.288  15.563  0.00  0.00    +0.000 A 
ATOM      8  C   UNL     1       5.266   3.892  16.193  0.00  0.00    +0.000 A 
ATOM      9  C   UNL     1       5.106   4.141  17.502  0.00  0.00    +0.000 A 
ATOM     10  N   UNL     1       6.171   4.767  18.202  0.00  0.00    +0.000 N 
ATOM     11  N   UNL     1       6.235   5.136  19.518  0.00  0.00    +0.000 NA
ATOM     12  C   UNL     1       7.451   5.661  19.662  0.00  0.00    +0.000 A 
ATOM     13  C   UNL     1       8.190   5.661  18.472  0.00  0.00    +0.000 A 
ATOM     14  C   UNL     1       7.357   5.104  17.531  0.00  0.00    +0.000 A 
ATOM     15  N   UNL     1       7.541   4.872  16.196  0.00  0.00    +0.000 NA
BRANCH   7  17
ATOM     16  C   UNL     1       5.294   3.925  13.446  0.00  0.00    +0.000 C 
ATOM     17  C   UNL     1       6.687   4.010  14.065  0.00  0.00    +0.000 C 
ATOM     18  C   UNL     1       7.537   5.058  13.351  0.00  0.00    +0.000 C 
ENDBRANCH   7  17
ENDBRANCH   1   9
BRANCH   4  19
ATOM     19  C   UNL     1       0.828   4.090  20.228  0.00  0.00    +0.000 C 
BRANCH  19  20
ATOM     20  C   UNL     1       1.848   4.919  21.011  0.00  0.00    +0.000 C 
BRANCH  20  21
ATOM     21  C   UNL     1       1.840   6.367  20.561  0.00  0.00    +0.000 C 
ATOM     22  O   UNL     1       2.265   6.738  19.469  0.00  0.00    +0.000 OA
ATOM     23  N   UNL     1       1.294   7.224  21.497  0.00  0.00    +0.000 N 
ATOM     24  H   UNL     1       0.966   6.854  22.379  0.00  0.00    +0.000 HD
BRANCH  23  25
ATOM     25  C   UNL     1       1.181   8.627  21.248  0.00  0.00    +0.000 C 
ATOM     26  C   UNL     1      -0.153   9.280  21.027  0.00  0.00    +0.000 C 
ATOM     27  C   UNL     1       0.604   9.533  22.298  0.00  0.00    +0.000 C 
ENDBRANCH  23  25
ENDBRANCH  20  21
ENDBRANCH  19  20
ENDBRANCH   4  19
TORSDOF 6
ENDMDL
MODEL 5
REMARK VINA RESULT:      -7.5      2.642      8.166
REMARK  Name = 
REMARK  8 active torsions:
REMARK  status: ('A' for Active; 'I' for Inactive)
REMARK    1  A    between atoms: C_1  and  C_2
REMARK    2  A    between atoms: C_2  and  C_3
REMARK    3  A    between atoms: C_2  and  C_4
REMARK    4  A    between atoms: C_6  and  N_7
REMARK    5  A    between atoms: C_10  and  C_11
REMARK    6  A    between atoms: C_11  and  C_12
REMARK    7  A    between atoms: C_12  and  C_13
REMARK    8  A    between atoms: N_15  and  C_16
REMARK                            x       y       z     vdW  Elec       q    Type
REMARK                         _______ _______ _______ _____ _____    ______ ____
ROOT
ATOM      1  N   UNL     1       4.547   5.420  18.179  0.00  0.00    +0.000 N 
ATOM      2  C   UNL     1       5.455   4.270  18.339  0.00  0.00    +0.000 C 
ATOM      3  C   UNL     1       6.845   4.679  17.840  0.00  0.00    +0.000 C 
ATOM      4  C   UNL     1       6.821   5.178  16.379  0.00  0.00    +0.000 C 
ATOM      5  C   UNL     1       5.756   6.283  16.246  0.00  0.00    +0.000 C 
ATOM      6  C   UNL     1       4.393   5.837  16.775  0.00  0.00    +0.000 C 
ENDROOT
BRANCH   1   9
ATOM      7  C   UNL     1       1.901   6.925  20.346  0.00  0.00    +0.000 A 
ATOM      8  C   UNL     1       3.043   6.814  19.391  0.00  0.00    +0.000 A 
ATOM      9  C   UNL     1       3.460   5.583  19.055  0.00  0.00    +0.000 A 
ATOM     10  N   UNL     1       2.788   4.468  19.622  0.00  0.00    +0.000 N 
ATOM     11  N   UNL     1       3.013   3.134  19.419  0.00  0.00    +0.000 NA
ATOM     12  C   UNL     1       2.124   2.520  20.198  0.00  0.00    +0.000 A 
ATOM     13  C   UNL     1       1.306   3.412  20.902  0.00  0.00    +0.000 A 
ATOM     14  C   UNL     1       1.722   4.664  20.514  0.00  0.00    +0.000 A 
ATOM     15  N   UNL     1       1.271   5.907  20.864  0.00  0.00    +0.000 NA
BRANCH   7  17
ATOM     16  C   UNL     1       1.308   9.150  19.386  0.00  0.00    +0.000 C 
ATOM     17  C   UNL     1       1.443   8.346  20.677  0.00  0.00    +0.000 C 
ATOM     18  C   UNL     1       0.138   8.364  21.469  0.00  0.00    +0.000 C 
ENDBRANCH   7  17
ENDBRANCH   1   9
BRANCH   4  19
ATOM     19  C   UNL     1       6.609   3.999  15.407  0.00  0.00    +0.000 C 
BRANCH  19  20
ATOM     20  C   UNL     1       5.658   4.306  14.248  0.00  0.00    +0.000 C 
BRANCH  20  21
ATOM     21  C   UNL     1       6.228   3.824  12.928  0.00  0.00    +0.000 C 
ATOM     22  O   UNL     1       7.144   4.395  12.339  0.00  0.00    +0.000 OA
ATOM     23  N   UNL     1       5.624   2.674  12.463  0.00  0.00    +0.000 N 
ATOM     24  H   UNL     1       4.871   2.255  12.995  0.00  0.00    +0.000 HD
BRANCH  23  25
ATOM     25  C   UNL     1       6.036   2.054  11.243  0.00  0.00    +0.000 C 
ATOM     26  C   UNL     1       7.398   1.439  11.095  0.00  0.00    +0.000 C 
ATOM     27  C   UNL     1       6.183   0.561  11.168  0.00  0.00    +0.000 C 
ENDBRANCH  23  25
ENDBRANCH  20  21
ENDBRANCH  19  20
ENDBRANCH   4  19
TORSDOF 6
ENDMDL
MODEL 6
REMARK VINA RESULT:      -7.5      1.331      1.555
REMARK  Name = 
REMARK  8 active torsions:
REMARK  status: ('A' for Active; 'I' for Inactive)
REMARK    1  A    between atoms: C_1  and  C_2
REMARK    2  A    between atoms: C_2  and  C_3
REMARK    3  A    between atoms: C_2  and  C_4
REMARK    4  A    between atoms: C_6  and  N_7
REMARK    5  A    between atoms: C_10  and  C_11
REMARK    6  A    between atoms: C_11  and  C_12
REMARK    7  A    between atoms: C_12  and  C_13
REMARK    8  A    between atoms: N_15  and  C_16
REMARK                            x       y       z     vdW  Elec       q    Type
REMARK                         _______ _______ _______ _____ _____    ______ ____
ROOT
ATOM      1  N   UNL     1       4.529   3.388  17.590  0.00  0.00    +0.000 N 
ATOM      2  C   UNL     1       4.818   3.321  19.034  0.00  0.00    +0.000 C 
ATOM      3  C   UNL     1       4.229   2.018  19.584  0.00  0.00    +0.000 C 
ATOM      4  C   UNL     1       2.715   1.895  19.306  0.00  0.00    +0.000 C 
ATOM      5  C   UNL     1       2.464   2.110  17.802  0.00  0.00    +0.000 C 
ATOM      6  C   UNL     1       3.087   3.411  17.295  0.00  0.00    +0.000 C 
ENDROOT
BRANCH   1   9
ATOM      7  C   UNL     1       6.545   4.401  14.611  0.00  0.00    +0.000 A 
ATOM      8  C   UNL     1       5.581   3.649  15.469  0.00  0.00    +0.000 A 
ATOM      9  C   UNL     1       5.406   4.073  16.731  0.00  0.00    +0.000 A 
ATOM     10  N   UNL     1       6.140   5.207  17.166  0.00  0.00    +0.000 N 
ATOM     11  N   UNL     1       6.116   5.831  18.384  0.00  0.00    +0.000 NA
ATOM     12  C   UNL     1       6.998   6.824  18.271  0.00  0.00    +0.000 A 
ATOM     13  C   UNL     1       7.596   6.882  17.006  0.00  0.00    +0.000 A 
ATOM     14  C   UNL     1       7.027   5.854  16.291  0.00  0.00    +0.000 A 
ATOM     15  N   UNL     1       7.216   5.449  14.999  0.00  0.00    +0.000 NA
BRANCH   7  17
ATOM     16  C   UNL     1       5.308   3.606  12.595  0.00  0.00    +0.000 C 
ATOM     17  C   UNL     1       6.691   3.899  13.174  0.00  0.00    +0.000 C 
ATOM     18  C   UNL     1       7.453   4.883  12.291  0.00  0.00    +0.000 C 
ENDBRANCH   7  17
ENDBRANCH   1   9
BRANCH   4  19
ATOM     19  C   UNL     1       1.918   2.859  20.208  0.00  0.00    +0.000 C 
BRANCH  19  20
ATOM     20  C   UNL     1       1.135   3.928  19.443  0.00  0.00    +0.000 C 
BRANCH  20  21
ATOM     21  C   UNL     1       1.672   5.316  19.736  0.00  0.00    +0.000 C 
ATOM     22  O   UNL     1       1.761   5.780  20.871  0.00  0.00    +0.000 OA
ATOM     23  N   UNL     1       2.062   5.999  18.602  0.00  0.00    +0.000 N 
ATOM     24  H   UNL     1       1.958   5.560  17.696  0.00  0.00    +0.000 HD
BRANCH  23  25
ATOM     25  C   UNL     1       2.612   7.315  18.674  0.00  0.00    +0.000 C 
ATOM     26  C   UNL     1       3.380   7.911  17.529  0.00  0.00    +0.000 C 
ATOM     27  C   UNL     1       2.011   8.429  17.864  0.00  0.00    +0.000 C 
ENDBRANCH  23  25
ENDBRANCH  20  21
ENDBRANCH  19  20
ENDBRANCH   4  19
TORSDOF 6
ENDMDL
MODEL 7
REMARK VINA RESULT:      -7.5      3.892      6.680
REMARK  Name = 
REMARK  8 active torsions:
REMARK  status: ('A' for Active; 'I' for Inactive)
REMARK    1  A    between atoms: C_1  and  C_2
REMARK    2  A    between atoms: C_2  and  C_3
REMARK    3  A    between atoms: C_2  and  C_4
REMARK    4  A    between atoms: C_6  and  N_7
REMARK    5  A    between atoms: C_10  and  C_11
REMARK    6  A    between atoms: C_11  and  C_12
REMARK    7  A    between atoms: C_12  and  C_13
REMARK    8  A    between atoms: N_15  and  C_16
REMARK                            x       y       z     vdW  Elec       q    Type
REMARK                         _______ _______ _______ _____ _____    ______ ____
ROOT
ATOM      1  N   UNL     1       2.135   7.713  19.041  0.00  0.00    +0.000 N 
ATOM      2  C   UNL     1       1.639   8.441  17.859  0.00  0.00    +0.000 C 
ATOM      3  C   UNL     1       1.746   9.945  18.138  0.00  0.00    +0.000 C 
ATOM      4  C   UNL     1       0.985  10.360  19.416  0.00  0.00    +0.000 C 
ATOM      5  C   UNL     1       1.449   9.471  20.585  0.00  0.00    +0.000 C 
ATOM      6  C   UNL     1       1.344   7.982  20.253  0.00  0.00    +0.000 C 
ENDROOT
BRANCH   1   9
ATOM      7  C   UNL     1       2.868   4.058  19.294  0.00  0.00    +0.000 A 
ATOM      8  C   UNL     1       2.179   5.371  19.472  0.00  0.00    +0.000 A 
ATOM      9  C   UNL     1       2.728   6.448  18.887  0.00  0.00    +0.000 A 
ATOM     10  N   UNL     1       3.919   6.271  18.135  0.00  0.00    +0.000 N 
ATOM     11  N   UNL     1       4.643   7.200  17.439  0.00  0.00    +0.000 NA
ATOM     12  C   UNL     1       5.670   6.518  16.934  0.00  0.00    +0.000 A 
ATOM     13  C   UNL     1       5.639   5.158  17.266  0.00  0.00    +0.000 A 
ATOM     14  C   UNL     1       4.500   4.998  18.021  0.00  0.00    +0.000 A 
ATOM     15  N   UNL     1       3.956   3.884  18.598  0.00  0.00    +0.000 NA
BRANCH   7  17
ATOM     16  C   UNL     1       1.863   3.193  21.407  0.00  0.00    +0.000 C 
ATOM     17  C   UNL     1       2.193   2.856  19.955  0.00  0.00    +0.000 C 
ATOM     18  C   UNL     1       0.942   2.408  19.203  0.00  0.00    +0.000 C 
ENDBRANCH   7  17
ENDBRANCH   1   9
BRANCH   4  19
ATOM     19  C   UNL     1      -0.538  10.319  19.178  0.00  0.00    +0.000 C 
BRANCH  19  20
ATOM     20  C   UNL     1      -1.048  11.379  18.200  0.00  0.00    +0.000 C 
BRANCH  20  21
ATOM     21  C   UNL     1      -2.302  10.911  17.487  0.00  0.00    +0.000 C 
ATOM     22  O   UNL     1      -2.388   9.828  16.911  0.00  0.00    +0.000 OA
ATOM     23  N   UNL     1      -3.341  11.817  17.563  0.00  0.00    +0.000 N 
ATOM     24  H   UNL     1      -3.203  12.693  18.050  0.00  0.00    +0.000 HD
BRANCH  23  25
ATOM     25  C   UNL     1      -4.612  11.547  16.969  0.00  0.00    +0.000 C 
ATOM     26  C   UNL     1      -5.787  11.105  17.794  0.00  0.00    +0.000 C 
ATOM     27  C   UNL     1      -5.765  12.483  17.200  0.00  0.00    +0.000 C 
ENDBRANCH  23  25
ENDBRANCH  20  21
ENDBRANCH  19  20
ENDBRANCH   4  19
TORSDOF 6
ENDMDL
MODEL 8
REMARK VINA RESULT:      -7.5      1.015      3.024
REMARK  Name = 
REMARK  8 active torsions:
REMARK  status: ('A' for Active; 'I' for Inactive)
REMARK    1  A    between atoms: C_1  and  C_2
REMARK    2  A    between atoms: C_2  and  C_3
REMARK    3  A    between atoms: C_2  and  C_4
REMARK    4  A    between atoms: C_6  and  N_7
REMARK    5  A    between atoms: C_10  and  C_11
REMARK    6  A    between atoms: C_11  and  C_12
REMARK    7  A    between atoms: C_12  and  C_13
REMARK    8  A    between atoms: N_15  and  C_16
REMARK                            x       y       z     vdW  Elec       q    Type
REMARK                         _______ _______ _______ _____ _____    ______ ____
ROOT
ATOM      1  N   UNL     1       4.260   3.735  17.443  0.00  0.00    +0.000 N 
ATOM      2  C   UNL     1       4.479   2.685  18.454  0.00  0.00    +0.000 C 
ATOM      3  C   UNL     1       3.343   1.661  18.341  0.00  0.00    +0.000 C 
ATOM      4  C   UNL     1       1.951   2.310  18.496  0.00  0.00    +0.000 C 
ATOM      5  C   UNL     1       1.835   3.486  17.508  0.00  0.00    +0.000 C 
ATOM      6  C   UNL     1       2.999   4.468  17.643  0.00  0.00    +0.000 C 
ENDROOT
BRANCH   1   9
ATOM      7  C   UNL     1       7.233   5.955  17.005  0.00  0.00    +0.000 A 
ATOM      8  C   UNL     1       6.095   5.239  17.654  0.00  0.00    +0.000 A 
ATOM      9  C   UNL     1       5.358   4.416  16.890  0.00  0.00    +0.000 A 
ATOM     10  N   UNL     1       5.709   4.274  15.522  0.00  0.00    +0.000 N 
ATOM     11  N   UNL     1       5.130   3.489  14.562  0.00  0.00    +0.000 NA
ATOM     12  C   UNL     1       5.828   3.741  13.455  0.00  0.00    +0.000 A 
ATOM     13  C   UNL     1       6.863   4.663  13.659  0.00  0.00    +0.000 A 
ATOM     14  C   UNL     1       6.797   4.988  14.994  0.00  0.00    +0.000 A 
ATOM     15  N   UNL     1       7.569   5.824  15.752  0.00  0.00    +0.000 NA
BRANCH   7  17
ATOM     16  C   UNL     1       7.596   8.305  17.758  0.00  0.00    +0.000 C 
ATOM     17  C   UNL     1       8.060   6.860  17.919  0.00  0.00    +0.000 C 
ATOM     18  C   UNL     1       7.991   6.425  19.381  0.00  0.00    +0.000 C 
ENDBRANCH   7  17
ENDBRANCH   1   9
BRANCH   4  19
ATOM     19  C   UNL     1       1.700   2.711  19.964  0.00  0.00    +0.000 C 
BRANCH  19  20
ATOM     20  C   UNL     1       0.813   3.946  20.132  0.00  0.00    +0.000 C 
BRANCH  20  21
ATOM     21  C   UNL     1       1.607   5.126  20.657  0.00  0.00    +0.000 C 
ATOM     22  O   UNL     1       2.761   5.033  21.071  0.00  0.00    +0.000 OA
ATOM     23  N   UNL     1       0.910   6.316  20.608  0.00  0.00    +0.000 N 
ATOM     24  H   UNL     1      -0.040   6.323  20.258  0.00  0.00    +0.000 HD
BRANCH  23  25
ATOM     25  C   UNL     1       1.497   7.545  21.040  0.00  0.00    +0.000 C 
ATOM     26  C   UNL     1       1.253   8.834  20.309  0.00  0.00    +0.000 C 
ATOM     27  C   UNL     1       0.642   8.612  21.662  0.00  0.00    +0.000 C 
ENDBRANCH  23  25
ENDBRANCH  20  21
ENDBRANCH  19  20
ENDBRANCH   4  19
TORSDOF 6
ENDMDL
MODEL 9
REMARK VINA RESULT:      -7.4      2.127      7.806
REMARK  Name = 
REMARK  8 active torsions:
REMARK  status: ('A' for Active; 'I' for Inactive)
REMARK    1  A    between atoms: C_1  and  C_2
REMARK    2  A    between atoms: C_2  and  C_3
REMARK    3  A    between atoms: C_2  and  C_4
REMARK    4  A    between atoms: C_6  and  N_7
REMARK    5  A    between atoms: C_10  and  C_11
REMARK    6  A    between atoms: C_11  and  C_12
REMARK    7  A    between atoms: C_12  and  C_13
REMARK    8  A    between atoms: N_15  and  C_16
REMARK                            x       y       z     vdW  Elec       q    Type
REMARK                         _______ _______ _______ _____ _____    ______ ____
ROOT
ATOM      1  N   UNL     1       4.674   5.956  18.798  0.00  0.00    +0.000 N 
ATOM      2  C   UNL     1       5.802   5.153  19.303  0.00  0.00    +0.000 C 
ATOM      3  C   UNL     1       7.107   5.862  18.924  0.00  0.00    +0.000 C 
ATOM      4  C   UNL     1       7.223   6.101  17.404  0.00  0.00    +0.000 C 
ATOM      5  C   UNL     1       5.953   6.822  16.913  0.00  0.00    +0.000 C 
ATOM      6  C   UNL     1       4.678   6.091  17.332  0.00  0.00    +0.000 C 
ENDROOT
BRANCH   1   9
ATOM      7  C   UNL     1       1.532   6.996  20.533  0.00  0.00    +0.000 A 
ATOM      8  C   UNL     1       2.827   7.083  19.796  0.00  0.00    +0.000 A 
ATOM      9  C   UNL     1       3.440   5.933  19.471  0.00  0.00    +0.000 A 
ATOM     10  N   UNL     1       2.817   4.712  19.842  0.00  0.00    +0.000 N 
ATOM     11  N   UNL     1       3.231   3.429  19.606  0.00  0.00    +0.000 NA
ATOM     12  C   UNL     1       2.300   2.665  20.175  0.00  0.00    +0.000 A 
ATOM     13  C   UNL     1       1.272   3.407  20.770  0.00  0.00    +0.000 A 
ATOM     14  C   UNL     1       1.596   4.723  20.536  0.00  0.00    +0.000 A 
ATOM     15  N   UNL     1       0.947   5.880  20.869  0.00  0.00    +0.000 NA
BRANCH   7  17
ATOM     16  C   UNL     1       1.475   8.915  22.126  0.00  0.00    +0.000 C 
ATOM     17  C   UNL     1       0.858   8.330  20.857  0.00  0.00    +0.000 C 
ATOM     18  C   UNL     1       0.948   9.321  19.701  0.00  0.00    +0.000 C 
ENDBRANCH   7  17
ENDBRANCH   1   9
BRANCH   4  19
ATOM     19  C   UNL     1       7.505   4.778  16.665  0.00  0.00    +0.000 C 
BRANCH  19  20
ATOM     20  C   UNL     1       7.313   4.853  15.149  0.00  0.00    +0.000 C 
BRANCH  20  21
ATOM     21  C   UNL     1       6.236   3.893  14.683  0.00  0.00    +0.000 C 
ATOM     22  O   UNL     1       5.474   3.308  15.451  0.00  0.00    +0.000 OA
ATOM     23  N   UNL     1       6.188   3.755  13.311  0.00  0.00    +0.000 N 
ATOM     24  H   UNL     1       6.847   4.263  12.735  0.00  0.00    +0.000 HD
BRANCH  23  25
ATOM     25  C   UNL     1       5.226   2.908  12.678  0.00  0.00    +0.000 C 
ATOM     26  C   UNL     1       4.500   3.335  11.434  0.00  0.00    +0.000 C 
ATOM     27  C   UNL     1       5.544   2.258  11.361  0.00  0.00    +0.000 C 
ENDBRANCH  23  25
ENDBRANCH  20  21
ENDBRANCH  19  20
ENDBRANCH   4  19
TORSDOF 6
ENDMDL
