MODEL 1
REMARK VINA RESULT:      -7.6      0.000      0.000
REMARK  Name = 
REMARK  9 active torsions:
REMARK  status: ('A' for Active; 'I' for Inactive)
REMARK    1  A    between atoms: C_1  and  C_2
REMARK    2  A    between atoms: C_2  and  C_3
REMARK    3  A    between atoms: C_3  and  O_4
REMARK    4  A    between atoms: O_4  and  C_5
REMARK    5  A    between atoms: C_5  and  C_7
REMARK    6  A    between atoms: C_13  and  O_14
REMARK    7  A    between atoms: O_14  and  C_15
REMARK    8  A    between atoms: C_15  and  C_17
REMARK    9  A    between atoms: N_23  and  C_24
REMARK                            x       y       z     vdW  Elec       q    Type
REMARK                         _______ _______ _______ _____ _____    ______ ____
ROOT
ATOM      1  C   UNL     1       5.882   6.131  16.479  0.00  0.00    +0.000 C 
ATOM      2  C   UNL     1       4.841   6.170  17.616  0.00  0.00    +0.000 C 
ATOM      3  C   UNL     1       5.235   5.401  18.915  0.00  0.00    +0.000 C 
ATOM      4  C   UNL     1       4.513   4.057  18.846  0.00  0.00    +0.000 C 
ATOM      5  C   UNL     1       3.987   4.082  17.408  0.00  0.00    +0.000 C 
ATOM      6  C   UNL     1       5.231   3.698  16.375  0.00  0.00    +0.000 C 
ATOM      7  C   UNL     1       5.788   4.924  15.542  0.00  0.00    +0.000 C 
ATOM      8  N   UNL     1       3.558   5.520  17.276  0.00  0.00    +0.000 NA
ATOM      9  C   UNL     1       2.571   6.026  18.309  0.00  0.00    +0.000 C 
ENDROOT
BRANCH   1  10
ATOM     10  C   UNL     1       7.241   6.246  17.159  0.00  0.00    +0.000 C 
ATOM     11  O   UNL     1       7.911   5.277  17.491  0.00  0.00    +0.000 OA
BRANCH  10  12
ATOM     12  O   UNL     1       7.688   7.523  17.109  0.00  0.00    +0.000 OA
BRANCH  12  13
ATOM     13  C   UNL     1       8.238   8.123  18.279  0.00  0.00    +0.000 C 
BRANCH  13  15
ATOM     14  C   UNL     1       9.304  10.142  19.228  0.00  0.00    +0.000 C 
ATOM     15  C   UNL     1       8.462   9.606  18.084  0.00  0.00    +0.000 C 
ENDBRANCH  13  15
ENDBRANCH  12  13
ENDBRANCH  10  12
ENDBRANCH   1  10
BRANCH   7  16
ATOM     16  O   UNL     1       7.057   5.069  14.689  0.00  0.00    +0.000 OA
BRANCH  16  17
ATOM     17  C   UNL     1       7.291   5.013  13.350  0.00  0.00    +0.000 C 
ATOM     18  O   UNL     1       7.974   5.837  12.756  0.00  0.00    +0.000 OA
BRANCH  17  19
ATOM     19  C   UNL     1       6.595   3.825  12.584  0.00  0.00    +0.000 A 
ATOM     20  C   UNL     1       7.428   2.872  11.988  0.00  0.00    +0.000 A 
ATOM     21  C   UNL     1       6.973   1.809  11.194  0.00  0.00    +0.000 A 
ATOM     22  C   UNL     1       5.619   1.639  10.944  0.00  0.00    +0.000 A 
ATOM     23  C   UNL     1       4.756   2.572  11.527  0.00  0.00    +0.000 A 
ATOM     24  C   UNL     1       5.221   3.646  12.342  0.00  0.00    +0.000 A 
ENDBRANCH  17  19
ENDBRANCH  16  17
ENDBRANCH   7  16
TORSDOF 7
ENDMDL
MODEL 2
REMARK VINA RESULT:      -7.5      1.912      2.813
REMARK  Name = 
REMARK  9 active torsions:
REMARK  status: ('A' for Active; 'I' for Inactive)
REMARK    1  A    between atoms: C_1  and  C_2
REMARK    2  A    between atoms: C_2  and  C_3
REMARK    3  A    between atoms: C_3  and  O_4
REMARK    4  A    between atoms: O_4  and  C_5
REMARK    5  A    between atoms: C_5  and  C_7
REMARK    6  A    between atoms: C_13  and  O_14
REMARK    7  A    between atoms: O_14  and  C_15
REMARK    8  A    between atoms: C_15  and  C_17
REMARK    9  A    between atoms: N_23  and  C_24
REMARK                            x       y       z     vdW  Elec       q    Type
REMARK                         _______ _______ _______ _____ _____    ______ ____
ROOT
ATOM      1  C   UNL     1       4.119   5.095  18.671  0.00  0.00    +0.000 C 
ATOM      2  C   UNL     1       3.087   4.632  19.720  0.00  0.00    +0.000 C 
ATOM      3  C   UNL     1       3.318   3.206  20.306  0.00  0.00    +0.000 C 
ATOM      4  C   UNL     1       2.367   2.279  19.552  0.00  0.00    +0.000 C 
ATOM      5  C   UNL     1       1.873   3.211  18.441  0.00  0.00    +0.000 C 
ATOM      6  C   UNL     1       3.041   3.305  17.262  0.00  0.00    +0.000 C 
ATOM      7  C   UNL     1       3.821   4.683  17.227  0.00  0.00    +0.000 C 
ATOM      8  N   UNL     1       1.713   4.506  19.192  0.00  0.00    +0.000 NA
ATOM      9  C   UNL     1       0.820   4.470  20.416  0.00  0.00    +0.000 C 
ENDROOT
BRANCH   1  10
ATOM     10  C   UNL     1       5.467   4.585  19.165  0.00  0.00    +0.000 C 
ATOM     11  O   UNL     1       5.885   3.458  18.935  0.00  0.00    +0.000 OA
BRANCH  10  12
ATOM     12  O   UNL     1       6.208   5.606  19.655  0.00  0.00    +0.000 OA
BRANCH  12  13
ATOM     13  C   UNL     1       7.535   5.809  19.174  0.00  0.00    +0.000 C 
BRANCH  13  15
ATOM     14  C   UNL     1       8.311   8.013  18.366  0.00  0.00    +0.000 C 
ATOM     15  C   UNL     1       7.553   6.752  17.992  0.00  0.00    +0.000 C 
ENDBRANCH  13  15
ENDBRANCH  12  13
ENDBRANCH  10  12
ENDBRANCH   1  10
BRANCH   7  16
ATOM     16  O   UNL     1       5.107   5.094  16.495  0.00  0.00    +0.000 OA
BRANCH  16  17
ATOM     17  C   UNL     1       5.344   5.756  15.329  0.00  0.00    +0.000 C 
ATOM     18  O   UNL     1       5.150   6.956  15.192  0.00  0.00    +0.000 OA
BRANCH  17  19
ATOM     19  C   UNL     1       5.861   4.869  14.134  0.00  0.00    +0.000 A 
ATOM     20  C   UNL     1       7.117   5.180  13.603  0.00  0.00    +0.000 A 
ATOM     21  C   UNL     1       7.681   4.552  12.482  0.00  0.00    +0.000 A 
ATOM     22  C   UNL     1       6.994   3.552  11.810  0.00  0.00    +0.000 A 
ATOM     23  C   UNL     1       5.735   3.213  12.314  0.00  0.00    +0.000 A 
ATOM     24  C   UNL     1       5.169   3.846  13.461  0.00  0.00    +0.000 A 
ENDBRANCH  17  19
ENDBRANCH  16  17
ENDBRANCH   7  16
TORSDOF 7
ENDMDL
MODEL 3
REMARK VINA RESULT:      -7.5      0.628      1.150
REMARK  Name = 
REMARK  9 active torsions:
REMARK  status: ('A' for Active; 'I' for Inactive)
REMARK    1  A    between atoms: C_1  and  C_2
REMARK    2  A    between atoms: C_2  and  C_3
REMARK    3  A    between atoms: C_3  and  O_4
REMARK    4  A    between atoms: O_4  and  C_5
REMARK    5  A    between atoms: C_5  and  C_7
REMARK    6  A    between atoms: C_13  and  O_14
REMARK    7  A    between atoms: O_14  and  C_15
REMARK    8  A    between atoms: C_15  and  C_17
REMARK    9  A    between atoms: N_23  and  C_24
REMARK                            x       y       z     vdW  Elec       q    Type
REMARK                         _______ _______ _______ _____ _____    ______ ____
ROOT
ATOM      1  C   UNL     1       5.430   6.328  16.791  0.00  0.00    +0.000 C 
ATOM      2  C   UNL     1       4.711   6.028  18.121  0.00  0.00    +0.000 C 
ATOM      3  C   UNL     1       5.489   5.111  19.114  0.00  0.00    +0.000 C 
ATOM      4  C   UNL     1       4.901   3.712  18.947  0.00  0.00    +0.000 C 
ATOM      5  C   UNL     1       4.028   3.909  17.704  0.00  0.00    +0.000 C 
ATOM      6  C   UNL     1       5.001   3.882  16.356  0.00  0.00    +0.000 C 
ATOM      7  C   UNL     1       5.215   5.298  15.678  0.00  0.00    +0.000 C 
ATOM      8  N   UNL     1       3.450   5.275  17.964  0.00  0.00    +0.000 NA
ATOM      9  C   UNL     1       2.713   5.457  19.276  0.00  0.00    +0.000 C 
ENDROOT
BRANCH   1  10
ATOM     10  C   UNL     1       6.900   6.511  17.148  0.00  0.00    +0.000 C 
ATOM     11  O   UNL     1       7.714   5.597  17.140  0.00  0.00    +0.000 OA
BRANCH  10  12
ATOM     12  O   UNL     1       7.208   7.828  17.222  0.00  0.00    +0.000 OA
BRANCH  12  13
ATOM     13  C   UNL     1       8.206   8.268  18.140  0.00  0.00    +0.000 C 
BRANCH  13  15
ATOM     14  C   UNL     1       9.298  10.215  19.202  0.00  0.00    +0.000 C 
ATOM     15  C   UNL     1       8.411   9.764  18.055  0.00  0.00    +0.000 C 
ENDBRANCH  13  15
ENDBRANCH  12  13
ENDBRANCH  10  12
ENDBRANCH   1  10
BRANCH   7  16
ATOM     16  O   UNL     1       6.208   5.760  14.603  0.00  0.00    +0.000 OA
BRANCH  16  17
ATOM     17  C   UNL     1       7.111   5.103  13.824  0.00  0.00    +0.000 C 
ATOM     18  O   UNL     1       8.315   5.316  13.873  0.00  0.00    +0.000 OA
BRANCH  17  19
ATOM     19  C   UNL     1       6.506   4.056  12.814  0.00  0.00    +0.000 A 
ATOM     20  C   UNL     1       5.122   4.084  12.616  0.00  0.00    +0.000 A 
ATOM     21  C   UNL     1       4.416   3.165  11.825  0.00  0.00    +0.000 A 
ATOM     22  C   UNL     1       5.079   2.135  11.174  0.00  0.00    +0.000 A 
ATOM     23  C   UNL     1       6.464   2.077  11.348  0.00  0.00    +0.000 A 
ATOM     24  C   UNL     1       7.181   3.019  12.144  0.00  0.00    +0.000 A 
ENDBRANCH  17  19
ENDBRANCH  16  17
ENDBRANCH   7  16
TORSDOF 7
ENDMDL
MODEL 4
REMARK VINA RESULT:      -7.5      0.971      1.474
REMARK  Name = 
REMARK  9 active torsions:
REMARK  status: ('A' for Active; 'I' for Inactive)
REMARK    1  A    between atoms: C_1  and  C_2
REMARK    2  A    between atoms: C_2  and  C_3
REMARK    3  A    between atoms: C_3  and  O_4
REMARK    4  A    between atoms: O_4  and  C_5
REMARK    5  A    between atoms: C_5  and  C_7
REMARK    6  A    between atoms: C_13  and  O_14
REMARK    7  A    between atoms: O_14  and  C_15
REMARK    8  A    between atoms: C_15  and  C_17
REMARK    9  A    between atoms: N_23  and  C_24
REMARK                            x       y       z     vdW  Elec       q    Type
REMARK                         _______ _______ _______ _____ _____    ______ ____
ROOT
ATOM      1  C   UNL     1       5.604   5.732  17.088  0.00  0.00    +0.000 C 
ATOM      2  C   UNL     1       4.607   6.271  18.133  0.00  0.00    +0.000 C 
ATOM      3  C   UNL     1       4.540   5.474  19.472  0.00  0.00    +0.000 C 
ATOM      4  C   UNL     1       3.315   4.569  19.364  0.00  0.00    +0.000 C 
ATOM      5  C   UNL     1       2.951   4.746  17.887  0.00  0.00    +0.000 C 
ATOM      6  C   UNL     1       3.974   3.812  16.968  0.00  0.00    +0.000 C 
ATOM      7  C   UNL     1       5.063   4.637  16.165  0.00  0.00    +0.000 C 
ATOM      8  N   UNL     1       3.196   6.219  17.697  0.00  0.00    +0.000 NA
ATOM      9  C   UNL     1       2.457   7.152  18.636  0.00  0.00    +0.000 C 
ENDROOT
BRANCH   1  10
ATOM     10  C   UNL     1       6.829   5.285  17.877  0.00  0.00    +0.000 C 
ATOM     11  O   UNL     1       6.889   4.224  18.483  0.00  0.00    +0.000 OA
BRANCH  10  12
ATOM     12  O   UNL     1       7.884   6.089  17.605  0.00  0.00    +0.000 OA
BRANCH  12  13
ATOM     13  C   UNL     1       8.130   7.230  18.423  0.00  0.00    +0.000 C 
BRANCH  13  15
ATOM     14  C   UNL     1       8.635   9.649  18.325  0.00  0.00    +0.000 C 
ATOM     15  C   UNL     1       7.868   8.515  17.669  0.00  0.00    +0.000 C 
ENDBRANCH  13  15
ENDBRANCH  12  13
ENDBRANCH  10  12
ENDBRANCH   1  10
BRANCH   7  16
ATOM     16  O   UNL     1       6.324   4.179  15.419  0.00  0.00    +0.000 OA
BRANCH  16  17
ATOM     17  C   UNL     1       6.852   4.489  14.203  0.00  0.00    +0.000 C 
ATOM     18  O   UNL     1       7.722   5.336  14.049  0.00  0.00    +0.000 OA
BRANCH  17  19
ATOM     19  C   UNL     1       6.247   3.706  12.977  0.00  0.00    +0.000 A 
ATOM     20  C   UNL     1       4.915   3.974  12.642  0.00  0.00    +0.000 A 
ATOM     21  C   UNL     1       4.199   3.299  11.642  0.00  0.00    +0.000 A 
ATOM     22  C   UNL     1       4.795   2.286  10.904  0.00  0.00    +0.000 A 
ATOM     23  C   UNL     1       6.127   1.993  11.211  0.00  0.00    +0.000 A 
ATOM     24  C   UNL     1       6.856   2.688  12.221  0.00  0.00    +0.000 A 
ENDBRANCH  17  19
ENDBRANCH  16  17
ENDBRANCH   7  16
TORSDOF 7
ENDMDL
MODEL 5
REMARK VINA RESULT:      -7.4      1.975      3.025
REMARK  Name = 
REMARK  9 active torsions:
REMARK  status: ('A' for Active; 'I' for Inactive)
REMARK    1  A    between atoms: C_1  and  C_2
REMARK    2  A    between atoms: C_2  and  C_3
REMARK    3  A    between atoms: C_3  and  O_4
REMARK    4  A    between atoms: O_4  and  C_5
REMARK    5  A    between atoms: C_5  and  C_7
REMARK    6  A    between atoms: C_13  and  O_14
REMARK    7  A    between atoms: O_14  and  C_15
REMARK    8  A    between atoms: C_15  and  C_17
REMARK    9  A    between atoms: N_23  and  C_24
REMARK                            x       y       z     vdW  Elec       q    Type
REMARK                         _______ _______ _______ _____ _____    ______ ____
ROOT
ATOM      1  C   UNL     1       3.997   4.952  18.582  0.00  0.00    +0.000 C 
ATOM      2  C   UNL     1       2.944   4.597  19.651  0.00  0.00    +0.000 C 
ATOM      3  C   UNL     1       3.171   3.246  20.396  0.00  0.00    +0.000 C 
ATOM      4  C   UNL     1       2.245   2.233  19.727  0.00  0.00    +0.000 C 
ATOM      5  C   UNL     1       1.771   3.032  18.509  0.00  0.00    +0.000 C 
ATOM      6  C   UNL     1       2.966   3.007  17.353  0.00  0.00    +0.000 C 
ATOM      7  C   UNL     1       3.737   4.381  17.185  0.00  0.00    +0.000 C 
ATOM      8  N   UNL     1       1.584   4.400  19.108  0.00  0.00    +0.000 NA
ATOM      9  C   UNL     1       0.662   4.490  20.308  0.00  0.00    +0.000 C 
ENDROOT
BRANCH   1  10
ATOM     10  C   UNL     1       5.337   4.512  19.160  0.00  0.00    +0.000 C 
ATOM     11  O   UNL     1       5.798   3.388  19.009  0.00  0.00    +0.000 OA
BRANCH  10  12
ATOM     12  O   UNL     1       6.025   5.581  19.625  0.00  0.00    +0.000 OA
BRANCH  12  13
ATOM     13  C   UNL     1       7.419   5.697  19.347  0.00  0.00    +0.000 C 
BRANCH  13  15
ATOM     14  C   UNL     1       7.786   7.662  17.893  0.00  0.00    +0.000 C 
ATOM     15  C   UNL     1       7.660   6.149  17.925  0.00  0.00    +0.000 C 
ENDBRANCH  13  15
ENDBRANCH  12  13
ENDBRANCH  10  12
ENDBRANCH   1  10
BRANCH   7  16
ATOM     16  O   UNL     1       5.037   4.721  16.442  0.00  0.00    +0.000 OA
BRANCH  16  17
ATOM     17  C   UNL     1       5.334   5.585  15.433  0.00  0.00    +0.000 C 
ATOM     18  O   UNL     1       5.136   6.791  15.506  0.00  0.00    +0.000 OA
BRANCH  17  19
ATOM     19  C   UNL     1       5.928   4.932  14.128  0.00  0.00    +0.000 A 
ATOM     20  C   UNL     1       5.151   3.961  13.488  0.00  0.00    +0.000 A 
ATOM     21  C   UNL     1       5.570   3.219  12.374  0.00  0.00    +0.000 A 
ATOM     22  C   UNL     1       6.830   3.412  11.827  0.00  0.00    +0.000 A 
ATOM     23  C   UNL     1       7.634   4.378  12.440  0.00  0.00    +0.000 A 
ATOM     24  C   UNL     1       7.201   5.138  13.567  0.00  0.00    +0.000 A 
ENDBRANCH  17  19
ENDBRANCH  16  17
ENDBRANCH   7  16
TORSDOF 7
ENDMDL
MODEL 6
REMARK VINA RESULT:      -7.4      3.489      7.950
REMARK  Name = 
REMARK  9 active torsions:
REMARK  status: ('A' for Active; 'I' for Inactive)
REMARK    1  A    between atoms: C_1  and  C_2
REMARK    2  A    between atoms: C_2  and  C_3
REMARK    3  A    between atoms: C_3  and  O_4
REMARK    4  A    between atoms: O_4  and  C_5
REMARK    5  A    between atoms: C_5  and  C_7
REMARK    6  A    between atoms: C_13  and  O_14
REMARK    7  A    between atoms: O_14  and  C_15
REMARK    8  A    between atoms: C_15  and  C_17
REMARK    9  A    between atoms: N_23  and  C_24
REMARK                            x       y       z     vdW  Elec       q    Type
REMARK                         _______ _______ _______ _____ _____    ______ ____
ROOT
ATOM      1  C   UNL     1       3.815   5.291  17.398  0.00  0.00    +0.000 C 
ATOM      2  C   UNL     1       4.922   4.412  16.781  0.00  0.00    +0.000 C 
ATOM      3  C   UNL     1       6.148   4.130  17.702  0.00  0.00    +0.000 C 
ATOM      4  C   UNL     1       7.239   5.105  17.265  0.00  0.00    +0.000 C 
ATOM      5  C   UNL     1       6.452   6.016  16.318  0.00  0.00    +0.000 C 
ATOM      6  C   UNL     1       5.568   7.094  17.222  0.00  0.00    +0.000 C 
ATOM      7  C   UNL     1       4.011   6.802  17.245  0.00  0.00    +0.000 C 
ATOM      8  N   UNL     1       5.580   5.017  15.605  0.00  0.00    +0.000 NA
ATOM      9  C   UNL     1       6.293   3.870  14.916  0.00  0.00    +0.000 C 
ENDROOT
BRANCH   1  10
ATOM     10  C   UNL     1       3.706   4.855  18.854  0.00  0.00    +0.000 C 
ATOM     11  O   UNL     1       4.126   5.523  19.790  0.00  0.00    +0.000 OA
BRANCH  10  12
ATOM     12  O   UNL     1       2.881   3.787  18.967  0.00  0.00    +0.000 OA
BRANCH  12  13
ATOM     13  C   UNL     1       1.470   3.988  19.006  0.00  0.00    +0.000 C 
BRANCH  13  15
ATOM     14  C   UNL     1       1.420   2.952  21.250  0.00  0.00    +0.000 C 
ATOM     15  C   UNL     1       0.976   4.148  20.426  0.00  0.00    +0.000 C 
ENDBRANCH  13  15
ENDBRANCH  12  13
ENDBRANCH  10  12
ENDBRANCH   1  10
BRANCH   7  16
ATOM     16  O   UNL     1       2.892   7.372  18.129  0.00  0.00    +0.000 OA
BRANCH  16  17
ATOM     17  C   UNL     1       2.225   8.558  18.138  0.00  0.00    +0.000 C 
ATOM     18  O   UNL     1       2.264   9.353  17.208  0.00  0.00    +0.000 OA
BRANCH  17  19
ATOM     19  C   UNL     1       1.412   8.873  19.450  0.00  0.00    +0.000 A 
ATOM     20  C   UNL     1       1.589   8.008  20.535  0.00  0.00    +0.000 A 
ATOM     21  C   UNL     1       0.874   8.092  21.739  0.00  0.00    +0.000 A 
ATOM     22  C   UNL     1      -0.088   9.074  21.926  0.00  0.00    +0.000 A 
ATOM     23  C   UNL     1      -0.289   9.959  20.862  0.00  0.00    +0.000 A 
ATOM     24  C   UNL     1       0.447   9.877  19.643  0.00  0.00    +0.000 A 
ENDBRANCH  17  19
ENDBRANCH  16  17
ENDBRANCH   7  16
TORSDOF 7
ENDMDL
MODEL 7
REMARK VINA RESULT:      -7.3      3.184      7.633
REMARK  Name = 
REMARK  9 active torsions:
REMARK  status: ('A' for Active; 'I' for Inactive)
REMARK    1  A    between atoms: C_1  and  C_2
REMARK    2  A    between atoms: C_2  and  C_3
REMARK    3  A    between atoms: C_3  and  O_4
REMARK    4  A    between atoms: O_4  and  C_5
REMARK    5  A    between atoms: C_5  and  C_7
REMARK    6  A    between atoms: C_13  and  O_14
REMARK    7  A    between atoms: O_14  and  C_15
REMARK    8  A    between atoms: C_15  and  C_17
REMARK    9  A    between atoms: N_23  and  C_24
REMARK                            x       y       z     vdW  Elec       q    Type
REMARK                         _______ _______ _______ _____ _____    ______ ____
ROOT
ATOM      1  C   UNL     1       4.555   4.446  17.888  0.00  0.00    +0.000 C 
ATOM      2  C   UNL     1       5.387   4.107  16.634  0.00  0.00    +0.000 C 
ATOM      3  C   UNL     1       6.917   4.384  16.747  0.00  0.00    +0.000 C 
ATOM      4  C   UNL     1       7.159   5.721  16.052  0.00  0.00    +0.000 C 
ATOM      5  C   UNL     1       5.720   6.200  15.835  0.00  0.00    +0.000 C 
ATOM      6  C   UNL     1       5.139   6.818  17.265  0.00  0.00    +0.000 C 
ATOM      7  C   UNL     1       4.073   5.895  17.987  0.00  0.00    +0.000 C 
ATOM      8  N   UNL     1       5.037   4.916  15.447  0.00  0.00    +0.000 NA
ATOM      9  C   UNL     1       5.628   4.167  14.269  0.00  0.00    +0.000 C 
ENDROOT
BRANCH   1  10
ATOM     10  C   UNL     1       5.412   4.026  19.076  0.00  0.00    +0.000 C 
ATOM     11  O   UNL     1       6.342   4.696  19.505  0.00  0.00    +0.000 OA
BRANCH  10  12
ATOM     12  O   UNL     1       4.848   2.974  19.716  0.00  0.00    +0.000 OA
BRANCH  12  13
ATOM     13  C   UNL     1       3.773   2.270  19.101  0.00  0.00    +0.000 C 
BRANCH  13  15
ATOM     14  C   UNL     1       1.311   2.472  18.992  0.00  0.00    +0.000 C 
ATOM     15  C   UNL     1       2.507   2.373  19.922  0.00  0.00    +0.000 C 
ENDBRANCH  13  15
ENDBRANCH  12  13
ENDBRANCH  10  12
ENDBRANCH   1  10
BRANCH   7  16
ATOM     16  O   UNL     1       3.488   5.953  19.405  0.00  0.00    +0.000 OA
BRANCH  16  17
ATOM     17  C   UNL     1       2.294   6.374  19.904  0.00  0.00    +0.000 C 
ATOM     18  O   UNL     1       1.557   5.658  20.569  0.00  0.00    +0.000 OA
BRANCH  17  19
ATOM     19  C   UNL     1       1.889   7.854  19.545  0.00  0.00    +0.000 A 
ATOM     20  C   UNL     1       1.260   8.605  20.544  0.00  0.00    +0.000 A 
ATOM     21  C   UNL     1       0.754   9.901  20.360  0.00  0.00    +0.000 A 
ATOM     22  C   UNL     1       0.849  10.531  19.128  0.00  0.00    +0.000 A 
ATOM     23  C   UNL     1       1.474   9.810  18.107  0.00  0.00    +0.000 A 
ATOM     24  C   UNL     1       1.997   8.497  18.299  0.00  0.00    +0.000 A 
ENDBRANCH  17  19
ENDBRANCH  16  17
ENDBRANCH   7  16
TORSDOF 7
ENDMDL
MODEL 8
REMARK VINA RESULT:      -7.3      2.597      3.728
REMARK  Name = 
REMARK  9 active torsions:
REMARK  status: ('A' for Active; 'I' for Inactive)
REMARK    1  A    between atoms: C_1  and  C_2
REMARK    2  A    between atoms: C_2  and  C_3
REMARK    3  A    between atoms: C_3  and  O_4
REMARK    4  A    between atoms: O_4  and  C_5
REMARK    5  A    between atoms: C_5  and  C_7
REMARK    6  A    between atoms: C_13  and  O_14
REMARK    7  A    between atoms: O_14  and  C_15
REMARK    8  A    between atoms: C_15  and  C_17
REMARK    9  A    between atoms: N_23  and  C_24
REMARK                            x       y       z     vdW  Elec       q    Type
REMARK                         _______ _______ _______ _____ _____    ______ ____
ROOT
ATOM      1  C   UNL     1       3.236   4.976  17.739  0.00  0.00    +0.000 C 
ATOM      2  C   UNL     1       2.200   4.193  18.570  0.00  0.00    +0.000 C 
ATOM      3  C   UNL     1       2.697   3.684  19.957  0.00  0.00    +0.000 C 
ATOM      4  C   UNL     1       3.056   2.212  19.764  0.00  0.00    +0.000 C 
ATOM      5  C   UNL     1       2.974   2.090  18.240  0.00  0.00    +0.000 C 
ATOM      6  C   UNL     1       4.359   2.726  17.575  0.00  0.00    +0.000 C 
ATOM      7  C   UNL     1       4.156   4.124  16.860  0.00  0.00    +0.000 C 
ATOM      8  N   UNL     1       1.760   2.930  17.942  0.00  0.00    +0.000 NA
ATOM      9  C   UNL     1       0.484   2.551  18.666  0.00  0.00    +0.000 C 
ENDROOT
BRANCH   1  10
ATOM     10  C   UNL     1       4.003   5.835  18.738  0.00  0.00    +0.000 C 
ATOM     11  O   UNL     1       5.149   5.594  19.091  0.00  0.00    +0.000 OA
BRANCH  10  12
ATOM     12  O   UNL     1       3.344   6.996  18.966  0.00  0.00    +0.000 OA
BRANCH  12  13
ATOM     13  C   UNL     1       2.982   7.828  17.867  0.00  0.00    +0.000 C 
BRANCH  13  15
ATOM     14  C   UNL     1       1.939  10.070  17.882  0.00  0.00    +0.000 C 
ATOM     15  C   UNL     1       1.709   8.594  18.153  0.00  0.00    +0.000 C 
ENDBRANCH  13  15
ENDBRANCH  12  13
ENDBRANCH  10  12
ENDBRANCH   1  10
BRANCH   7  16
ATOM     16  O   UNL     1       5.177   5.154  16.354  0.00  0.00    +0.000 OA
BRANCH  16  17
ATOM     17  C   UNL     1       6.465   5.057  15.928  0.00  0.00    +0.000 C 
ATOM     18  O   UNL     1       7.427   5.207  16.670  0.00  0.00    +0.000 OA
BRANCH  17  19
ATOM     19  C   UNL     1       6.656   4.768  14.391  0.00  0.00    +0.000 A 
ATOM     20  C   UNL     1       5.814   3.814  13.810  0.00  0.00    +0.000 A 
ATOM     21  C   UNL     1       5.913   3.374  12.482  0.00  0.00    +0.000 A 
ATOM     22  C   UNL     1       6.892   3.878  11.639  0.00  0.00    +0.000 A 
ATOM     23  C   UNL     1       7.751   4.837  12.185  0.00  0.00    +0.000 A 
ATOM     24  C   UNL     1       7.641   5.290  13.534  0.00  0.00    +0.000 A 
ENDBRANCH  17  19
ENDBRANCH  16  17
ENDBRANCH   7  16
TORSDOF 7
ENDMDL
MODEL 9
REMARK VINA RESULT:      -7.3      2.723      6.859
REMARK  Name = 
REMARK  9 active torsions:
REMARK  status: ('A' for Active; 'I' for Inactive)
REMARK    1  A    between atoms: C_1  and  C_2
REMARK    2  A    between atoms: C_2  and  C_3
REMARK    3  A    between atoms: C_3  and  O_4
REMARK    4  A    between atoms: O_4  and  C_5
REMARK    5  A    between atoms: C_5  and  C_7
REMARK    6  A    between atoms: C_13  and  O_14
REMARK    7  A    between atoms: O_14  and  C_15
REMARK    8  A    between atoms: C_15  and  C_17
REMARK    9  A    between atoms: N_23  and  C_24
REMARK                            x       y       z     vdW  Elec       q    Type
REMARK                         _______ _______ _______ _____ _____    ______ ____
ROOT
ATOM      1  C   UNL     1       5.053   5.491  16.350  0.00  0.00    +0.000 C 
ATOM      2  C   UNL     1       6.454   6.097  16.570  0.00  0.00    +0.000 C 
ATOM      3  C   UNL     1       7.572   5.084  16.963  0.00  0.00    +0.000 C 
ATOM      4  C   UNL     1       7.729   5.195  18.478  0.00  0.00    +0.000 C 
ATOM      5  C   UNL     1       6.520   6.065  18.833  0.00  0.00    +0.000 C 
ATOM      6  C   UNL     1       5.157   5.113  18.840  0.00  0.00    +0.000 C 
ATOM      7  C   UNL     1       4.191   5.351  17.607  0.00  0.00    +0.000 C 
ATOM      8  N   UNL     1       6.522   7.052  17.696  0.00  0.00    +0.000 NA
ATOM      9  C   UNL     1       7.806   7.828  17.480  0.00  0.00    +0.000 C 
ENDROOT
BRANCH   1  10
ATOM     10  C   UNL     1       5.286   4.161  15.643  0.00  0.00    +0.000 C 
ATOM     11  O   UNL     1       5.180   3.076  16.199  0.00  0.00    +0.000 OA
BRANCH  10  12
ATOM     12  O   UNL     1       5.372   4.347  14.304  0.00  0.00    +0.000 OA
BRANCH  12  13
ATOM     13  C   UNL     1       6.472   3.793  13.586  0.00  0.00    +0.000 C 
BRANCH  13  15
ATOM     14  C   UNL     1       4.650   3.334  11.978  0.00  0.00    +0.000 C 
ATOM     15  C   UNL     1       6.136   3.609  12.123  0.00  0.00    +0.000 C 
ENDBRANCH  13  15
ENDBRANCH  12  13
ENDBRANCH  10  12
ENDBRANCH   1  10
BRANCH   7  16
ATOM     16  O   UNL     1       2.992   4.539  17.097  0.00  0.00    +0.000 OA
BRANCH  16  17
ATOM     17  C   UNL     1       1.784   4.221  17.638  0.00  0.00    +0.000 C 
ATOM     18  O   UNL     1       0.726   4.362  17.038  0.00  0.00    +0.000 OA
BRANCH  17  19
ATOM     19  C   UNL     1       1.819   3.683  19.118  0.00  0.00    +0.000 A 
ATOM     20  C   UNL     1       1.878   4.633  20.143  0.00  0.00    +0.000 A 
ATOM     21  C   UNL     1       2.009   4.322  21.505  0.00  0.00    +0.000 A 
ATOM     22  C   UNL     1       2.094   3.003  21.926  0.00  0.00    +0.000 A 
ATOM     23  C   UNL     1       2.036   2.026  20.928  0.00  0.00    +0.000 A 
ATOM     24  C   UNL     1       1.893   2.345  19.545  0.00  0.00    +0.000 A 
ENDBRANCH  17  19
ENDBRANCH  16  17
ENDBRANCH   7  16
TORSDOF 7
ENDMDL
