MODEL 1
REMARK VINA RESULT:      -7.7      0.000      0.000
REMARK  Name = 
REMARK  3 active torsions:
REMARK  status: ('A' for Active; 'I' for Inactive)
REMARK    1  A    between atoms: C_1  and  N_2
REMARK    2  A    between atoms: C_3  and  C_5
REMARK    3  A    between atoms: N_7  and  C_8
REMARK                            x       y       z     vdW  Elec       q    Type
REMARK                         _______ _______ _______ _____ _____    ______ ____
ROOT
ATOM      1  C   UNL     1       4.062   4.719  16.694  0.00  0.00    +0.000 A 
ATOM      2  C   UNL     1       3.789   5.853  17.463  0.00  0.00    +0.000 A 
ATOM      3  C   UNL     1       3.044   5.771  18.641  0.00  0.00    +0.000 A 
ATOM      4  C   UNL     1       2.639   4.514  19.095  0.00  0.00    +0.000 A 
ATOM      5  C   UNL     1       2.801   3.389  18.275  0.00  0.00    +0.000 A 
ATOM      6  C   UNL     1       3.487   3.499  17.055  0.00  0.00    +0.000 A 
ATOM      7  C   UNL     1       2.186   2.101  18.736  0.00  0.00    +0.000 C 
ATOM      8  C   UNL     1       2.470   1.914  20.214  0.00  0.00    +0.000 C 
ATOM      9  C   UNL     1       2.080   3.126  21.038  0.00  0.00    +0.000 C 
ATOM     10  O   UNL     1       1.848   3.002  22.242  0.00  0.00    +0.000 OA
ATOM     11  N   UNL     1       2.105   4.362  20.401  0.00  0.00    +0.000 N 
ATOM     12  C   UNL     1       1.881   5.554  21.212  0.00  0.00    +0.000 C 
ATOM     13  C   UNL     1       1.606   6.797  20.378  0.00  0.00    +0.000 C 
ATOM     14  C   UNL     1       2.771   7.022  19.429  0.00  0.00    +0.000 C 
ENDROOT
BRANCH   1  17
ATOM     15  C   UNL     1       6.295   4.588  15.652  0.00  0.00    +0.000 C 
ATOM     16  O   UNL     1       6.986   4.339  16.638  0.00  0.00    +0.000 OA
ATOM     17  N   UNL     1       4.926   4.777  15.583  0.00  0.00    +0.000 N 
ATOM     18  H   UNL     1       4.532   4.797  14.646  0.00  0.00    +0.000 HD
BRANCH  15  21
ATOM     19  C   UNL     1       6.995   3.650  12.042  0.00  0.00    +0.000 C 
ATOM     20  N   UNL     1       6.492   3.765  13.379  0.00  0.00    +0.000 N 
ATOM     21  C   UNL     1       7.012   4.645  14.299  0.00  0.00    +0.000 C 
ATOM     22  O   UNL     1       7.941   5.422  14.127  0.00  0.00    +0.000 OA
ATOM     23  H   UNL     1       5.751   3.149  13.712  0.00  0.00    +0.000 HD
ENDBRANCH  15  21
ENDBRANCH   1  17
TORSDOF 2
ENDMDL
MODEL 2
REMARK VINA RESULT:      -7.6      3.190      7.435
REMARK  Name = 
REMARK  3 active torsions:
REMARK  status: ('A' for Active; 'I' for Inactive)
REMARK    1  A    between atoms: C_1  and  N_2
REMARK    2  A    between atoms: C_3  and  C_5
REMARK    3  A    between atoms: N_7  and  C_8
REMARK                            x       y       z     vdW  Elec       q    Type
REMARK                         _______ _______ _______ _____ _____    ______ ____
ROOT
ATOM      1  C   UNL     1       2.139   6.764  20.003  0.00  0.00    +0.000 A 
ATOM      2  C   UNL     1       1.861   5.396  20.067  0.00  0.00    +0.000 A 
ATOM      3  C   UNL     1       2.374   4.504  19.123  0.00  0.00    +0.000 A 
ATOM      4  C   UNL     1       3.249   4.987  18.147  0.00  0.00    +0.000 A 
ATOM      5  C   UNL     1       3.439   6.367  17.999  0.00  0.00    +0.000 A 
ATOM      6  C   UNL     1       2.854   7.261  18.911  0.00  0.00    +0.000 A 
ATOM      7  C   UNL     1       4.244   6.834  16.823  0.00  0.00    +0.000 C 
ATOM      8  C   UNL     1       5.473   5.958  16.682  0.00  0.00    +0.000 C 
ATOM      9  C   UNL     1       5.135   4.480  16.664  0.00  0.00    +0.000 C 
ATOM     10  O   UNL     1       5.916   3.676  16.151  0.00  0.00    +0.000 OA
ATOM     11  N   UNL     1       3.982   4.084  17.334  0.00  0.00    +0.000 N 
ATOM     12  C   UNL     1       3.720   2.654  17.457  0.00  0.00    +0.000 C 
ATOM     13  C   UNL     1       2.298   2.348  17.906  0.00  0.00    +0.000 C 
ATOM     14  C   UNL     1       2.039   3.043  19.232  0.00  0.00    +0.000 C 
ENDROOT
BRANCH   1  17
ATOM     15  C   UNL     1       1.041   8.819  20.815  0.00  0.00    +0.000 C 
ATOM     16  O   UNL     1       0.649   9.297  19.751  0.00  0.00    +0.000 OA
ATOM     17  N   UNL     1       1.738   7.643  21.027  0.00  0.00    +0.000 N 
ATOM     18  H   UNL     1       1.808   7.344  21.996  0.00  0.00    +0.000 HD
BRANCH  15  21
ATOM     19  C   UNL     1      -1.103  10.978  23.083  0.00  0.00    +0.000 C 
ATOM     20  N   UNL     1      -0.545  10.216  22.005  0.00  0.00    +0.000 N 
ATOM     21  C   UNL     1       0.669   9.576  22.094  0.00  0.00    +0.000 C 
ATOM     22  O   UNL     1       1.422   9.563  23.058  0.00  0.00    +0.000 OA
ATOM     23  H   UNL     1      -1.015  10.168  21.102  0.00  0.00    +0.000 HD
ENDBRANCH  15  21
ENDBRANCH   1  17
TORSDOF 2
ENDMDL
MODEL 3
REMARK VINA RESULT:      -7.5      3.664      7.839
REMARK  Name = 
REMARK  3 active torsions:
REMARK  status: ('A' for Active; 'I' for Inactive)
REMARK    1  A    between atoms: C_1  and  N_2
REMARK    2  A    between atoms: C_3  and  C_5
REMARK    3  A    between atoms: N_7  and  C_8
REMARK                            x       y       z     vdW  Elec       q    Type
REMARK                         _______ _______ _______ _____ _____    ______ ____
ROOT
ATOM      1  C   UNL     1       1.552   7.451  20.601  0.00  0.00    +0.000 A 
ATOM      2  C   UNL     1       1.315   6.095  20.838  0.00  0.00    +0.000 A 
ATOM      3  C   UNL     1       1.839   5.107  20.001  0.00  0.00    +0.000 A 
ATOM      4  C   UNL     1       2.685   5.489  18.958  0.00  0.00    +0.000 A 
ATOM      5  C   UNL     1       2.833   6.845  18.637  0.00  0.00    +0.000 A 
ATOM      6  C   UNL     1       2.236   7.828  19.443  0.00  0.00    +0.000 A 
ATOM      7  C   UNL     1       3.606   7.185  17.398  0.00  0.00    +0.000 C 
ATOM      8  C   UNL     1       4.858   6.332  17.343  0.00  0.00    +0.000 C 
ATOM      9  C   UNL     1       4.563   4.854  17.513  0.00  0.00    +0.000 C 
ATOM     10  O   UNL     1       5.358   4.015  17.088  0.00  0.00    +0.000 OA
ATOM     11  N   UNL     1       3.432   4.513  18.247  0.00  0.00    +0.000 N 
ATOM     12  C   UNL     1       3.213   3.103  18.550  0.00  0.00    +0.000 C 
ATOM     13  C   UNL     1       1.807   2.816  19.059  0.00  0.00    +0.000 C 
ATOM     14  C   UNL     1       1.548   3.662  20.295  0.00  0.00    +0.000 C 
ENDROOT
BRANCH   1  17
ATOM     15  C   UNL     1       0.141   9.361  21.270  0.00  0.00    +0.000 C 
ATOM     16  O   UNL     1      -0.552   9.489  20.261  0.00  0.00    +0.000 OA
ATOM     17  N   UNL     1       1.141   8.438  21.517  0.00  0.00    +0.000 N 
ATOM     18  H   UNL     1       1.467   8.391  22.479  0.00  0.00    +0.000 HD
BRANCH  15  21
ATOM     19  C   UNL     1      -1.161  12.489  22.980  0.00  0.00    +0.000 C 
ATOM     20  N   UNL     1      -0.772  11.467  22.053  0.00  0.00    +0.000 N 
ATOM     21  C   UNL     1      -0.163  10.298  22.443  0.00  0.00    +0.000 C 
ATOM     22  O   UNL     1       0.130   9.969  23.585  0.00  0.00    +0.000 OA
ATOM     23  H   UNL     1      -0.891  11.601  21.050  0.00  0.00    +0.000 HD
ENDBRANCH  15  21
ENDBRANCH   1  17
TORSDOF 2
ENDMDL
MODEL 4
REMARK VINA RESULT:      -7.5      3.710      7.267
REMARK  Name = 
REMARK  3 active torsions:
REMARK  status: ('A' for Active; 'I' for Inactive)
REMARK    1  A    between atoms: C_1  and  N_2
REMARK    2  A    between atoms: C_3  and  C_5
REMARK    3  A    between atoms: N_7  and  C_8
REMARK                            x       y       z     vdW  Elec       q    Type
REMARK                         _______ _______ _______ _____ _____    ______ ____
ROOT
ATOM      1  C   UNL     1       1.485   7.707  20.224  0.00  0.00    +0.000 A 
ATOM      2  C   UNL     1       2.321   7.783  19.107  0.00  0.00    +0.000 A 
ATOM      3  C   UNL     1       3.008   6.664  18.633  0.00  0.00    +0.000 A 
ATOM      4  C   UNL     1       2.784   5.429  19.245  0.00  0.00    +0.000 A 
ATOM      5  C   UNL     1       2.046   5.361  20.435  0.00  0.00    +0.000 A 
ATOM      6  C   UNL     1       1.422   6.511  20.943  0.00  0.00    +0.000 A 
ATOM      7  C   UNL     1       1.991   4.039  21.142  0.00  0.00    +0.000 C 
ATOM      8  C   UNL     1       1.748   2.941  20.126  0.00  0.00    +0.000 C 
ATOM      9  C   UNL     1       2.727   2.992  18.969  0.00  0.00    +0.000 C 
ATOM     10  O   UNL     1       2.948   1.978  18.304  0.00  0.00    +0.000 OA
ATOM     11  N   UNL     1       3.261   4.234  18.645  0.00  0.00    +0.000 N 
ATOM     12  C   UNL     1       4.085   4.332  17.444  0.00  0.00    +0.000 C 
ATOM     13  C   UNL     1       4.872   5.633  17.369  0.00  0.00    +0.000 C 
ATOM     14  C   UNL     1       3.902   6.800  17.433  0.00  0.00    +0.000 C 
ENDROOT
BRANCH   1  17
ATOM     15  C   UNL     1       0.873   9.513  21.788  0.00  0.00    +0.000 C 
ATOM     16  O   UNL     1       1.726   9.352  22.659  0.00  0.00    +0.000 OA
ATOM     17  N   UNL     1       0.687   8.798  20.619  0.00  0.00    +0.000 N 
ATOM     18  H   UNL     1       0.036   9.206  19.953  0.00  0.00    +0.000 HD
BRANCH  15  21
ATOM     19  C   UNL     1      -1.562  12.217  20.709  0.00  0.00    +0.000 C 
ATOM     20  N   UNL     1      -0.628  11.132  20.784  0.00  0.00    +0.000 N 
ATOM     21  C   UNL     1      -0.088  10.693  21.969  0.00  0.00    +0.000 C 
ATOM     22  O   UNL     1      -0.309  11.141  23.086  0.00  0.00    +0.000 OA
ATOM     23  H   UNL     1      -0.289  10.678  19.937  0.00  0.00    +0.000 HD
ENDBRANCH  15  21
ENDBRANCH   1  17
TORSDOF 2
ENDMDL
MODEL 5
REMARK VINA RESULT:      -7.4      3.955      6.502
REMARK  Name = 
REMARK  3 active torsions:
REMARK  status: ('A' for Active; 'I' for Inactive)
REMARK    1  A    between atoms: C_1  and  N_2
REMARK    2  A    between atoms: C_3  and  C_5
REMARK    3  A    between atoms: N_7  and  C_8
REMARK                            x       y       z     vdW  Elec       q    Type
REMARK                         _______ _______ _______ _____ _____    ______ ____
ROOT
ATOM      1  C   UNL     1       2.055   7.596  19.642  0.00  0.00    +0.000 A 
ATOM      2  C   UNL     1       2.901   7.315  18.566  0.00  0.00    +0.000 A 
ATOM      3  C   UNL     1       3.327   6.013  18.295  0.00  0.00    +0.000 A 
ATOM      4  C   UNL     1       2.825   4.966  19.071  0.00  0.00    +0.000 A 
ATOM      5  C   UNL     1       2.074   5.245  20.221  0.00  0.00    +0.000 A 
ATOM      6  C   UNL     1       1.717   6.568  20.525  0.00  0.00    +0.000 A 
ATOM      7  C   UNL     1       1.717   4.092  21.112  0.00  0.00    +0.000 C 
ATOM      8  C   UNL     1       1.248   2.931  20.258  0.00  0.00    +0.000 C 
ATOM      9  C   UNL     1       2.228   2.589  19.153  0.00  0.00    +0.000 C 
ATOM     10  O   UNL     1       2.226   1.461  18.656  0.00  0.00    +0.000 OA
ATOM     11  N   UNL     1       3.031   3.619  18.675  0.00  0.00    +0.000 N 
ATOM     12  C   UNL     1       3.871   3.348  17.513  0.00  0.00    +0.000 C 
ATOM     13  C   UNL     1       4.930   4.418  17.284  0.00  0.00    +0.000 C 
ATOM     14  C   UNL     1       4.244   5.765  17.131  0.00  0.00    +0.000 C 
ENDROOT
BRANCH   1  17
ATOM     15  C   UNL     1       0.946   9.645  18.831  0.00  0.00    +0.000 C 
ATOM     16  O   UNL     1       0.799   9.362  17.643  0.00  0.00    +0.000 OA
ATOM     17  N   UNL     1       1.516   8.882  19.835  0.00  0.00    +0.000 N 
ATOM     18  H   UNL     1       1.378   9.228  20.781  0.00  0.00    +0.000 HD
BRANCH  15  21
ATOM     19  C   UNL     1      -0.619  13.082  18.458  0.00  0.00    +0.000 C 
ATOM     20  N   UNL     1      -0.043  11.785  18.261  0.00  0.00    +0.000 N 
ATOM     21  C   UNL     1       0.378  10.988  19.299  0.00  0.00    +0.000 C 
ATOM     22  O   UNL     1       0.331  11.254  20.493  0.00  0.00    +0.000 OA
ATOM     23  H   UNL     1       0.124  11.427  17.321  0.00  0.00    +0.000 HD
ENDBRANCH  15  21
ENDBRANCH   1  17
TORSDOF 2
ENDMDL
MODEL 6
REMARK VINA RESULT:      -7.3      3.762      7.656
REMARK  Name = 
REMARK  3 active torsions:
REMARK  status: ('A' for Active; 'I' for Inactive)
REMARK    1  A    between atoms: C_1  and  N_2
REMARK    2  A    between atoms: C_3  and  C_5
REMARK    3  A    between atoms: N_7  and  C_8
REMARK                            x       y       z     vdW  Elec       q    Type
REMARK                         _______ _______ _______ _____ _____    ______ ____
ROOT
ATOM      1  C   UNL     1       1.458   7.771  20.130  0.00  0.00    +0.000 A 
ATOM      2  C   UNL     1       1.371   6.553  20.809  0.00  0.00    +0.000 A 
ATOM      3  C   UNL     1       2.151   5.456  20.438  0.00  0.00    +0.000 A 
ATOM      4  C   UNL     1       3.094   5.615  19.420  0.00  0.00    +0.000 A 
ATOM      5  C   UNL     1       3.107   6.789  18.654  0.00  0.00    +0.000 A 
ATOM      6  C   UNL     1       2.261   7.858  18.991  0.00  0.00    +0.000 A 
ATOM      7  C   UNL     1       4.016   6.829  17.462  0.00  0.00    +0.000 C 
ATOM      8  C   UNL     1       5.364   6.251  17.845  0.00  0.00    +0.000 C 
ATOM      9  C   UNL     1       5.247   4.888  18.498  0.00  0.00    +0.000 C 
ATOM     10  O   UNL     1       6.207   4.115  18.484  0.00  0.00    +0.000 OA
ATOM     11  N   UNL     1       4.070   4.612  19.184  0.00  0.00    +0.000 N 
ATOM     12  C   UNL     1       3.998   3.368  19.945  0.00  0.00    +0.000 C 
ATOM     13  C   UNL     1       2.581   3.017  20.375  0.00  0.00    +0.000 C 
ATOM     14  C   UNL     1       2.015   4.165  21.195  0.00  0.00    +0.000 C 
ENDROOT
BRANCH   1  17
ATOM     15  C   UNL     1       1.037   9.548  21.789  0.00  0.00    +0.000 C 
ATOM     16  O   UNL     1       1.874   9.258  22.643  0.00  0.00    +0.000 OA
ATOM     17  N   UNL     1       0.775   8.915  20.587  0.00  0.00    +0.000 N 
ATOM     18  H   UNL     1       0.166   9.420  19.950  0.00  0.00    +0.000 HD
BRANCH  15  21
ATOM     19  C   UNL     1      -1.857  11.591  23.152  0.00  0.00    +0.000 C 
ATOM     20  N   UNL     1      -0.929  10.562  22.784  0.00  0.00    +0.000 N 
ATOM     21  C   UNL     1       0.201  10.807  22.039  0.00  0.00    +0.000 C 
ATOM     22  O   UNL     1       0.566  11.887  21.595  0.00  0.00    +0.000 OA
ATOM     23  H   UNL     1      -1.108   9.588  23.024  0.00  0.00    +0.000 HD
ENDBRANCH  15  21
ENDBRANCH   1  17
TORSDOF 2
ENDMDL
MODEL 7
REMARK VINA RESULT:      -7.2      3.898      7.048
REMARK  Name = 
REMARK  3 active torsions:
REMARK  status: ('A' for Active; 'I' for Inactive)
REMARK    1  A    between atoms: C_1  and  N_2
REMARK    2  A    between atoms: C_3  and  C_5
REMARK    3  A    between atoms: N_7  and  C_8
REMARK                            x       y       z     vdW  Elec       q    Type
REMARK                         _______ _______ _______ _____ _____    ______ ____
ROOT
ATOM      1  C   UNL     1       1.815   7.533  20.195  0.00  0.00    +0.000 A 
ATOM      2  C   UNL     1       2.711   7.554  19.124  0.00  0.00    +0.000 A 
ATOM      3  C   UNL     1       3.148   6.376  18.516  0.00  0.00    +0.000 A 
ATOM      4  C   UNL     1       2.607   5.160  18.940  0.00  0.00    +0.000 A 
ATOM      5  C   UNL     1       1.803   5.114  20.087  0.00  0.00    +0.000 A 
ATOM      6  C   UNL     1       1.433   6.303  20.736  0.00  0.00    +0.000 A 
ATOM      7  C   UNL     1       1.401   3.763  20.598  0.00  0.00    +0.000 C 
ATOM      8  C   UNL     1       0.972   2.896  19.431  0.00  0.00    +0.000 C 
ATOM      9  C   UNL     1       2.004   2.865  18.320  0.00  0.00    +0.000 C 
ATOM     10  O   UNL     1       2.024   1.924  17.525  0.00  0.00    +0.000 OA
ATOM     11  N   UNL     1       2.830   3.976  18.190  0.00  0.00    +0.000 N 
ATOM     12  C   UNL     1       3.725   4.032  17.039  0.00  0.00    +0.000 C 
ATOM     13  C   UNL     1       4.795   5.107  17.170  0.00  0.00    +0.000 C 
ATOM     14  C   UNL     1       4.120   6.452  17.372  0.00  0.00    +0.000 C 
ENDROOT
BRANCH   1  17
ATOM     15  C   UNL     1       0.628   9.683  19.959  0.00  0.00    +0.000 C 
ATOM     16  O   UNL     1       0.415   9.687  18.747  0.00  0.00    +0.000 OA
ATOM     17  N   UNL     1       1.269   8.721  20.719  0.00  0.00    +0.000 N 
ATOM     18  H   UNL     1       1.182   8.828  21.726  0.00  0.00    +0.000 HD
BRANCH  15  21
ATOM     19  C   UNL     1      -1.829  12.432  20.857  0.00  0.00    +0.000 C 
ATOM     20  N   UNL     1      -1.116  11.341  20.261  0.00  0.00    +0.000 N 
ATOM     21  C   UNL     1       0.070  10.860  20.764  0.00  0.00    +0.000 C 
ATOM     22  O   UNL     1       0.670  11.273  21.748  0.00  0.00    +0.000 OA
ATOM     23  H   UNL     1      -1.446  10.913  19.397  0.00  0.00    +0.000 HD
ENDBRANCH  15  21
ENDBRANCH   1  17
TORSDOF 2
ENDMDL
MODEL 8
REMARK VINA RESULT:      -7.2      1.583      3.074
REMARK  Name = 
REMARK  3 active torsions:
REMARK  status: ('A' for Active; 'I' for Inactive)
REMARK    1  A    between atoms: C_1  and  N_2
REMARK    2  A    between atoms: C_3  and  C_5
REMARK    3  A    between atoms: N_7  and  C_8
REMARK                            x       y       z     vdW  Elec       q    Type
REMARK                         _______ _______ _______ _____ _____    ______ ____
ROOT
ATOM      1  C   UNL     1       4.963   4.302  15.934  0.00  0.00    +0.000 A 
ATOM      2  C   UNL     1       4.660   3.297  16.856  0.00  0.00    +0.000 A 
ATOM      3  C   UNL     1       4.114   3.596  18.106  0.00  0.00    +0.000 A 
ATOM      4  C   UNL     1       3.792   4.923  18.399  0.00  0.00    +0.000 A 
ATOM      5  C   UNL     1       4.199   5.949  17.536  0.00  0.00    +0.000 A 
ATOM      6  C   UNL     1       4.817   5.637  16.314  0.00  0.00    +0.000 A 
ATOM      7  C   UNL     1       3.985   7.362  17.990  0.00  0.00    +0.000 C 
ATOM      8  C   UNL     1       2.599   7.488  18.590  0.00  0.00    +0.000 C 
ATOM      9  C   UNL     1       2.329   6.440  19.653  0.00  0.00    +0.000 C 
ATOM     10  O   UNL     1       1.466   6.642  20.510  0.00  0.00    +0.000 OA
ATOM     11  N   UNL     1       3.013   5.235  19.544  0.00  0.00    +0.000 N 
ATOM     12  C   UNL     1       2.657   4.160  20.465  0.00  0.00    +0.000 C 
ATOM     13  C   UNL     1       3.672   3.026  20.476  0.00  0.00    +0.000 C 
ATOM     14  C   UNL     1       3.814   2.479  19.066  0.00  0.00    +0.000 C 
ENDROOT
BRANCH   1  17
ATOM     15  C   UNL     1       6.577   4.418  14.072  0.00  0.00    +0.000 C 
ATOM     16  O   UNL     1       7.461   5.102  14.587  0.00  0.00    +0.000 OA
ATOM     17  N   UNL     1       5.382   3.994  14.625  0.00  0.00    +0.000 N 
ATOM     18  H   UNL     1       4.877   3.291  14.092  0.00  0.00    +0.000 HD
BRANCH  15  21
ATOM     19  C   UNL     1       6.430   1.976  11.171  0.00  0.00    +0.000 C 
ATOM     20  N   UNL     1       6.320   2.652  12.430  0.00  0.00    +0.000 N 
ATOM     21  C   UNL     1       6.836   3.907  12.651  0.00  0.00    +0.000 C 
ATOM     22  O   UNL     1       7.441   4.603  11.847  0.00  0.00    +0.000 OA
ATOM     23  H   UNL     1       5.892   2.192  13.233  0.00  0.00    +0.000 HD
ENDBRANCH  15  21
ENDBRANCH   1  17
TORSDOF 2
ENDMDL
MODEL 9
REMARK VINA RESULT:      -7.2      3.873      6.629
REMARK  Name = 
REMARK  3 active torsions:
REMARK  status: ('A' for Active; 'I' for Inactive)
REMARK    1  A    between atoms: C_1  and  N_2
REMARK    2  A    between atoms: C_3  and  C_5
REMARK    3  A    between atoms: N_7  and  C_8
REMARK                            x       y       z     vdW  Elec       q    Type
REMARK                         _______ _______ _______ _____ _____    ______ ____
ROOT
ATOM      1  C   UNL     1       2.053   7.548  19.713  0.00  0.00    +0.000 A 
ATOM      2  C   UNL     1       2.886   7.306  18.618  0.00  0.00    +0.000 A 
ATOM      3  C   UNL     1       3.337   6.019  18.317  0.00  0.00    +0.000 A 
ATOM      4  C   UNL     1       2.873   4.947  19.083  0.00  0.00    +0.000 A 
ATOM      5  C   UNL     1       2.137   5.188  20.251  0.00  0.00    +0.000 A 
ATOM      6  C   UNL     1       1.754   6.498  20.584  0.00  0.00    +0.000 A 
ATOM      7  C   UNL     1       1.823   4.013  21.127  0.00  0.00    +0.000 C 
ATOM      8  C   UNL     1       1.366   2.855  20.261  0.00  0.00    +0.000 C 
ATOM      9  C   UNL     1       2.334   2.555  19.133  0.00  0.00    +0.000 C 
ATOM     10  O   UNL     1       2.349   1.437  18.617  0.00  0.00    +0.000 OA
ATOM     11  N   UNL     1       3.104   3.612  18.660  0.00  0.00    +0.000 N 
ATOM     12  C   UNL     1       3.930   3.382  17.479  0.00  0.00    +0.000 C 
ATOM     13  C   UNL     1       4.959   4.480  17.251  0.00  0.00    +0.000 C 
ATOM     14  C   UNL     1       4.240   5.813  17.133  0.00  0.00    +0.000 C 
ENDROOT
BRANCH   1  17
ATOM     15  C   UNL     1       0.946   9.614  18.945  0.00  0.00    +0.000 C 
ATOM     16  O   UNL     1       0.850   9.381  17.741  0.00  0.00    +0.000 OA
ATOM     17  N   UNL     1       1.487   8.818  19.938  0.00  0.00    +0.000 N 
ATOM     18  H   UNL     1       1.307   9.122  20.891  0.00  0.00    +0.000 HD
BRANCH  15  21
ATOM     19  C   UNL     1      -0.058  12.233  21.502  0.00  0.00    +0.000 C 
ATOM     20  N   UNL     1       0.431  11.077  20.810  0.00  0.00    +0.000 N 
ATOM     21  C   UNL     1       0.340  10.929  19.446  0.00  0.00    +0.000 C 
ATOM     22  O   UNL     1      -0.151  11.722  18.654  0.00  0.00    +0.000 OA
ATOM     23  H   UNL     1       0.822  10.289  21.324  0.00  0.00    +0.000 HD
ENDBRANCH  15  21
ENDBRANCH   1  17
TORSDOF 2
ENDMDL
