MODEL 1
REMARK VINA RESULT:      -7.4      0.000      0.000
REMARK  Name = 
REMARK  6 active torsions:
REMARK  status: ('A' for Active; 'I' for Inactive)
REMARK    1  A    between atoms: C_2  and  C_10
REMARK    2  A    between atoms: N_3  and  C_4
REMARK    3  A    between atoms: C_4  and  N_5
REMARK    4  A    between atoms: C_12  and  C_13
REMARK    5  A    between atoms: C_19  and  O_20
REMARK    6  A    between atoms: C_21  and  O_22
REMARK                            x       y       z     vdW  Elec       q    Type
REMARK                         _______ _______ _______ _____ _____    ______ ____
ROOT
ATOM      1  C   UNL     1       5.858   4.340  17.762  0.00  0.00    +0.000 A 
ATOM      2  N   UNL     1       5.906   4.010  16.440  0.00  0.00    +0.000 NA
ATOM      3  C   UNL     1       6.651   4.811  15.654  0.00  0.00    +0.000 A 
ATOM      4  N   UNL     1       7.344   5.887  16.065  0.00  0.00    +0.000 NA
ATOM      5  C   UNL     1       7.246   6.145  17.370  0.00  0.00    +0.000 A 
ATOM      6  C   UNL     1       6.519   5.425  18.289  0.00  0.00    +0.000 A 
ENDROOT
BRANCH   3   7
ATOM      7  C   UNL     1       6.699   4.528  14.214  0.00  0.00    +0.000 A 
ATOM      8  C   UNL     1       5.900   3.671  13.470  0.00  0.00    +0.000 A 
ATOM      9  C   UNL     1       6.278   3.608  12.096  0.00  0.00    +0.000 A 
ATOM     10  C   UNL     1       7.343   4.432  11.821  0.00  0.00    +0.000 A 
ATOM     11  S   UNL     1       7.870   5.284  13.205  0.00  0.00    +0.000 S 
ENDBRANCH   3   7
BRANCH   1  13
ATOM     12  O   UNL     1       5.222   3.269  19.820  0.00  0.00    +0.000 OA
ATOM     13  C   UNL     1       5.040   3.414  18.618  0.00  0.00    +0.000 C 
ATOM     14  N   UNL     1       4.051   2.716  17.956  0.00  0.00    +0.000 N 
ATOM     15  H   UNL     1       3.834   2.971  16.997  0.00  0.00    +0.000 HD
BRANCH  14  16
ATOM     16  C   UNL     1       3.180   1.812  18.676  0.00  0.00    +0.000 C 
BRANCH  16  17
ATOM     17  N   UNL     1       2.222   2.455  19.559  0.00  0.00    +0.000 N 
ATOM     18  C   UNL     1       1.233   3.325  19.222  0.00  0.00    +0.000 A 
ATOM     19  N   UNL     1       0.605   3.720  20.307  0.00  0.00    +0.000 NA
ATOM     20  C   UNL     1       1.254   3.041  21.300  0.00  0.00    +0.000 A 
ATOM     21  N   UNL     1       2.254   2.253  20.895  0.00  0.00    +0.000 NA
ENDBRANCH  16  17
ENDBRANCH  14  16
ENDBRANCH   1  13
BRANCH   5  22
ATOM     22  O   UNL     1       7.947   7.239  17.788  0.00  0.00    +0.000 OA
ATOM     23  H   UNL     1       7.398   7.541  18.534  0.00  0.00    +0.000 HD
ENDBRANCH   5  22
BRANCH   6  24
ATOM     24  O   UNL     1       6.505   5.796  19.595  0.00  0.00    +0.000 OA
ATOM     25  H   UNL     1       6.633   6.765  19.621  0.00  0.00    +0.000 HD
ENDBRANCH   6  24
TORSDOF 6
ENDMDL
MODEL 2
REMARK VINA RESULT:      -7.3      3.715      6.969
REMARK  Name = 
REMARK  6 active torsions:
REMARK  status: ('A' for Active; 'I' for Inactive)
REMARK    1  A    between atoms: C_2  and  C_10
REMARK    2  A    between atoms: N_3  and  C_4
REMARK    3  A    between atoms: C_4  and  N_5
REMARK    4  A    between atoms: C_12  and  C_13
REMARK    5  A    between atoms: C_19  and  O_20
REMARK    6  A    between atoms: C_21  and  O_22
REMARK                            x       y       z     vdW  Elec       q    Type
REMARK                         _______ _______ _______ _____ _____    ______ ____
ROOT
ATOM      1  C   UNL     1       4.925   4.879  18.505  0.00  0.00    +0.000 A 
ATOM      2  N   UNL     1       4.268   6.069  18.401  0.00  0.00    +0.000 NA
ATOM      3  C   UNL     1       3.141   6.191  19.128  0.00  0.00    +0.000 A 
ATOM      4  N   UNL     1       2.626   5.252  19.940  0.00  0.00    +0.000 NA
ATOM      5  C   UNL     1       3.325   4.116  19.988  0.00  0.00    +0.000 A 
ATOM      6  C   UNL     1       4.482   3.845  19.297  0.00  0.00    +0.000 A 
ENDROOT
BRANCH   3   7
ATOM      7  C   UNL     1       2.370   7.436  19.016  0.00  0.00    +0.000 A 
ATOM      8  C   UNL     1       2.157   8.229  17.897  0.00  0.00    +0.000 A 
ATOM      9  C   UNL     1       1.398   9.402  18.180  0.00  0.00    +0.000 A 
ATOM     10  C   UNL     1       1.034   9.468  19.504  0.00  0.00    +0.000 A 
ATOM     11  S   UNL     1       1.589   8.117  20.391  0.00  0.00    +0.000 S 
ENDBRANCH   3   7
BRANCH   1  13
ATOM     12  O   UNL     1       7.243   4.341  18.152  0.00  0.00    +0.000 OA
ATOM     13  C   UNL     1       6.192   4.781  17.703  0.00  0.00    +0.000 C 
ATOM     14  N   UNL     1       6.103   5.229  16.401  0.00  0.00    +0.000 N 
ATOM     15  H   UNL     1       5.186   5.445  16.023  0.00  0.00    +0.000 HD
BRANCH  14  16
ATOM     16  C   UNL     1       7.250   5.162  15.520  0.00  0.00    +0.000 C 
BRANCH  16  17
ATOM     17  N   UNL     1       6.980   4.615  14.201  0.00  0.00    +0.000 N 
ATOM     18  C   UNL     1       7.621   4.899  13.036  0.00  0.00    +0.000 A 
ATOM     19  N   UNL     1       7.058   4.235  12.052  0.00  0.00    +0.000 NA
ATOM     20  C   UNL     1       6.065   3.538  12.681  0.00  0.00    +0.000 A 
ATOM     21  N   UNL     1       5.974   3.737  13.999  0.00  0.00    +0.000 NA
ENDBRANCH  16  17
ENDBRANCH  14  16
ENDBRANCH   1  13
BRANCH   5  22
ATOM     22  O   UNL     1       2.802   3.160  20.809  0.00  0.00    +0.000 OA
ATOM     23  H   UNL     1       2.663   3.671  21.627  0.00  0.00    +0.000 HD
ENDBRANCH   5  22
BRANCH   6  24
ATOM     24  O   UNL     1       5.099   2.643  19.437  0.00  0.00    +0.000 OA
ATOM     25  H   UNL     1       6.011   2.820  19.740  0.00  0.00    +0.000 HD
ENDBRANCH   6  24
TORSDOF 6
ENDMDL
MODEL 3
REMARK VINA RESULT:      -7.2      3.995      7.199
REMARK  Name = 
REMARK  6 active torsions:
REMARK  status: ('A' for Active; 'I' for Inactive)
REMARK    1  A    between atoms: C_2  and  C_10
REMARK    2  A    between atoms: N_3  and  C_4
REMARK    3  A    between atoms: C_4  and  N_5
REMARK    4  A    between atoms: C_12  and  C_13
REMARK    5  A    between atoms: C_19  and  O_20
REMARK    6  A    between atoms: C_21  and  O_22
REMARK                            x       y       z     vdW  Elec       q    Type
REMARK                         _______ _______ _______ _____ _____    ______ ____
ROOT
ATOM      1  C   UNL     1       3.964   5.060  19.382  0.00  0.00    +0.000 A 
ATOM      2  N   UNL     1       3.514   6.337  19.232  0.00  0.00    +0.000 NA
ATOM      3  C   UNL     1       2.328   6.621  19.805  0.00  0.00    +0.000 A 
ATOM      4  N   UNL     1       1.570   5.760  20.506  0.00  0.00    +0.000 NA
ATOM      5  C   UNL     1       2.077   4.530  20.607  0.00  0.00    +0.000 A 
ATOM      6  C   UNL     1       3.265   4.094  20.069  0.00  0.00    +0.000 A 
ENDROOT
BRANCH   3   7
ATOM      7  C   UNL     1       1.776   7.971  19.634  0.00  0.00    +0.000 A 
ATOM      8  C   UNL     1       1.794   8.782  18.508  0.00  0.00    +0.000 A 
ATOM      9  C   UNL     1       1.207  10.062  18.732  0.00  0.00    +0.000 A 
ATOM     10  C   UNL     1       0.736  10.190  20.017  0.00  0.00    +0.000 A 
ATOM     11  S   UNL     1       0.988   8.774  20.938  0.00  0.00    +0.000 S 
ENDBRANCH   3   7
BRANCH   1  13
ATOM     12  O   UNL     1       6.005   3.826  19.062  0.00  0.00    +0.000 OA
ATOM     13  C   UNL     1       5.300   4.779  18.754  0.00  0.00    +0.000 C 
ATOM     14  N   UNL     1       5.701   5.681  17.790  0.00  0.00    +0.000 N 
ATOM     15  H   UNL     1       5.031   6.368  17.458  0.00  0.00    +0.000 HD
BRANCH  14  16
ATOM     16  C   UNL     1       6.958   5.505  17.095  0.00  0.00    +0.000 C 
BRANCH  16  17
ATOM     17  N   UNL     1       6.845   4.997  15.738  0.00  0.00    +0.000 N 
ATOM     18  C   UNL     1       6.077   3.964  15.299  0.00  0.00    +0.000 A 
ATOM     19  N   UNL     1       6.280   3.781  14.013  0.00  0.00    +0.000 NA
ATOM     20  C   UNL     1       7.190   4.754  13.706  0.00  0.00    +0.000 A 
ATOM     21  N   UNL     1       7.570   5.525  14.729  0.00  0.00    +0.000 NA
ENDBRANCH  16  17
ENDBRANCH  14  16
ENDBRANCH   1  13
BRANCH   5  22
ATOM     22  O   UNL     1       1.308   3.654  21.316  0.00  0.00    +0.000 OA
ATOM     23  H   UNL     1       1.312   2.880  20.726  0.00  0.00    +0.000 HD
ENDBRANCH   5  22
BRANCH   6  24
ATOM     24  O   UNL     1       3.669   2.810  20.248  0.00  0.00    +0.000 OA
ATOM     25  H   UNL     1       2.865   2.274  20.401  0.00  0.00    +0.000 HD
ENDBRANCH   6  24
TORSDOF 6
ENDMDL
MODEL 4
REMARK VINA RESULT:      -7.2      2.909      6.692
REMARK  Name = 
REMARK  6 active torsions:
REMARK  status: ('A' for Active; 'I' for Inactive)
REMARK    1  A    between atoms: C_2  and  C_10
REMARK    2  A    between atoms: N_3  and  C_4
REMARK    3  A    between atoms: C_4  and  N_5
REMARK    4  A    between atoms: C_12  and  C_13
REMARK    5  A    between atoms: C_19  and  O_20
REMARK    6  A    between atoms: C_21  and  O_22
REMARK                            x       y       z     vdW  Elec       q    Type
REMARK                         _______ _______ _______ _____ _____    ______ ____
ROOT
ATOM      1  C   UNL     1       5.620   5.154  16.903  0.00  0.00    +0.000 A 
ATOM      2  N   UNL     1       4.376   4.741  17.273  0.00  0.00    +0.000 NA
ATOM      3  C   UNL     1       4.170   4.582  18.595  0.00  0.00    +0.000 A 
ATOM      4  N   UNL     1       5.078   4.802  19.561  0.00  0.00    +0.000 NA
ATOM      5  C   UNL     1       6.271   5.203  19.120  0.00  0.00    +0.000 A 
ATOM      6  C   UNL     1       6.628   5.399  17.807  0.00  0.00    +0.000 A 
ENDROOT
BRANCH   3   7
ATOM      7  C   UNL     1       2.860   4.093  19.044  0.00  0.00    +0.000 A 
ATOM      8  C   UNL     1       2.058   4.572  20.070  0.00  0.00    +0.000 A 
ATOM      9  C   UNL     1       0.871   3.804  20.257  0.00  0.00    +0.000 A 
ATOM     10  C   UNL     1       0.786   2.769  19.356  0.00  0.00    +0.000 A 
ATOM     11  S   UNL     1       2.118   2.736  18.288  0.00  0.00    +0.000 S 
ENDBRANCH   3   7
BRANCH   1  13
ATOM     12  O   UNL     1       5.331   6.281  14.797  0.00  0.00    +0.000 OA
ATOM     13  C   UNL     1       5.813   5.347  15.425  0.00  0.00    +0.000 C 
ATOM     14  N   UNL     1       6.578   4.385  14.799  0.00  0.00    +0.000 N 
ATOM     15  H   UNL     1       7.079   3.714  15.372  0.00  0.00    +0.000 HD
BRANCH  14  16
ATOM     16  C   UNL     1       6.856   4.474  13.381  0.00  0.00    +0.000 C 
BRANCH  16  17
ATOM     17  N   UNL     1       6.090   3.564  12.546  0.00  0.00    +0.000 N 
ATOM     18  C   UNL     1       6.521   2.423  11.945  0.00  0.00    +0.000 A 
ATOM     19  N   UNL     1       5.543   1.901  11.239  0.00  0.00    +0.000 NA
ATOM     20  C   UNL     1       4.512   2.772  11.454  0.00  0.00    +0.000 A 
ATOM     21  N   UNL     1       4.795   3.809  12.248  0.00  0.00    +0.000 NA
ENDBRANCH  16  17
ENDBRANCH  14  16
ENDBRANCH   1  13
BRANCH   5  22
ATOM     22  O   UNL     1       7.195   5.425  20.100  0.00  0.00    +0.000 OA
ATOM     23  H   UNL     1       8.020   5.194  19.636  0.00  0.00    +0.000 HD
ENDBRANCH   5  22
BRANCH   6  24
ATOM     24  O   UNL     1       7.883   5.812  17.491  0.00  0.00    +0.000 OA
ATOM     25  H   UNL     1       8.466   5.028  17.540  0.00  0.00    +0.000 HD
ENDBRANCH   6  24
TORSDOF 6
ENDMDL
MODEL 5
REMARK VINA RESULT:      -7.1      3.943      5.757
REMARK  Name = 
REMARK  6 active torsions:
REMARK  status: ('A' for Active; 'I' for Inactive)
REMARK    1  A    between atoms: C_2  and  C_10
REMARK    2  A    between atoms: N_3  and  C_4
REMARK    3  A    between atoms: C_4  and  N_5
REMARK    4  A    between atoms: C_12  and  C_13
REMARK    5  A    between atoms: C_19  and  O_20
REMARK    6  A    between atoms: C_21  and  O_22
REMARK                            x       y       z     vdW  Elec       q    Type
REMARK                         _______ _______ _______ _____ _____    ______ ____
ROOT
ATOM      1  C   UNL     1       3.118   4.652  20.041  0.00  0.00    +0.000 A 
ATOM      2  N   UNL     1       4.049   5.515  19.547  0.00  0.00    +0.000 NA
ATOM      3  C   UNL     1       5.207   4.967  19.130  0.00  0.00    +0.000 A 
ATOM      4  N   UNL     1       5.507   3.657  19.155  0.00  0.00    +0.000 NA
ATOM      5  C   UNL     1       4.546   2.876  19.653  0.00  0.00    +0.000 A 
ATOM      6  C   UNL     1       3.323   3.294  20.123  0.00  0.00    +0.000 A 
ENDROOT
BRANCH   3   7
ATOM      7  C   UNL     1       6.262   5.858  18.633  0.00  0.00    +0.000 A 
ATOM      8  C   UNL     1       7.530   6.078  19.152  0.00  0.00    +0.000 A 
ATOM      9  C   UNL     1       8.266   7.064  18.431  0.00  0.00    +0.000 A 
ATOM     10  C   UNL     1       7.549   7.560  17.368  0.00  0.00    +0.000 A 
ATOM     11  S   UNL     1       6.011   6.829  17.234  0.00  0.00    +0.000 S 
ENDBRANCH   3   7
BRANCH   1  13
ATOM     12  O   UNL     1       0.769   4.680  20.562  0.00  0.00    +0.000 OA
ATOM     13  C   UNL     1       1.828   5.289  20.475  0.00  0.00    +0.000 C 
ATOM     14  N   UNL     1       1.904   6.634  20.773  0.00  0.00    +0.000 N 
ATOM     15  H   UNL     1       2.820   7.067  20.832  0.00  0.00    +0.000 HD
BRANCH  14  16
ATOM     16  C   UNL     1       0.734   7.355  21.226  0.00  0.00    +0.000 C 
BRANCH  16  17
ATOM     17  N   UNL     1       0.811   8.799  21.090  0.00  0.00    +0.000 N 
ATOM     18  C   UNL     1       0.775   9.732  22.080  0.00  0.00    +0.000 A 
ATOM     19  N   UNL     1       0.828  10.934  21.553  0.00  0.00    +0.000 NA
ATOM     20  C   UNL     1       0.908  10.678  20.213  0.00  0.00    +0.000 A 
ATOM     21  N   UNL     1       0.900   9.385  19.876  0.00  0.00    +0.000 NA
ENDBRANCH  16  17
ENDBRANCH  14  16
ENDBRANCH   1  13
BRANCH   5  22
ATOM     22  O   UNL     1       4.850   1.547  19.681  0.00  0.00    +0.000 OA
ATOM     23  H   UNL     1       5.784   1.573  19.956  0.00  0.00    +0.000 HD
ENDBRANCH   5  22
BRANCH   6  24
ATOM     24  O   UNL     1       2.429   2.392  20.605  0.00  0.00    +0.000 OA
ATOM     25  H   UNL     1       2.826   1.991  21.403  0.00  0.00    +0.000 HD
ENDBRANCH   6  24
TORSDOF 6
ENDMDL
MODEL 6
REMARK VINA RESULT:      -6.9      1.214      1.518
REMARK  Name = 
REMARK  6 active torsions:
REMARK  status: ('A' for Active; 'I' for Inactive)
REMARK    1  A    between atoms: C_2  and  C_10
REMARK    2  A    between atoms: N_3  and  C_4
REMARK    3  A    between atoms: C_4  and  N_5
REMARK    4  A    between atoms: C_12  and  C_13
REMARK    5  A    between atoms: C_19  and  O_20
REMARK    6  A    between atoms: C_21  and  O_22
REMARK                            x       y       z     vdW  Elec       q    Type
REMARK                         _______ _______ _______ _____ _____    ______ ____
ROOT
ATOM      1  C   UNL     1       5.247   4.632  17.387  0.00  0.00    +0.000 A 
ATOM      2  N   UNL     1       5.518   4.412  16.070  0.00  0.00    +0.000 NA
ATOM      3  C   UNL     1       6.628   5.001  15.584  0.00  0.00    +0.000 A 
ATOM      4  N   UNL     1       7.478   5.771  16.287  0.00  0.00    +0.000 NA
ATOM      5  C   UNL     1       7.144   5.940  17.568  0.00  0.00    +0.000 A 
ATOM      6  C   UNL     1       6.041   5.410  18.196  0.00  0.00    +0.000 A 
ENDROOT
BRANCH   3   7
ATOM      7  C   UNL     1       6.941   4.835  14.160  0.00  0.00    +0.000 A 
ATOM      8  C   UNL     1       7.848   5.540  13.381  0.00  0.00    +0.000 A 
ATOM      9  C   UNL     1       7.840   5.137  12.013  0.00  0.00    +0.000 A 
ATOM     10  C   UNL     1       6.942   4.122  11.784  0.00  0.00    +0.000 A 
ATOM     11  S   UNL     1       6.129   3.650  13.210  0.00  0.00    +0.000 S 
ENDBRANCH   3   7
BRANCH   1  13
ATOM     12  O   UNL     1       2.925   4.488  18.002  0.00  0.00    +0.000 OA
ATOM     13  C   UNL     1       4.017   3.942  17.906  0.00  0.00    +0.000 C 
ATOM     14  N   UNL     1       4.192   2.626  18.282  0.00  0.00    +0.000 N 
ATOM     15  H   UNL     1       5.067   2.167  18.050  0.00  0.00    +0.000 HD
BRANCH  14  16
ATOM     16  C   UNL     1       3.077   1.847  18.775  0.00  0.00    +0.000 C 
BRANCH  16  17
ATOM     17  N   UNL     1       2.532   2.289  20.047  0.00  0.00    +0.000 N 
ATOM     18  C   UNL     1       3.198   2.468  21.220  0.00  0.00    +0.000 A 
ATOM     19  N   UNL     1       2.350   2.834  22.155  0.00  0.00    +0.000 NA
ATOM     20  C   UNL     1       1.157   2.875  21.488  0.00  0.00    +0.000 A 
ATOM     21  N   UNL     1       1.214   2.548  20.194  0.00  0.00    +0.000 NA
ENDBRANCH  16  17
ENDBRANCH  14  16
ENDBRANCH   1  13
BRANCH   5  22
ATOM     22  O   UNL     1       8.004   6.722  18.281  0.00  0.00    +0.000 OA
ATOM     23  H   UNL     1       8.543   6.047  18.732  0.00  0.00    +0.000 HD
ENDBRANCH   5  22
BRANCH   6  24
ATOM     24  O   UNL     1       5.817   5.660  19.513  0.00  0.00    +0.000 OA
ATOM     25  H   UNL     1       5.238   4.947  19.847  0.00  0.00    +0.000 HD
ENDBRANCH   6  24
TORSDOF 6
ENDMDL
MODEL 7
REMARK VINA RESULT:      -6.9      1.325      1.637
REMARK  Name = 
REMARK  6 active torsions:
REMARK  status: ('A' for Active; 'I' for Inactive)
REMARK    1  A    between atoms: C_2  and  C_10
REMARK    2  A    between atoms: N_3  and  C_4
REMARK    3  A    between atoms: C_4  and  N_5
REMARK    4  A    between atoms: C_12  and  C_13
REMARK    5  A    between atoms: C_19  and  O_20
REMARK    6  A    between atoms: C_21  and  O_22
REMARK                            x       y       z     vdW  Elec       q    Type
REMARK                         _______ _______ _______ _____ _____    ______ ____
ROOT
ATOM      1  C   UNL     1       5.177   4.584  17.344  0.00  0.00    +0.000 A 
ATOM      2  N   UNL     1       5.473   4.364  16.032  0.00  0.00    +0.000 NA
ATOM      3  C   UNL     1       6.596   4.946  15.570  0.00  0.00    +0.000 A 
ATOM      4  N   UNL     1       7.436   5.710  16.290  0.00  0.00    +0.000 NA
ATOM      5  C   UNL     1       7.078   5.880  17.564  0.00  0.00    +0.000 A 
ATOM      6  C   UNL     1       5.960   5.357  18.170  0.00  0.00    +0.000 A 
ENDROOT
BRANCH   3   7
ATOM      7  C   UNL     1       6.936   4.779  14.151  0.00  0.00    +0.000 A 
ATOM      8  C   UNL     1       7.880   5.462  13.397  0.00  0.00    +0.000 A 
ATOM      9  C   UNL     1       7.892   5.068  12.027  0.00  0.00    +0.000 A 
ATOM     10  C   UNL     1       6.970   4.081  11.772  0.00  0.00    +0.000 A 
ATOM     11  S   UNL     1       6.112   3.625  13.176  0.00  0.00    +0.000 S 
ENDBRANCH   3   7
BRANCH   1  13
ATOM     12  O   UNL     1       3.819   2.685  17.928  0.00  0.00    +0.000 OA
ATOM     13  C   UNL     1       3.932   3.902  17.838  0.00  0.00    +0.000 C 
ATOM     14  N   UNL     1       2.897   4.742  18.189  0.00  0.00    +0.000 N 
ATOM     15  H   UNL     1       3.078   5.740  18.243  0.00  0.00    +0.000 HD
BRANCH  14  16
ATOM     16  C   UNL     1       1.655   4.206  18.703  0.00  0.00    +0.000 C 
BRANCH  16  17
ATOM     17  N   UNL     1       1.718   3.707  20.066  0.00  0.00    +0.000 N 
ATOM     18  C   UNL     1       2.396   4.242  21.118  0.00  0.00    +0.000 A 
ATOM     19  N   UNL     1       2.242   3.477  22.175  0.00  0.00    +0.000 NA
ATOM     20  C   UNL     1       1.438   2.473  21.712  0.00  0.00    +0.000 A 
ATOM     21  N   UNL     1       1.089   2.567  20.425  0.00  0.00    +0.000 NA
ENDBRANCH  16  17
ENDBRANCH  14  16
ENDBRANCH   1  13
BRANCH   5  22
ATOM     22  O   UNL     1       7.929   6.656  18.295  0.00  0.00    +0.000 OA
ATOM     23  H   UNL     1       7.308   7.091  18.907  0.00  0.00    +0.000 HD
ENDBRANCH   5  22
BRANCH   6  24
ATOM     24  O   UNL     1       5.711   5.607  19.482  0.00  0.00    +0.000 OA
ATOM     25  H   UNL     1       4.740   5.613  19.594  0.00  0.00    +0.000 HD
ENDBRANCH   6  24
TORSDOF 6
ENDMDL
MODEL 8
REMARK VINA RESULT:      -6.9      3.223      3.570
REMARK  Name = 
REMARK  6 active torsions:
REMARK  status: ('A' for Active; 'I' for Inactive)
REMARK    1  A    between atoms: C_2  and  C_10
REMARK    2  A    between atoms: N_3  and  C_4
REMARK    3  A    between atoms: C_4  and  N_5
REMARK    4  A    between atoms: C_12  and  C_13
REMARK    5  A    between atoms: C_19  and  O_20
REMARK    6  A    between atoms: C_21  and  O_22
REMARK                            x       y       z     vdW  Elec       q    Type
REMARK                         _______ _______ _______ _____ _____    ______ ____
ROOT
ATOM      1  C   UNL     1       5.083   5.022  17.529  0.00  0.00    +0.000 A 
ATOM      2  N   UNL     1       5.150   4.812  16.185  0.00  0.00    +0.000 NA
ATOM      3  C   UNL     1       6.362   4.490  15.692  0.00  0.00    +0.000 A 
ATOM      4  N   UNL     1       7.489   4.356  16.412  0.00  0.00    +0.000 NA
ATOM      5  C   UNL     1       7.343   4.579  17.719  0.00  0.00    +0.000 A 
ATOM      6  C   UNL     1       6.176   4.923  18.359  0.00  0.00    +0.000 A 
ENDROOT
BRANCH   3   7
ATOM      7  C   UNL     1       6.498   4.298  14.243  0.00  0.00    +0.000 A 
ATOM      8  C   UNL     1       5.741   3.501  13.396  0.00  0.00    +0.000 A 
ATOM      9  C   UNL     1       6.205   3.521  12.048  0.00  0.00    +0.000 A 
ATOM     10  C   UNL     1       7.293   4.347  11.894  0.00  0.00    +0.000 A 
ATOM     11  S   UNL     1       7.738   5.102  13.360  0.00  0.00    +0.000 S 
ENDBRANCH   3   7
BRANCH   1  13
ATOM     12  O   UNL     1       2.693   4.787  17.684  0.00  0.00    +0.000 OA
ATOM     13  C   UNL     1       3.714   5.355  18.053  0.00  0.00    +0.000 C 
ATOM     14  N   UNL     1       3.670   6.363  18.993  0.00  0.00    +0.000 N 
ATOM     15  H   UNL     1       4.544   6.705  19.381  0.00  0.00    +0.000 HD
BRANCH  14  16
ATOM     16  C   UNL     1       2.412   6.758  19.591  0.00  0.00    +0.000 C 
BRANCH  16  17
ATOM     17  N   UNL     1       1.922   8.064  19.186  0.00  0.00    +0.000 N 
ATOM     18  C   UNL     1       2.080   8.675  17.981  0.00  0.00    +0.000 A 
ATOM     19  N   UNL     1       1.529   9.867  18.017  0.00  0.00    +0.000 NA
ATOM     20  C   UNL     1       1.031   9.936  19.288  0.00  0.00    +0.000 A 
ATOM     21  N   UNL     1       1.246   8.856  20.046  0.00  0.00    +0.000 NA
ENDBRANCH  16  17
ENDBRANCH  14  16
ENDBRANCH   1  13
BRANCH   5  22
ATOM     22  O   UNL     1       8.487   4.445  18.451  0.00  0.00    +0.000 OA
ATOM     23  H   UNL     1       8.569   5.336  18.836  0.00  0.00    +0.000 HD
ENDBRANCH   5  22
BRANCH   6  24
ATOM     24  O   UNL     1       6.163   5.121  19.703  0.00  0.00    +0.000 OA
ATOM     25  H   UNL     1       5.233   5.050  19.996  0.00  0.00    +0.000 HD
ENDBRANCH   6  24
TORSDOF 6
ENDMDL
MODEL 9
REMARK VINA RESULT:      -6.8      4.515      5.591
REMARK  Name = 
REMARK  6 active torsions:
REMARK  status: ('A' for Active; 'I' for Inactive)
REMARK    1  A    between atoms: C_2  and  C_10
REMARK    2  A    between atoms: N_3  and  C_4
REMARK    3  A    between atoms: C_4  and  N_5
REMARK    4  A    between atoms: C_12  and  C_13
REMARK    5  A    between atoms: C_19  and  O_20
REMARK    6  A    between atoms: C_21  and  O_22
REMARK                            x       y       z     vdW  Elec       q    Type
REMARK                         _______ _______ _______ _____ _____    ______ ____
ROOT
ATOM      1  C   UNL     1       2.816   6.603  18.728  0.00  0.00    +0.000 A 
ATOM      2  N   UNL     1       3.635   6.397  17.659  0.00  0.00    +0.000 NA
ATOM      3  C   UNL     1       4.265   5.208  17.612  0.00  0.00    +0.000 A 
ATOM      4  N   UNL     1       4.147   4.222  18.518  0.00  0.00    +0.000 NA
ATOM      5  C   UNL     1       3.329   4.499  19.535  0.00  0.00    +0.000 A 
ATOM      6  C   UNL     1       2.629   5.668  19.720  0.00  0.00    +0.000 A 
ENDROOT
BRANCH   3   7
ATOM      7  C   UNL     1       5.195   4.953  16.504  0.00  0.00    +0.000 A 
ATOM      8  C   UNL     1       4.991   4.209  15.351  0.00  0.00    +0.000 A 
ATOM      9  C   UNL     1       6.149   4.134  14.522  0.00  0.00    +0.000 A 
ATOM     10  C   UNL     1       7.203   4.839  15.053  0.00  0.00    +0.000 A 
ATOM     11  S   UNL     1       6.792   5.595  16.528  0.00  0.00    +0.000 S 
ENDBRANCH   3   7
BRANCH   1  13
ATOM     12  O   UNL     1       1.918   8.603  17.736  0.00  0.00    +0.000 OA
ATOM     13  C   UNL     1       2.108   7.928  18.741  0.00  0.00    +0.000 C 
ATOM     14  N   UNL     1       1.676   8.356  19.979  0.00  0.00    +0.000 N 
ATOM     15  H   UNL     1       1.718   7.707  20.759  0.00  0.00    +0.000 HD
BRANCH  14  16
ATOM     16  C   UNL     1       0.958   9.605  20.118  0.00  0.00    +0.000 C 
BRANCH  16  17
ATOM     17  N   UNL     1       0.418   9.860  21.442  0.00  0.00    +0.000 N 
ATOM     18  C   UNL     1       0.851   9.355  22.629  0.00  0.00    +0.000 A 
ATOM     19  N   UNL     1       0.077   9.787  23.599  0.00  0.00    +0.000 NA
ATOM     20  C   UNL     1      -0.826  10.575  22.942  0.00  0.00    +0.000 A 
ATOM     21  N   UNL     1      -0.662  10.652  21.618  0.00  0.00    +0.000 NA
ENDBRANCH  16  17
ENDBRANCH  14  16
ENDBRANCH   1  13
BRANCH   5  22
ATOM     22  O   UNL     1       3.209   3.500  20.457  0.00  0.00    +0.000 OA
ATOM     23  H   UNL     1       4.024   3.625  20.976  0.00  0.00    +0.000 HD
ENDBRANCH   5  22
BRANCH   6  24
ATOM     24  O   UNL     1       1.826   5.822  20.804  0.00  0.00    +0.000 OA
ATOM     25  H   UNL     1       2.406   5.852  21.591  0.00  0.00    +0.000 HD
ENDBRANCH   6  24
TORSDOF 6
ENDMDL
