MODEL 1
REMARK VINA RESULT:      -8.7      0.000      0.000
REMARK  Name = 
REMARK  9 active torsions:
REMARK  status: ('A' for Active; 'I' for Inactive)
REMARK    1  A    between atoms: C_1  and  C_2
REMARK    2  A    between atoms: C_2  and  C_3
REMARK    3  A    between atoms: C_3  and  C_4
REMARK    4  A    between atoms: C_3  and  S_5
REMARK    5  A    between atoms: S_5  and  C_6
REMARK    6  A    between atoms: C_9  and  C_10
REMARK    7  A    between atoms: C_15  and  C_16
REMARK    8  A    between atoms: C_19  and  N_20
REMARK    9  A    between atoms: N_20  and  C_21
REMARK                            x       y       z     vdW  Elec       q    Type
REMARK                         _______ _______ _______ _____ _____    ______ ____
ROOT
ATOM      1  C   UNL     1       2.758   6.727  18.368  0.00  0.00    +0.000 A 
ATOM      2  N   UNL     1       2.230   7.975  18.057  0.00  0.00    +0.000 NA
ATOM      3  C   UNL     1       1.731   8.465  19.158  0.00  0.00    +0.000 A 
ATOM      4  C   UNL     1       1.194   9.753  19.423  0.00  0.00    +0.000 A 
ATOM      5  C   UNL     1       0.710  10.039  20.648  0.00  0.00    +0.000 A 
ATOM      6  C   UNL     1       0.688   9.038  21.705  0.00  0.00    +0.000 A 
ATOM      7  C   UNL     1       0.052   9.418  23.009  0.00  0.00    +0.000 C 
ATOM      8  C   UNL     1       1.227   7.826  21.455  0.00  0.00    +0.000 A 
ATOM      9  N   UNL     1       1.788   7.545  20.191  0.00  0.00    +0.000 N 
ATOM     10  C   UNL     1       2.495   6.410  19.718  0.00  0.00    +0.000 A 
ENDROOT
BRANCH   1  14
ATOM     11  C   UNL     1       5.724   5.170  15.657  0.00  0.00    +0.000 A 
ATOM     12  C   UNL     1       4.966   4.300  16.427  0.00  0.00    +0.000 A 
ATOM     13  C   UNL     1       3.922   4.778  17.231  0.00  0.00    +0.000 A 
ATOM     14  C   UNL     1       3.576   6.119  17.302  0.00  0.00    +0.000 A 
ATOM     15  C   UNL     1       4.256   6.968  16.410  0.00  0.00    +0.000 A 
ATOM     16  C   UNL     1       5.322   6.507  15.616  0.00  0.00    +0.000 A 
BRANCH  11  17
ATOM     17  S   UNL     1       7.254   4.727  14.846  0.00  0.00    +0.000 S 
BRANCH  17  18
ATOM     18  C   UNL     1       6.742   3.909  13.272  0.00  0.00    +0.000 C 
ATOM     19  C   UNL     1       7.374   4.691  12.117  0.00  0.00    +0.000 C 
BRANCH  18  21
ATOM     20  C   UNL     1       4.649   3.384  11.890  0.00  0.00    +0.000 C 
ATOM     21  C   UNL     1       5.207   3.904  13.206  0.00  0.00    +0.000 C 
ENDBRANCH  18  21
ENDBRANCH  17  18
ENDBRANCH  11  17
ENDBRANCH   1  14
BRANCH  10  22
ATOM     22  N   UNL     1       2.733   5.407  20.636  0.00  0.00    +0.000 N 
ATOM     23  H   UNL     1       3.690   5.097  20.732  0.00  0.00    +0.000 HD
BRANCH  22  24
ATOM     24  C   UNL     1       1.797   4.416  21.159  0.00  0.00    +0.000 C 
ATOM     25  C   UNL     1       0.775   4.034  20.081  0.00  0.00    +0.000 C 
ATOM     26  C   UNL     1       1.383   3.323  18.877  0.00  0.00    +0.000 C 
ATOM     27  C   UNL     1       2.355   2.199  19.216  0.00  0.00    +0.000 C 
ATOM     28  C   UNL     1       3.230   2.423  20.447  0.00  0.00    +0.000 C 
ATOM     29  C   UNL     1       2.523   3.135  21.593  0.00  0.00    +0.000 C 
ENDBRANCH  22  24
ENDBRANCH  10  22
TORSDOF 6
ENDMDL
MODEL 2
REMARK VINA RESULT:      -8.6      1.243      2.145
REMARK  Name = 
REMARK  9 active torsions:
REMARK  status: ('A' for Active; 'I' for Inactive)
REMARK    1  A    between atoms: C_1  and  C_2
REMARK    2  A    between atoms: C_2  and  C_3
REMARK    3  A    between atoms: C_3  and  C_4
REMARK    4  A    between atoms: C_3  and  S_5
REMARK    5  A    between atoms: S_5  and  C_6
REMARK    6  A    between atoms: C_9  and  C_10
REMARK    7  A    between atoms: C_15  and  C_16
REMARK    8  A    between atoms: C_19  and  N_20
REMARK    9  A    between atoms: N_20  and  C_21
REMARK                            x       y       z     vdW  Elec       q    Type
REMARK                         _______ _______ _______ _____ _____    ______ ____
ROOT
ATOM      1  C   UNL     1       3.888   6.083  17.610  0.00  0.00    +0.000 A 
ATOM      2  N   UNL     1       3.328   7.281  17.180  0.00  0.00    +0.000 NA
ATOM      3  C   UNL     1       2.651   7.769  18.183  0.00  0.00    +0.000 A 
ATOM      4  C   UNL     1       1.999   9.023  18.320  0.00  0.00    +0.000 A 
ATOM      5  C   UNL     1       1.333   9.312  19.456  0.00  0.00    +0.000 A 
ATOM      6  C   UNL     1       1.231   8.344  20.540  0.00  0.00    +0.000 A 
ATOM      7  C   UNL     1       0.397   8.719  21.729  0.00  0.00    +0.000 C 
ATOM      8  C   UNL     1       1.877   7.166  20.413  0.00  0.00    +0.000 A 
ATOM      9  N   UNL     1       2.624   6.887  19.250  0.00  0.00    +0.000 N 
ATOM     10  C   UNL     1       3.463   5.790  18.923  0.00  0.00    +0.000 A 
ENDROOT
BRANCH   1  14
ATOM     11  C   UNL     1       6.272   4.456  14.410  0.00  0.00    +0.000 A 
ATOM     12  C   UNL     1       6.554   5.719  14.908  0.00  0.00    +0.000 A 
ATOM     13  C   UNL     1       5.863   6.221  16.020  0.00  0.00    +0.000 A 
ATOM     14  C   UNL     1       4.884   5.502  16.689  0.00  0.00    +0.000 A 
ATOM     15  C   UNL     1       4.710   4.173  16.263  0.00  0.00    +0.000 A 
ATOM     16  C   UNL     1       5.378   3.664  15.134  0.00  0.00    +0.000 A 
BRANCH  11  17
ATOM     17  S   UNL     1       6.855   3.840  12.836  0.00  0.00    +0.000 S 
BRANCH  17  18
ATOM     18  C   UNL     1       5.474   2.799  12.187  0.00  0.00    +0.000 C 
ATOM     19  C   UNL     1       6.077   1.785  11.211  0.00  0.00    +0.000 C 
BRANCH  18  21
ATOM     20  C   UNL     1       3.437   2.988  10.645  0.00  0.00    +0.000 C 
ATOM     21  C   UNL     1       4.446   3.722  11.514  0.00  0.00    +0.000 C 
ENDBRANCH  18  21
ENDBRANCH  17  18
ENDBRANCH  11  17
ENDBRANCH   1  14
BRANCH  10  22
ATOM     22  N   UNL     1       3.637   4.835  19.904  0.00  0.00    +0.000 N 
ATOM     23  H   UNL     1       4.165   5.112  20.719  0.00  0.00    +0.000 HD
BRANCH  22  24
ATOM     24  C   UNL     1       3.582   3.381  19.774  0.00  0.00    +0.000 C 
ATOM     25  C   UNL     1       3.245   2.741  21.127  0.00  0.00    +0.000 C 
ATOM     26  C   UNL     1       1.852   3.088  21.643  0.00  0.00    +0.000 C 
ATOM     27  C   UNL     1       0.734   2.960  20.616  0.00  0.00    +0.000 C 
ATOM     28  C   UNL     1       1.095   3.348  19.185  0.00  0.00    +0.000 C 
ATOM     29  C   UNL     1       2.506   2.950  18.768  0.00  0.00    +0.000 C 
ENDBRANCH  22  24
ENDBRANCH  10  22
TORSDOF 6
ENDMDL
MODEL 3
REMARK VINA RESULT:      -8.6      0.965      1.296
REMARK  Name = 
REMARK  9 active torsions:
REMARK  status: ('A' for Active; 'I' for Inactive)
REMARK    1  A    between atoms: C_1  and  C_2
REMARK    2  A    between atoms: C_2  and  C_3
REMARK    3  A    between atoms: C_3  and  C_4
REMARK    4  A    between atoms: C_3  and  S_5
REMARK    5  A    between atoms: S_5  and  C_6
REMARK    6  A    between atoms: C_9  and  C_10
REMARK    7  A    between atoms: C_15  and  C_16
REMARK    8  A    between atoms: C_19  and  N_20
REMARK    9  A    between atoms: N_20  and  C_21
REMARK                            x       y       z     vdW  Elec       q    Type
REMARK                         _______ _______ _______ _____ _____    ______ ____
ROOT
ATOM      1  C   UNL     1       3.546   6.364  18.131  0.00  0.00    +0.000 A 
ATOM      2  N   UNL     1       3.006   7.550  17.648  0.00  0.00    +0.000 NA
ATOM      3  C   UNL     1       2.274   8.054  18.603  0.00  0.00    +0.000 A 
ATOM      4  C   UNL     1       1.611   9.309  18.680  0.00  0.00    +0.000 A 
ATOM      5  C   UNL     1       0.884   9.617  19.772  0.00  0.00    +0.000 A 
ATOM      6  C   UNL     1       0.728   8.671  20.869  0.00  0.00    +0.000 A 
ATOM      7  C   UNL     1      -0.170   9.065  22.004  0.00  0.00    +0.000 C 
ATOM      8  C   UNL     1       1.385   7.493  20.801  0.00  0.00    +0.000 A 
ATOM      9  N   UNL     1       2.194   7.194  19.685  0.00  0.00    +0.000 N 
ATOM     10  C   UNL     1       3.052   6.095  19.426  0.00  0.00    +0.000 A 
ENDROOT
BRANCH   1  14
ATOM     11  C   UNL     1       6.214   4.907  15.077  0.00  0.00    +0.000 A 
ATOM     12  C   UNL     1       6.606   5.958  15.894  0.00  0.00    +0.000 A 
ATOM     13  C   UNL     1       5.801   6.372  16.963  0.00  0.00    +0.000 A 
ATOM     14  C   UNL     1       4.592   5.769  17.277  0.00  0.00    +0.000 A 
ATOM     15  C   UNL     1       4.278   4.618  16.532  0.00  0.00    +0.000 A 
ATOM     16  C   UNL     1       5.063   4.205  15.441  0.00  0.00    +0.000 A 
BRANCH  11  17
ATOM     17  S   UNL     1       6.993   4.496  13.520  0.00  0.00    +0.000 S 
BRANCH  17  18
ATOM     18  C   UNL     1       5.866   3.264  12.732  0.00  0.00    +0.000 C 
ATOM     19  C   UNL     1       6.711   2.396  11.796  0.00  0.00    +0.000 C 
BRANCH  18  21
ATOM     20  C   UNL     1       3.885   3.141  11.112  0.00  0.00    +0.000 C 
ATOM     21  C   UNL     1       4.759   4.026  11.987  0.00  0.00    +0.000 C 
ENDBRANCH  18  21
ENDBRANCH  17  18
ENDBRANCH  11  17
ENDBRANCH   1  14
BRANCH  10  22
ATOM     22  N   UNL     1       3.177   5.161  20.434  0.00  0.00    +0.000 N 
ATOM     23  H   UNL     1       4.116   4.878  20.677  0.00  0.00    +0.000 HD
BRANCH  22  24
ATOM     24  C   UNL     1       2.191   4.188  20.895  0.00  0.00    +0.000 C 
ATOM     25  C   UNL     1       1.051   4.067  19.876  0.00  0.00    +0.000 C 
ATOM     26  C   UNL     1       1.484   3.498  18.529  0.00  0.00    +0.000 C 
ATOM     27  C   UNL     1       2.362   2.254  18.608  0.00  0.00    +0.000 C 
ATOM     28  C   UNL     1       3.352   2.209  19.769  0.00  0.00    +0.000 C 
ATOM     29  C   UNL     1       2.817   2.797  21.068  0.00  0.00    +0.000 C 
ENDBRANCH  22  24
ENDBRANCH  10  22
TORSDOF 6
ENDMDL
MODEL 4
REMARK VINA RESULT:      -8.4      0.653      1.483
REMARK  Name = 
REMARK  9 active torsions:
REMARK  status: ('A' for Active; 'I' for Inactive)
REMARK    1  A    between atoms: C_1  and  C_2
REMARK    2  A    between atoms: C_2  and  C_3
REMARK    3  A    between atoms: C_3  and  C_4
REMARK    4  A    between atoms: C_3  and  S_5
REMARK    5  A    between atoms: S_5  and  C_6
REMARK    6  A    between atoms: C_9  and  C_10
REMARK    7  A    between atoms: C_15  and  C_16
REMARK    8  A    between atoms: C_19  and  N_20
REMARK    9  A    between atoms: N_20  and  C_21
REMARK                            x       y       z     vdW  Elec       q    Type
REMARK                         _______ _______ _______ _____ _____    ______ ____
ROOT
ATOM      1  C   UNL     1       3.247   6.730  18.360  0.00  0.00    +0.000 A 
ATOM      2  N   UNL     1       2.773   7.958  17.915  0.00  0.00    +0.000 NA
ATOM      3  C   UNL     1       2.074   8.474  18.889  0.00  0.00    +0.000 A 
ATOM      4  C   UNL     1       1.483   9.761  19.006  0.00  0.00    +0.000 A 
ATOM      5  C   UNL     1       0.779  10.077  20.111  0.00  0.00    +0.000 A 
ATOM      6  C   UNL     1       0.574   9.109  21.181  0.00  0.00    +0.000 A 
ATOM      7  C   UNL     1      -0.295   9.520  22.332  0.00  0.00    +0.000 C 
ATOM      8  C   UNL     1       1.164   7.900  21.075  0.00  0.00    +0.000 A 
ATOM      9  N   UNL     1       1.950   7.589  19.946  0.00  0.00    +0.000 N 
ATOM     10  C   UNL     1       2.745   6.451  19.649  0.00  0.00    +0.000 A 
ENDROOT
BRANCH   1  14
ATOM     11  C   UNL     1       5.631   4.480  15.563  0.00  0.00    +0.000 A 
ATOM     12  C   UNL     1       5.316   5.804  15.295  0.00  0.00    +0.000 A 
ATOM     13  C   UNL     1       4.638   6.585  16.241  0.00  0.00    +0.000 A 
ATOM     14  C   UNL     1       4.255   6.103  17.483  0.00  0.00    +0.000 A 
ATOM     15  C   UNL     1       4.706   4.808  17.797  0.00  0.00    +0.000 A 
ATOM     16  C   UNL     1       5.366   4.004  16.849  0.00  0.00    +0.000 A 
BRANCH  11  17
ATOM     17  S   UNL     1       6.208   3.313  14.337  0.00  0.00    +0.000 S 
BRANCH  17  18
ATOM     18  C   UNL     1       5.975   4.167  12.717  0.00  0.00    +0.000 C 
ATOM     19  C   UNL     1       5.008   3.322  11.882  0.00  0.00    +0.000 C 
BRANCH  18  21
ATOM     20  C   UNL     1       8.069   5.610  12.407  0.00  0.00    +0.000 C 
ATOM     21  C   UNL     1       7.350   4.320  12.047  0.00  0.00    +0.000 C 
ENDBRANCH  18  21
ENDBRANCH  17  18
ENDBRANCH  11  17
ENDBRANCH   1  14
BRANCH  10  22
ATOM     22  N   UNL     1       2.821   5.482  20.629  0.00  0.00    +0.000 N 
ATOM     23  H   UNL     1       3.744   5.148  20.867  0.00  0.00    +0.000 HD
BRANCH  22  24
ATOM     24  C   UNL     1       1.789   4.542  21.057  0.00  0.00    +0.000 C 
ATOM     25  C   UNL     1       0.840   4.232  19.892  0.00  0.00    +0.000 C 
ATOM     26  C   UNL     1       1.506   3.499  18.732  0.00  0.00    +0.000 C 
ATOM     27  C   UNL     1       2.379   2.317  19.134  0.00  0.00    +0.000 C 
ATOM     28  C   UNL     1       3.159   2.476  20.437  0.00  0.00    +0.000 C 
ATOM     29  C   UNL     1       2.400   3.217  21.531  0.00  0.00    +0.000 C 
ENDBRANCH  22  24
ENDBRANCH  10  22
TORSDOF 6
ENDMDL
MODEL 5
REMARK VINA RESULT:      -8.2      3.113      7.446
REMARK  Name = 
REMARK  9 active torsions:
REMARK  status: ('A' for Active; 'I' for Inactive)
REMARK    1  A    between atoms: C_1  and  C_2
REMARK    2  A    between atoms: C_2  and  C_3
REMARK    3  A    between atoms: C_3  and  C_4
REMARK    4  A    between atoms: C_3  and  S_5
REMARK    5  A    between atoms: S_5  and  C_6
REMARK    6  A    between atoms: C_9  and  C_10
REMARK    7  A    between atoms: C_15  and  C_16
REMARK    8  A    between atoms: C_19  and  N_20
REMARK    9  A    between atoms: N_20  and  C_21
REMARK                            x       y       z     vdW  Elec       q    Type
REMARK                         _______ _______ _______ _____ _____    ______ ____
ROOT
ATOM      1  C   UNL     1       2.388   6.518  19.698  0.00  0.00    +0.000 A 
ATOM      2  N   UNL     1       1.601   5.657  20.455  0.00  0.00    +0.000 NA
ATOM      3  C   UNL     1       2.287   4.559  20.620  0.00  0.00    +0.000 A 
ATOM      4  C   UNL     1       2.003   3.418  21.418  0.00  0.00    +0.000 A 
ATOM      5  C   UNL     1       2.857   2.375  21.423  0.00  0.00    +0.000 A 
ATOM      6  C   UNL     1       4.054   2.373  20.592  0.00  0.00    +0.000 A 
ATOM      7  C   UNL     1       4.899   1.134  20.596  0.00  0.00    +0.000 C 
ATOM      8  C   UNL     1       4.331   3.473  19.860  0.00  0.00    +0.000 A 
ATOM      9  N   UNL     1       3.469   4.589  19.900  0.00  0.00    +0.000 N 
ATOM     10  C   UNL     1       3.587   5.877  19.319  0.00  0.00    +0.000 A 
ENDROOT
BRANCH   1  14
ATOM     11  C   UNL     1       0.324  10.252  19.089  0.00  0.00    +0.000 A 
ATOM     12  C   UNL     1       0.399   9.703  20.361  0.00  0.00    +0.000 A 
ATOM     13  C   UNL     1       1.159   8.549  20.599  0.00  0.00    +0.000 A 
ATOM     14  C   UNL     1       1.879   7.900  19.607  0.00  0.00    +0.000 A 
ATOM     15  C   UNL     1       1.910   8.547  18.359  0.00  0.00    +0.000 A 
ATOM     16  C   UNL     1       1.133   9.691  18.098  0.00  0.00    +0.000 A 
BRANCH  11  17
ATOM     17  S   UNL     1      -0.842  11.518  18.605  0.00  0.00    +0.000 S 
BRANCH  17  18
ATOM     18  C   UNL     1      -2.379  10.603  18.147  0.00  0.00    +0.000 C 
ATOM     19  C   UNL     1      -2.190  10.061  16.727  0.00  0.00    +0.000 C 
BRANCH  18  21
ATOM     20  C   UNL     1      -4.523  11.503  17.071  0.00  0.00    +0.000 C 
ATOM     21  C   UNL     1      -3.569  11.571  18.253  0.00  0.00    +0.000 C 
ENDBRANCH  18  21
ENDBRANCH  17  18
ENDBRANCH  11  17
ENDBRANCH   1  14
BRANCH  10  22
ATOM     22  N   UNL     1       4.752   6.135  18.625  0.00  0.00    +0.000 N 
ATOM     23  H   UNL     1       5.548   6.434  19.170  0.00  0.00    +0.000 HD
BRANCH  22  24
ATOM     24  C   UNL     1       4.909   6.483  17.216  0.00  0.00    +0.000 C 
ATOM     25  C   UNL     1       6.310   7.056  16.966  0.00  0.00    +0.000 C 
ATOM     26  C   UNL     1       7.437   6.054  17.194  0.00  0.00    +0.000 C 
ATOM     27  C   UNL     1       7.219   4.685  16.561  0.00  0.00    +0.000 C 
ATOM     28  C   UNL     1       5.781   4.173  16.556  0.00  0.00    +0.000 C 
ATOM     29  C   UNL     1       4.735   5.254  16.313  0.00  0.00    +0.000 C 
ENDBRANCH  22  24
ENDBRANCH  10  22
TORSDOF 6
ENDMDL
MODEL 6
REMARK VINA RESULT:      -8.1      0.599      1.138
REMARK  Name = 
REMARK  9 active torsions:
REMARK  status: ('A' for Active; 'I' for Inactive)
REMARK    1  A    between atoms: C_1  and  C_2
REMARK    2  A    between atoms: C_2  and  C_3
REMARK    3  A    between atoms: C_3  and  C_4
REMARK    4  A    between atoms: C_3  and  S_5
REMARK    5  A    between atoms: S_5  and  C_6
REMARK    6  A    between atoms: C_9  and  C_10
REMARK    7  A    between atoms: C_15  and  C_16
REMARK    8  A    between atoms: C_19  and  N_20
REMARK    9  A    between atoms: N_20  and  C_21
REMARK                            x       y       z     vdW  Elec       q    Type
REMARK                         _______ _______ _______ _____ _____    ______ ____
ROOT
ATOM      1  C   UNL     1       2.641   6.768  18.518  0.00  0.00    +0.000 A 
ATOM      2  N   UNL     1       2.155   8.035  18.217  0.00  0.00    +0.000 NA
ATOM      3  C   UNL     1       1.660   8.528  19.319  0.00  0.00    +0.000 A 
ATOM      4  C   UNL     1       1.160   9.829  19.594  0.00  0.00    +0.000 A 
ATOM      5  C   UNL     1       0.673  10.115  20.817  0.00  0.00    +0.000 A 
ATOM      6  C   UNL     1       0.609   9.103  21.862  0.00  0.00    +0.000 A 
ATOM      7  C   UNL     1      -0.028   9.487  23.164  0.00  0.00    +0.000 C 
ATOM      8  C   UNL     1       1.113   7.878  21.602  0.00  0.00    +0.000 A 
ATOM      9  N   UNL     1       1.678   7.594  20.341  0.00  0.00    +0.000 N 
ATOM     10  C   UNL     1       2.354   6.444  19.862  0.00  0.00    +0.000 A 
ENDROOT
BRANCH   1  14
ATOM     11  C   UNL     1       5.578   5.078  15.856  0.00  0.00    +0.000 A 
ATOM     12  C   UNL     1       4.682   4.248  16.515  0.00  0.00    +0.000 A 
ATOM     13  C   UNL     1       3.650   4.784  17.297  0.00  0.00    +0.000 A 
ATOM     14  C   UNL     1       3.451   6.148  17.453  0.00  0.00    +0.000 A 
ATOM     15  C   UNL     1       4.274   6.974  16.667  0.00  0.00    +0.000 A 
ATOM     16  C   UNL     1       5.329   6.452  15.897  0.00  0.00    +0.000 A 
BRANCH  11  17
ATOM     17  S   UNL     1       7.096   4.520  15.095  0.00  0.00    +0.000 S 
BRANCH  17  18
ATOM     18  C   UNL     1       6.900   4.902  13.299  0.00  0.00    +0.000 C 
ATOM     19  C   UNL     1       6.571   3.591  12.580  0.00  0.00    +0.000 C 
BRANCH  18  21
ATOM     20  C   UNL     1       8.059   6.272  11.469  0.00  0.00    +0.000 C 
ATOM     21  C   UNL     1       8.205   5.537  12.793  0.00  0.00    +0.000 C 
ENDBRANCH  18  21
ENDBRANCH  17  18
ENDBRANCH  11  17
ENDBRANCH   1  14
BRANCH  10  22
ATOM     22  N   UNL     1       2.552   5.423  20.770  0.00  0.00    +0.000 N 
ATOM     23  H   UNL     1       3.505   5.117  20.909  0.00  0.00    +0.000 HD
BRANCH  22  24
ATOM     24  C   UNL     1       1.598   4.415  21.223  0.00  0.00    +0.000 C 
ATOM     25  C   UNL     1       0.692   3.985  20.062  0.00  0.00    +0.000 C 
ATOM     26  C   UNL     1       1.430   3.271  18.934  0.00  0.00    +0.000 C 
ATOM     27  C   UNL     1       2.395   2.181  19.386  0.00  0.00    +0.000 C 
ATOM     28  C   UNL     1       3.144   2.451  20.689  0.00  0.00    +0.000 C 
ATOM     29  C   UNL     1       2.313   3.163  21.749  0.00  0.00    +0.000 C 
ENDBRANCH  22  24
ENDBRANCH  10  22
TORSDOF 6
ENDMDL
MODEL 7
REMARK VINA RESULT:      -8.1      2.853      7.333
REMARK  Name = 
REMARK  9 active torsions:
REMARK  status: ('A' for Active; 'I' for Inactive)
REMARK    1  A    between atoms: C_1  and  C_2
REMARK    2  A    between atoms: C_2  and  C_3
REMARK    3  A    between atoms: C_3  and  C_4
REMARK    4  A    between atoms: C_3  and  S_5
REMARK    5  A    between atoms: S_5  and  C_6
REMARK    6  A    between atoms: C_9  and  C_10
REMARK    7  A    between atoms: C_15  and  C_16
REMARK    8  A    between atoms: C_19  and  N_20
REMARK    9  A    between atoms: N_20  and  C_21
REMARK                            x       y       z     vdW  Elec       q    Type
REMARK                         _______ _______ _______ _____ _____    ______ ____
ROOT
ATOM      1  C   UNL     1       2.233   6.744  19.343  0.00  0.00    +0.000 A 
ATOM      2  N   UNL     1       1.781   6.040  20.453  0.00  0.00    +0.000 NA
ATOM      3  C   UNL     1       2.283   4.838  20.373  0.00  0.00    +0.000 A 
ATOM      4  C   UNL     1       2.243   3.768  21.307  0.00  0.00    +0.000 A 
ATOM      5  C   UNL     1       2.823   2.590  21.003  0.00  0.00    +0.000 A 
ATOM      6  C   UNL     1       3.461   2.372  19.711  0.00  0.00    +0.000 A 
ATOM      7  C   UNL     1       4.003   1.003  19.427  0.00  0.00    +0.000 C 
ATOM      8  C   UNL     1       3.520   3.403  18.842  0.00  0.00    +0.000 A 
ATOM      9  N   UNL     1       2.966   4.654  19.183  0.00  0.00    +0.000 N 
ATOM     10  C   UNL     1       2.989   5.899  18.504  0.00  0.00    +0.000 A 
ENDROOT
BRANCH   1  14
ATOM     11  C   UNL     1       0.862  10.818  19.029  0.00  0.00    +0.000 A 
ATOM     12  C   UNL     1       0.720  10.131  20.226  0.00  0.00    +0.000 A 
ATOM     13  C   UNL     1       1.259   8.846  20.383  0.00  0.00    +0.000 A 
ATOM     14  C   UNL     1       1.962   8.195  19.381  0.00  0.00    +0.000 A 
ATOM     15  C   UNL     1       2.221   8.957  18.228  0.00  0.00    +0.000 A 
ATOM     16  C   UNL     1       1.667  10.237  18.047  0.00  0.00    +0.000 A 
BRANCH  11  17
ATOM     17  S   UNL     1      -0.032  12.309  18.611  0.00  0.00    +0.000 S 
BRANCH  17  18
ATOM     18  C   UNL     1      -1.751  11.746  18.237  0.00  0.00    +0.000 C 
ATOM     19  C   UNL     1      -2.603  12.002  19.483  0.00  0.00    +0.000 C 
BRANCH  18  21
ATOM     20  C   UNL     1      -2.397   9.939  16.540  0.00  0.00    +0.000 C 
ATOM     21  C   UNL     1      -1.702  10.259  17.854  0.00  0.00    +0.000 C 
ENDBRANCH  18  21
ENDBRANCH  17  18
ENDBRANCH  11  17
ENDBRANCH   1  14
BRANCH  10  22
ATOM     22  N   UNL     1       3.705   5.943  17.324  0.00  0.00    +0.000 N 
ATOM     23  H   UNL     1       3.593   5.160  16.696  0.00  0.00    +0.000 HD
BRANCH  22  24
ATOM     24  C   UNL     1       4.924   6.691  17.031  0.00  0.00    +0.000 C 
ATOM     25  C   UNL     1       6.091   6.149  17.866  0.00  0.00    +0.000 C 
ATOM     26  C   UNL     1       6.483   4.716  17.521  0.00  0.00    +0.000 C 
ATOM     27  C   UNL     1       6.616   4.425  16.031  0.00  0.00    +0.000 C 
ATOM     28  C   UNL     1       5.627   5.148  15.119  0.00  0.00    +0.000 C 
ATOM     29  C   UNL     1       5.310   6.574  15.550  0.00  0.00    +0.000 C 
ENDBRANCH  22  24
ENDBRANCH  10  22
TORSDOF 6
ENDMDL
MODEL 8
REMARK VINA RESULT:      -8.0      3.710      6.434
REMARK  Name = 
REMARK  9 active torsions:
REMARK  status: ('A' for Active; 'I' for Inactive)
REMARK    1  A    between atoms: C_1  and  C_2
REMARK    2  A    between atoms: C_2  and  C_3
REMARK    3  A    between atoms: C_3  and  C_4
REMARK    4  A    between atoms: C_3  and  S_5
REMARK    5  A    between atoms: S_5  and  C_6
REMARK    6  A    between atoms: C_9  and  C_10
REMARK    7  A    between atoms: C_15  and  C_16
REMARK    8  A    between atoms: C_19  and  N_20
REMARK    9  A    between atoms: N_20  and  C_21
REMARK                            x       y       z     vdW  Elec       q    Type
REMARK                         _______ _______ _______ _____ _____    ______ ____
ROOT
ATOM      1  C   UNL     1       0.483  10.168  19.617  0.00  0.00    +0.000 A 
ATOM      2  N   UNL     1       0.555  10.554  20.951  0.00  0.00    +0.000 NA
ATOM      3  C   UNL     1      -0.502  11.278  21.197  0.00  0.00    +0.000 A 
ATOM      4  C   UNL     1      -0.981  11.807  22.425  0.00  0.00    +0.000 A 
ATOM      5  C   UNL     1      -2.102  12.555  22.442  0.00  0.00    +0.000 A 
ATOM      6  C   UNL     1      -2.821  12.868  21.214  0.00  0.00    +0.000 A 
ATOM      7  C   UNL     1      -4.009  13.777  21.318  0.00  0.00    +0.000 C 
ATOM      8  C   UNL     1      -2.377  12.336  20.055  0.00  0.00    +0.000 A 
ATOM      9  N   UNL     1      -1.237  11.505  20.045  0.00  0.00    +0.000 N 
ATOM     10  C   UNL     1      -0.641  10.755  18.999  0.00  0.00    +0.000 A 
ENDROOT
BRANCH   1  14
ATOM     11  C   UNL     1       2.781   6.751  18.348  0.00  0.00    +0.000 A 
ATOM     12  C   UNL     1       2.647   7.845  17.505  0.00  0.00    +0.000 A 
ATOM     13  C   UNL     1       1.999   9.009  17.941  0.00  0.00    +0.000 A 
ATOM     14  C   UNL     1       1.471   9.147  19.216  0.00  0.00    +0.000 A 
ATOM     15  C   UNL     1       1.740   8.089  20.102  0.00  0.00    +0.000 A 
ATOM     16  C   UNL     1       2.367   6.905  19.672  0.00  0.00    +0.000 A 
BRANCH  11  17
ATOM     17  S   UNL     1       3.303   5.126  17.813  0.00  0.00    +0.000 S 
BRANCH  17  18
ATOM     18  C   UNL     1       4.853   5.413  16.852  0.00  0.00    +0.000 C 
ATOM     19  C   UNL     1       5.239   4.088  16.188  0.00  0.00    +0.000 C 
BRANCH  18  21
ATOM     20  C   UNL     1       5.948   5.209  19.160  0.00  0.00    +0.000 C 
ATOM     21  C   UNL     1       5.935   5.924  17.817  0.00  0.00    +0.000 C 
ENDBRANCH  18  21
ENDBRANCH  17  18
ENDBRANCH  11  17
ENDBRANCH   1  14
BRANCH  10  22
ATOM     22  N   UNL     1      -1.285  10.783  17.778  0.00  0.00    +0.000 N 
ATOM     23  H   UNL     1      -1.534  11.693  17.417  0.00  0.00    +0.000 HD
BRANCH  22  24
ATOM     24  C   UNL     1      -2.062   9.726  17.139  0.00  0.00    +0.000 C 
ATOM     25  C   UNL     1      -3.373   9.497  17.903  0.00  0.00    +0.000 C 
ATOM     26  C   UNL     1      -4.325  10.687  17.866  0.00  0.00    +0.000 C 
ATOM     27  C   UNL     1      -4.527  11.307  16.488  0.00  0.00    +0.000 C 
ATOM     28  C   UNL     1      -3.300  11.330  15.580  0.00  0.00    +0.000 C 
ATOM     29  C   UNL     1      -2.419  10.091  15.692  0.00  0.00    +0.000 C 
ENDBRANCH  22  24
ENDBRANCH  10  22
TORSDOF 6
ENDMDL
MODEL 9
REMARK VINA RESULT:      -8.0      4.067      7.200
REMARK  Name = 
REMARK  9 active torsions:
REMARK  status: ('A' for Active; 'I' for Inactive)
REMARK    1  A    between atoms: C_1  and  C_2
REMARK    2  A    between atoms: C_2  and  C_3
REMARK    3  A    between atoms: C_3  and  C_4
REMARK    4  A    between atoms: C_3  and  S_5
REMARK    5  A    between atoms: S_5  and  C_6
REMARK    6  A    between atoms: C_9  and  C_10
REMARK    7  A    between atoms: C_15  and  C_16
REMARK    8  A    between atoms: C_19  and  N_20
REMARK    9  A    between atoms: N_20  and  C_21
REMARK                            x       y       z     vdW  Elec       q    Type
REMARK                         _______ _______ _______ _____ _____    ______ ____
ROOT
ATOM      1  C   UNL     1       0.924  10.874  18.713  0.00  0.00    +0.000 A 
ATOM      2  N   UNL     1       2.023  11.720  18.813  0.00  0.00    +0.000 NA
ATOM      3  C   UNL     1       1.563  12.940  18.855  0.00  0.00    +0.000 A 
ATOM      4  C   UNL     1       2.245  14.165  19.084  0.00  0.00    +0.000 A 
ATOM      5  C   UNL     1       1.562  15.327  19.064  0.00  0.00    +0.000 A 
ATOM      6  C   UNL     1       0.135  15.361  18.772  0.00  0.00    +0.000 A 
ATOM      7  C   UNL     1      -0.525  16.705  18.686  0.00  0.00    +0.000 C 
ATOM      8  C   UNL     1      -0.511  14.190  18.586  0.00  0.00    +0.000 A 
ATOM      9  N   UNL     1       0.192  12.970  18.665  0.00  0.00    +0.000 N 
ATOM     10  C   UNL     1      -0.264  11.628  18.612  0.00  0.00    +0.000 A 
ENDROOT
BRANCH   1  14
ATOM     11  C   UNL     1       2.521   6.909  19.262  0.00  0.00    +0.000 A 
ATOM     12  C   UNL     1       1.839   7.529  20.299  0.00  0.00    +0.000 A 
ATOM     13  C   UNL     1       1.217   8.770  20.105  0.00  0.00    +0.000 A 
ATOM     14  C   UNL     1       1.230   9.441  18.892  0.00  0.00    +0.000 A 
ATOM     15  C   UNL     1       1.800   8.737  17.816  0.00  0.00    +0.000 A 
ATOM     16  C   UNL     1       2.449   7.502  18.000  0.00  0.00    +0.000 A 
BRANCH  11  17
ATOM     17  S   UNL     1       3.601   5.498  19.468  0.00  0.00    +0.000 S 
BRANCH  17  18
ATOM     18  C   UNL     1       2.509   4.025  19.252  0.00  0.00    +0.000 C 
ATOM     19  C   UNL     1       1.827   4.150  17.886  0.00  0.00    +0.000 C 
BRANCH  18  21
ATOM     20  C   UNL     1       2.015   3.289  21.656  0.00  0.00    +0.000 C 
ATOM     21  C   UNL     1       1.500   3.995  20.411  0.00  0.00    +0.000 C 
ENDBRANCH  18  21
ENDBRANCH  17  18
ENDBRANCH  11  17
ENDBRANCH   1  14
BRANCH  10  22
ATOM     22  N   UNL     1      -1.629  11.445  18.512  0.00  0.00    +0.000 N 
ATOM     23  H   UNL     1      -2.212  12.091  19.025  0.00  0.00    +0.000 HD
BRANCH  22  24
ATOM     24  C   UNL     1      -2.358  10.228  18.166  0.00  0.00    +0.000 C 
ATOM     25  C   UNL     1      -3.865  10.444  18.349  0.00  0.00    +0.000 C 
ATOM     26  C   UNL     1      -4.461  11.477  17.398  0.00  0.00    +0.000 C 
ATOM     27  C   UNL     1      -4.042  11.327  15.940  0.00  0.00    +0.000 C 
ATOM     28  C   UNL     1      -2.607  10.862  15.703  0.00  0.00    +0.000 C 
ATOM     29  C   UNL     1      -2.114   9.826  16.705  0.00  0.00    +0.000 C 
ENDBRANCH  22  24
ENDBRANCH  10  22
TORSDOF 6
ENDMDL
