MODEL 1
REMARK VINA RESULT:      -8.1      0.000      0.000
REMARK  Name = 
REMARK  2 active torsions:
REMARK  status: ('A' for Active; 'I' for Inactive)
REMARK    1  A    between atoms: N_7  and  C_8
REMARK    2  A    between atoms: C_8  and  C_9
REMARK                            x       y       z     vdW  Elec       q    Type
REMARK                         _______ _______ _______ _____ _____    ______ ____
ROOT
ATOM      1  O   UNL     1       1.901   7.144  19.606  0.00  0.00    +0.000 OA
ATOM      2  C   UNL     1       2.768   6.275  19.630  0.00  0.00    +0.000 C 
ATOM      3  C   UNL     1       4.201   6.558  19.278  0.00  0.00    +0.000 C 
ATOM      4  C   UNL     1       4.860   5.304  18.692  0.00  0.00    +0.000 C 
ATOM      5  C   UNL     1       4.236   4.889  17.337  0.00  0.00    +0.000 C 
ATOM      6  C   UNL     1       5.042   3.772  16.678  0.00  0.00    +0.000 C 
ATOM      7  N   UNL     1       6.436   4.153  16.423  0.00  0.00    +0.000 NA
ATOM      8  C   UNL     1       7.088   4.499  17.694  0.00  0.00    +0.000 C 
ATOM      9  C   UNL     1       6.366   5.593  18.492  0.00  0.00    +0.000 C 
ATOM     10  O   UNL     1       4.767   4.219  19.642  0.00  0.00    +0.000 OA
ATOM     11  C   UNL     1       3.490   3.953  20.063  0.00  0.00    +0.000 A 
ATOM     12  C   UNL     1       3.228   2.650  20.479  0.00  0.00    +0.000 A 
ATOM     13  C   UNL     1       1.930   2.284  20.843  0.00  0.00    +0.000 A 
ATOM     14  C   UNL     1       0.898   3.225  20.811  0.00  0.00    +0.000 A 
ATOM     15  C   UNL     1       1.163   4.539  20.426  0.00  0.00    +0.000 A 
ATOM     16  C   UNL     1       2.462   4.899  20.059  0.00  0.00    +0.000 A 
ENDROOT
BRANCH   7  17
ATOM     17  C   UNL     1       6.590   5.215  15.410  0.00  0.00    +0.000 C 
BRANCH  17  18
ATOM     18  C   UNL     1       6.652   4.707  13.985  0.00  0.00    +0.000 A 
ATOM     19  C   UNL     1       5.769   3.707  13.543  0.00  0.00    +0.000 A 
ATOM     20  C   UNL     1       5.855   3.211  12.241  0.00  0.00    +0.000 A 
ATOM     21  C   UNL     1       6.816   3.712  11.366  0.00  0.00    +0.000 A 
ATOM     22  C   UNL     1       7.689   4.713  11.789  0.00  0.00    +0.000 A 
ATOM     23  C   UNL     1       7.607   5.207  13.091  0.00  0.00    +0.000 A 
ENDBRANCH  17  18
ENDBRANCH   7  17
TORSDOF 2
ENDMDL
MODEL 2
REMARK VINA RESULT:      -8.0      0.182      1.022
REMARK  Name = 
REMARK  2 active torsions:
REMARK  status: ('A' for Active; 'I' for Inactive)
REMARK    1  A    between atoms: N_7  and  C_8
REMARK    2  A    between atoms: C_8  and  C_9
REMARK                            x       y       z     vdW  Elec       q    Type
REMARK                         _______ _______ _______ _____ _____    ______ ____
ROOT
ATOM      1  O   UNL     1       1.733   7.175  19.288  0.00  0.00    +0.000 OA
ATOM      2  C   UNL     1       2.628   6.342  19.394  0.00  0.00    +0.000 C 
ATOM      3  C   UNL     1       4.067   6.667  19.107  0.00  0.00    +0.000 C 
ATOM      4  C   UNL     1       4.803   5.416  18.610  0.00  0.00    +0.000 C 
ATOM      5  C   UNL     1       4.269   4.923  17.244  0.00  0.00    +0.000 C 
ATOM      6  C   UNL     1       5.150   3.813  16.675  0.00  0.00    +0.000 C 
ATOM      7  N   UNL     1       6.541   4.237  16.479  0.00  0.00    +0.000 NA
ATOM      8  C   UNL     1       7.110   4.659  17.767  0.00  0.00    +0.000 C 
ATOM      9  C   UNL     1       6.306   5.756  18.479  0.00  0.00    +0.000 C 
ATOM     10  O   UNL     1       4.698   4.367  19.599  0.00  0.00    +0.000 OA
ATOM     11  C   UNL     1       3.410   4.069  19.963  0.00  0.00    +0.000 A 
ATOM     12  C   UNL     1       3.174   2.775  20.419  0.00  0.00    +0.000 A 
ATOM     13  C   UNL     1       1.872   2.374  20.729  0.00  0.00    +0.000 A 
ATOM     14  C   UNL     1       0.809   3.272  20.603  0.00  0.00    +0.000 A 
ATOM     15  C   UNL     1       1.047   4.579  20.177  0.00  0.00    +0.000 A 
ATOM     16  C   UNL     1       2.350   4.974  19.864  0.00  0.00    +0.000 A 
ENDROOT
BRANCH   7  17
ATOM     17  C   UNL     1       6.711   5.263  15.432  0.00  0.00    +0.000 C 
BRANCH  17  18
ATOM     18  C   UNL     1       6.752   4.708  14.023  0.00  0.00    +0.000 A 
ATOM     19  C   UNL     1       7.643   5.233  13.072  0.00  0.00    +0.000 A 
ATOM     20  C   UNL     1       7.650   4.747  11.764  0.00  0.00    +0.000 A 
ATOM     21  C   UNL     1       6.776   3.728  11.393  0.00  0.00    +0.000 A 
ATOM     22  C   UNL     1       5.896   3.190  12.331  0.00  0.00    +0.000 A 
ATOM     23  C   UNL     1       5.884   3.677  13.639  0.00  0.00    +0.000 A 
ENDBRANCH  17  18
ENDBRANCH   7  17
TORSDOF 2
ENDMDL
MODEL 3
REMARK VINA RESULT:      -7.9      0.999      1.160
REMARK  Name = 
REMARK  2 active torsions:
REMARK  status: ('A' for Active; 'I' for Inactive)
REMARK    1  A    between atoms: N_7  and  C_8
REMARK    2  A    between atoms: C_8  and  C_9
REMARK                            x       y       z     vdW  Elec       q    Type
REMARK                         _______ _______ _______ _____ _____    ______ ____
ROOT
ATOM      1  O   UNL     1       1.982   7.234  18.440  0.00  0.00    +0.000 OA
ATOM      2  C   UNL     1       2.918   6.458  18.613  0.00  0.00    +0.000 C 
ATOM      3  C   UNL     1       4.309   6.754  18.126  0.00  0.00    +0.000 C 
ATOM      4  C   UNL     1       5.047   5.448  17.807  0.00  0.00    +0.000 C 
ATOM      5  C   UNL     1       4.407   4.686  16.620  0.00  0.00    +0.000 C 
ATOM      6  C   UNL     1       5.277   3.507  16.189  0.00  0.00    +0.000 C 
ATOM      7  N   UNL     1       6.625   3.917  15.776  0.00  0.00    +0.000 NA
ATOM      8  C   UNL     1       7.294   4.595  16.896  0.00  0.00    +0.000 C 
ATOM      9  C   UNL     1       6.515   5.790  17.462  0.00  0.00    +0.000 C 
ATOM     10  O   UNL     1       5.079   4.610  18.984  0.00  0.00    +0.000 OA
ATOM     11  C   UNL     1       3.845   4.358  19.525  0.00  0.00    +0.000 A 
ATOM     12  C   UNL     1       3.708   3.172  20.242  0.00  0.00    +0.000 A 
ATOM     13  C   UNL     1       2.460   2.809  20.753  0.00  0.00    +0.000 A 
ATOM     14  C   UNL     1       1.353   3.641  20.565  0.00  0.00    +0.000 A 
ATOM     15  C   UNL     1       1.494   4.845  19.874  0.00  0.00    +0.000 A 
ATOM     16  C   UNL     1       2.744   5.202  19.362  0.00  0.00    +0.000 A 
ENDROOT
BRANCH   7  17
ATOM     17  C   UNL     1       6.651   4.723  14.540  0.00  0.00    +0.000 C 
BRANCH  17  18
ATOM     18  C   UNL     1       6.227   3.966  13.300  0.00  0.00    +0.000 A 
ATOM     19  C   UNL     1       4.878   3.933  12.908  0.00  0.00    +0.000 A 
ATOM     20  C   UNL     1       4.483   3.200  11.787  0.00  0.00    +0.000 A 
ATOM     21  C   UNL     1       5.430   2.502  11.041  0.00  0.00    +0.000 A 
ATOM     22  C   UNL     1       6.774   2.537  11.413  0.00  0.00    +0.000 A 
ATOM     23  C   UNL     1       7.169   3.266  12.536  0.00  0.00    +0.000 A 
ENDBRANCH  17  18
ENDBRANCH   7  17
TORSDOF 2
ENDMDL
MODEL 4
REMARK VINA RESULT:      -7.8      0.955      1.353
REMARK  Name = 
REMARK  2 active torsions:
REMARK  status: ('A' for Active; 'I' for Inactive)
REMARK    1  A    between atoms: N_7  and  C_8
REMARK    2  A    between atoms: C_8  and  C_9
REMARK                            x       y       z     vdW  Elec       q    Type
REMARK                         _______ _______ _______ _____ _____    ______ ____
ROOT
ATOM      1  O   UNL     1       1.836   7.087  18.552  0.00  0.00    +0.000 OA
ATOM      2  C   UNL     1       2.802   6.347  18.716  0.00  0.00    +0.000 C 
ATOM      3  C   UNL     1       4.173   6.689  18.205  0.00  0.00    +0.000 C 
ATOM      4  C   UNL     1       4.953   5.408  17.882  0.00  0.00    +0.000 C 
ATOM      5  C   UNL     1       4.323   4.616  16.711  0.00  0.00    +0.000 C 
ATOM      6  C   UNL     1       5.228   3.466  16.274  0.00  0.00    +0.000 C 
ATOM      7  N   UNL     1       6.553   3.921  15.838  0.00  0.00    +0.000 NA
ATOM      8  C   UNL     1       7.215   4.630  16.942  0.00  0.00    +0.000 C 
ATOM      9  C   UNL     1       6.402   5.801  17.513  0.00  0.00    +0.000 C 
ATOM     10  O   UNL     1       5.033   4.580  19.064  0.00  0.00    +0.000 OA
ATOM     11  C   UNL     1       3.818   4.288  19.626  0.00  0.00    +0.000 A 
ATOM     12  C   UNL     1       3.734   3.103  20.353  0.00  0.00    +0.000 A 
ATOM     13  C   UNL     1       2.507   2.699  20.885  0.00  0.00    +0.000 A 
ATOM     14  C   UNL     1       1.369   3.489  20.709  0.00  0.00    +0.000 A 
ATOM     15  C   UNL     1       1.456   4.692  20.009  0.00  0.00    +0.000 A 
ATOM     16  C   UNL     1       2.684   5.091  19.475  0.00  0.00    +0.000 A 
ENDROOT
BRANCH   7  17
ATOM     17  C   UNL     1       6.532   4.719  14.596  0.00  0.00    +0.000 C 
BRANCH  17  18
ATOM     18  C   UNL     1       6.143   3.932  13.363  0.00  0.00    +0.000 A 
ATOM     19  C   UNL     1       7.114   3.243  12.617  0.00  0.00    +0.000 A 
ATOM     20  C   UNL     1       6.759   2.552  11.457  0.00  0.00    +0.000 A 
ATOM     21  C   UNL     1       5.432   2.535  11.034  0.00  0.00    +0.000 A 
ATOM     22  C   UNL     1       4.457   3.204  11.773  0.00  0.00    +0.000 A 
ATOM     23  C   UNL     1       4.811   3.899  12.930  0.00  0.00    +0.000 A 
ENDBRANCH  17  18
ENDBRANCH   7  17
TORSDOF 2
ENDMDL
MODEL 5
REMARK VINA RESULT:      -7.4      1.411      2.041
REMARK  Name = 
REMARK  2 active torsions:
REMARK  status: ('A' for Active; 'I' for Inactive)
REMARK    1  A    between atoms: N_7  and  C_8
REMARK    2  A    between atoms: C_8  and  C_9
REMARK                            x       y       z     vdW  Elec       q    Type
REMARK                         _______ _______ _______ _____ _____    ______ ____
ROOT
ATOM      1  O   UNL     1       2.919   8.305  17.718  0.00  0.00    +0.000 OA
ATOM      2  C   UNL     1       3.701   7.386  17.943  0.00  0.00    +0.000 C 
ATOM      3  C   UNL     1       5.078   7.336  17.343  0.00  0.00    +0.000 C 
ATOM      4  C   UNL     1       5.525   5.880  17.165  0.00  0.00    +0.000 C 
ATOM      5  C   UNL     1       4.658   5.120  16.132  0.00  0.00    +0.000 C 
ATOM      6  C   UNL     1       5.250   3.747  15.820  0.00  0.00    +0.000 C 
ATOM      7  N   UNL     1       6.612   3.826  15.279  0.00  0.00    +0.000 NA
ATOM      8  C   UNL     1       7.487   4.490  16.256  0.00  0.00    +0.000 C 
ATOM      9  C   UNL     1       6.999   5.877  16.695  0.00  0.00    +0.000 C 
ATOM     10  O   UNL     1       5.494   5.204  18.443  0.00  0.00    +0.000 OA
ATOM     11  C   UNL     1       4.283   5.273  19.081  0.00  0.00    +0.000 A 
ATOM     12  C   UNL     1       3.982   4.236  19.961  0.00  0.00    +0.000 A 
ATOM     13  C   UNL     1       2.733   4.195  20.586  0.00  0.00    +0.000 A 
ATOM     14  C   UNL     1       1.793   5.201  20.347  0.00  0.00    +0.000 A 
ATOM     15  C   UNL     1       2.104   6.257  19.491  0.00  0.00    +0.000 A 
ATOM     16  C   UNL     1       3.353   6.292  18.866  0.00  0.00    +0.000 A 
ENDROOT
BRANCH   7  17
ATOM     17  C   UNL     1       6.690   4.451  13.945  0.00  0.00    +0.000 C 
BRANCH  17  18
ATOM     18  C   UNL     1       6.016   3.654  12.848  0.00  0.00    +0.000 A 
ATOM     19  C   UNL     1       4.728   3.995  12.404  0.00  0.00    +0.000 A 
ATOM     20  C   UNL     1       4.092   3.234  11.421  0.00  0.00    +0.000 A 
ATOM     21  C   UNL     1       4.737   2.131  10.868  0.00  0.00    +0.000 A 
ATOM     22  C   UNL     1       6.021   1.789  11.291  0.00  0.00    +0.000 A 
ATOM     23  C   UNL     1       6.657   2.547  12.276  0.00  0.00    +0.000 A 
ENDBRANCH  17  18
ENDBRANCH   7  17
TORSDOF 2
ENDMDL
MODEL 6
REMARK VINA RESULT:      -7.3      3.977      7.560
REMARK  Name = 
REMARK  2 active torsions:
REMARK  status: ('A' for Active; 'I' for Inactive)
REMARK    1  A    between atoms: N_7  and  C_8
REMARK    2  A    between atoms: C_8  and  C_9
REMARK                            x       y       z     vdW  Elec       q    Type
REMARK                         _______ _______ _______ _____ _____    ______ ____
ROOT
ATOM      1  O   UNL     1       2.179   3.145  16.853  0.00  0.00    +0.000 OA
ATOM      2  C   UNL     1       2.661   3.926  17.669  0.00  0.00    +0.000 C 
ATOM      3  C   UNL     1       1.867   4.483  18.816  0.00  0.00    +0.000 C 
ATOM      4  C   UNL     1       2.390   5.874  19.196  0.00  0.00    +0.000 C 
ATOM      5  C   UNL     1       2.168   6.913  18.070  0.00  0.00    +0.000 C 
ATOM      6  C   UNL     1       2.503   8.325  18.549  0.00  0.00    +0.000 C 
ATOM      7  N   UNL     1       1.691   8.740  19.700  0.00  0.00    +0.000 NA
ATOM      8  C   UNL     1       1.916   7.812  20.817  0.00  0.00    +0.000 C 
ATOM      9  C   UNL     1       1.652   6.339  20.473  0.00  0.00    +0.000 C 
ATOM     10  O   UNL     1       3.793   5.789  19.532  0.00  0.00    +0.000 OA
ATOM     11  C   UNL     1       4.568   5.221  18.555  0.00  0.00    +0.000 A 
ATOM     12  C   UNL     1       5.907   5.603  18.520  0.00  0.00    +0.000 A 
ATOM     13  C   UNL     1       6.739   5.129  17.503  0.00  0.00    +0.000 A 
ATOM     14  C   UNL     1       6.238   4.258  16.532  0.00  0.00    +0.000 A 
ATOM     15  C   UNL     1       4.906   3.848  16.583  0.00  0.00    +0.000 A 
ATOM     16  C   UNL     1       4.077   4.327  17.601  0.00  0.00    +0.000 A 
ENDROOT
BRANCH   7  17
ATOM     17  C   UNL     1       0.258   8.905  19.391  0.00  0.00    +0.000 C 
BRANCH  17  18
ATOM     18  C   UNL     1      -0.134  10.316  19.006  0.00  0.00    +0.000 A 
ATOM     19  C   UNL     1      -1.274  10.554  18.222  0.00  0.00    +0.000 A 
ATOM     20  C   UNL     1      -1.610  11.852  17.834  0.00  0.00    +0.000 A 
ATOM     21  C   UNL     1      -0.817  12.926  18.231  0.00  0.00    +0.000 A 
ATOM     22  C   UNL     1       0.311  12.704  19.021  0.00  0.00    +0.000 A 
ATOM     23  C   UNL     1       0.650  11.406  19.407  0.00  0.00    +0.000 A 
ENDBRANCH  17  18
ENDBRANCH   7  17
TORSDOF 2
ENDMDL
MODEL 7
REMARK VINA RESULT:      -7.1      3.986      7.720
REMARK  Name = 
REMARK  2 active torsions:
REMARK  status: ('A' for Active; 'I' for Inactive)
REMARK    1  A    between atoms: N_7  and  C_8
REMARK    2  A    between atoms: C_8  and  C_9
REMARK                            x       y       z     vdW  Elec       q    Type
REMARK                         _______ _______ _______ _____ _____    ______ ____
ROOT
ATOM      1  O   UNL     1       2.215   3.198  16.731  0.00  0.00    +0.000 OA
ATOM      2  C   UNL     1       2.690   3.960  17.568  0.00  0.00    +0.000 C 
ATOM      3  C   UNL     1       1.893   4.475  18.732  0.00  0.00    +0.000 C 
ATOM      4  C   UNL     1       2.400   5.861  19.151  0.00  0.00    +0.000 C 
ATOM      5  C   UNL     1       2.163   6.929  18.056  0.00  0.00    +0.000 C 
ATOM      6  C   UNL     1       2.482   8.330  18.575  0.00  0.00    +0.000 C 
ATOM      7  N   UNL     1       1.669   8.702  19.739  0.00  0.00    +0.000 NA
ATOM      8  C   UNL     1       1.908   7.745  20.829  0.00  0.00    +0.000 C 
ATOM      9  C   UNL     1       1.661   6.280  20.443  0.00  0.00    +0.000 C 
ATOM     10  O   UNL     1       3.805   5.782  19.482  0.00  0.00    +0.000 OA
ATOM     11  C   UNL     1       4.584   5.252  18.486  0.00  0.00    +0.000 A 
ATOM     12  C   UNL     1       5.919   5.651  18.459  0.00  0.00    +0.000 A 
ATOM     13  C   UNL     1       6.753   5.217  17.426  0.00  0.00    +0.000 A 
ATOM     14  C   UNL     1       6.260   4.368  16.432  0.00  0.00    +0.000 A 
ATOM     15  C   UNL     1       4.932   3.941  16.475  0.00  0.00    +0.000 A 
ATOM     16  C   UNL     1       4.101   4.381  17.508  0.00  0.00    +0.000 A 
ENDROOT
BRANCH   7  17
ATOM     17  C   UNL     1       0.233   8.858  19.440  0.00  0.00    +0.000 C 
BRANCH  17  18
ATOM     18  C   UNL     1      -0.192  10.288  19.177  0.00  0.00    +0.000 A 
ATOM     19  C   UNL     1       0.318  11.341  19.956  0.00  0.00    +0.000 A 
ATOM     20  C   UNL     1      -0.107  12.653  19.738  0.00  0.00    +0.000 A 
ATOM     21  C   UNL     1      -1.036  12.929  18.738  0.00  0.00    +0.000 A 
ATOM     22  C   UNL     1      -1.539  11.894  17.950  0.00  0.00    +0.000 A 
ATOM     23  C   UNL     1      -1.119  10.581  18.169  0.00  0.00    +0.000 A 
ENDBRANCH  17  18
ENDBRANCH   7  17
TORSDOF 2
ENDMDL
MODEL 8
REMARK VINA RESULT:      -7.0      3.927      8.257
REMARK  Name = 
REMARK  2 active torsions:
REMARK  status: ('A' for Active; 'I' for Inactive)
REMARK    1  A    between atoms: N_7  and  C_8
REMARK    2  A    between atoms: C_8  and  C_9
REMARK                            x       y       z     vdW  Elec       q    Type
REMARK                         _______ _______ _______ _____ _____    ______ ____
ROOT
ATOM      1  O   UNL     1       1.914   3.198  16.897  0.00  0.00    +0.000 OA
ATOM      2  C   UNL     1       2.464   3.927  17.718  0.00  0.00    +0.000 C 
ATOM      3  C   UNL     1       1.756   4.442  18.939  0.00  0.00    +0.000 C 
ATOM      4  C   UNL     1       2.333   5.801  19.352  0.00  0.00    +0.000 C 
ATOM      5  C   UNL     1       2.066   6.900  18.295  0.00  0.00    +0.000 C 
ATOM      6  C   UNL     1       2.461   8.278  18.820  0.00  0.00    +0.000 C 
ATOM      7  N   UNL     1       1.733   8.651  20.039  0.00  0.00    +0.000 NA
ATOM      8  C   UNL     1       2.007   7.664  21.093  0.00  0.00    +0.000 C 
ATOM      9  C   UNL     1       1.688   6.216  20.695  0.00  0.00    +0.000 C 
ATOM     10  O   UNL     1       3.752   5.672  19.594  0.00  0.00    +0.000 OA
ATOM     11  C   UNL     1       4.452   5.138  18.543  0.00  0.00    +0.000 A 
ATOM     12  C   UNL     1       5.795   5.496  18.441  0.00  0.00    +0.000 A 
ATOM     13  C   UNL     1       6.550   5.057  17.351  0.00  0.00    +0.000 A 
ATOM     14  C   UNL     1       5.970   4.245  16.373  0.00  0.00    +0.000 A 
ATOM     15  C   UNL     1       4.634   3.860  16.489  0.00  0.00    +0.000 A 
ATOM     16  C   UNL     1       3.882   4.304  17.579  0.00  0.00    +0.000 A 
ENDROOT
BRANCH   7  17
ATOM     17  C   UNL     1       0.287   8.859  19.831  0.00  0.00    +0.000 C 
BRANCH  17  18
ATOM     18  C   UNL     1      -0.325   9.900  20.745  0.00  0.00    +0.000 A 
ATOM     19  C   UNL     1      -0.349   9.705  22.136  0.00  0.00    +0.000 A 
ATOM     20  C   UNL     1      -0.951  10.647  22.973  0.00  0.00    +0.000 A 
ATOM     21  C   UNL     1      -1.527  11.794  22.432  0.00  0.00    +0.000 A 
ATOM     22  C   UNL     1      -1.498  12.004  21.054  0.00  0.00    +0.000 A 
ATOM     23  C   UNL     1      -0.901  11.062  20.215  0.00  0.00    +0.000 A 
ENDBRANCH  17  18
ENDBRANCH   7  17
TORSDOF 2
ENDMDL
MODEL 9
REMARK VINA RESULT:      -6.8      3.983      8.331
REMARK  Name = 
REMARK  2 active torsions:
REMARK  status: ('A' for Active; 'I' for Inactive)
REMARK    1  A    between atoms: N_7  and  C_8
REMARK    2  A    between atoms: C_8  and  C_9
REMARK                            x       y       z     vdW  Elec       q    Type
REMARK                         _______ _______ _______ _____ _____    ______ ____
ROOT
ATOM      1  O   UNL     1       1.660   3.112  17.325  0.00  0.00    +0.000 OA
ATOM      2  C   UNL     1       2.268   3.938  18.000  0.00  0.00    +0.000 C 
ATOM      3  C   UNL     1       1.667   4.581  19.218  0.00  0.00    +0.000 C 
ATOM      4  C   UNL     1       2.248   5.987  19.416  0.00  0.00    +0.000 C 
ATOM      5  C   UNL     1       1.853   6.952  18.272  0.00  0.00    +0.000 C 
ATOM      6  C   UNL     1       2.263   8.387  18.596  0.00  0.00    +0.000 C 
ATOM      7  N   UNL     1       1.646   8.888  19.830  0.00  0.00    +0.000 NA
ATOM      8  C   UNL     1       2.043   8.033  20.957  0.00  0.00    +0.000 C 
ATOM      9  C   UNL     1       1.723   6.545  20.759  0.00  0.00    +0.000 C 
ATOM     10  O   UNL     1       3.686   5.905  19.531  0.00  0.00    +0.000 OA
ATOM     11  C   UNL     1       4.295   5.264  18.484  0.00  0.00    +0.000 A 
ATOM     12  C   UNL     1       5.612   5.625  18.211  0.00  0.00    +0.000 A 
ATOM     13  C   UNL     1       6.271   5.074  17.109  0.00  0.00    +0.000 A 
ATOM     14  C   UNL     1       5.620   4.147  16.291  0.00  0.00    +0.000 A 
ATOM     15  C   UNL     1       4.311   3.759  16.580  0.00  0.00    +0.000 A 
ATOM     16  C   UNL     1       3.656   4.316  17.681  0.00  0.00    +0.000 A 
ENDROOT
BRANCH   7  17
ATOM     17  C   UNL     1       0.182   9.051  19.742  0.00  0.00    +0.000 C 
BRANCH  17  18
ATOM     18  C   UNL     1      -0.404   9.958  20.804  0.00  0.00    +0.000 A 
ATOM     19  C   UNL     1      -0.907  11.226  20.466  0.00  0.00    +0.000 A 
ATOM     20  C   UNL     1      -1.409  12.076  21.453  0.00  0.00    +0.000 A 
ATOM     21  C   UNL     1      -1.422  11.667  22.784  0.00  0.00    +0.000 A 
ATOM     22  C   UNL     1      -0.938  10.406  23.131  0.00  0.00    +0.000 A 
ATOM     23  C   UNL     1      -0.432   9.557  22.146  0.00  0.00    +0.000 A 
ENDBRANCH  17  18
ENDBRANCH   7  17
TORSDOF 2
ENDMDL
