MODEL 1
REMARK VINA RESULT:      -7.8      0.000      0.000
REMARK  Name = 
REMARK  15 active torsions:
REMARK  status: ('A' for Active; 'I' for Inactive)
REMARK    1  A    between atoms: C_1  and  O_2
REMARK    2  A    between atoms: O_2  and  C_3
REMARK    3  A    between atoms: C_8  and  C_9
REMARK    4  A    between atoms: C_10  and  C_11
REMARK    5  A    between atoms: C_11  and  O_13
REMARK    6  A    between atoms: O_13  and  C_14
REMARK    7  A    between atoms: C_14  and  C_15
REMARK    8  A    between atoms: C_14  and  C_16
REMARK    9  A    between atoms: C_17  and  C_18
REMARK   10  A    between atoms: C_20  and  C_21
REMARK   11  A    between atoms: C_23  and  O_24
REMARK   12  A    between atoms: C_23  and  O_25
REMARK   13  A    between atoms: O_25  and  C_26
REMARK   14  A    between atoms: C_26  and  C_27
REMARK   15  A    between atoms: C_26  and  C_28
REMARK                            x       y       z     vdW  Elec       q    Type
REMARK                         _______ _______ _______ _____ _____    ______ ____
ROOT
ATOM      1  C   UNL     1       3.909   5.195  17.500  0.00  0.00    +0.000 C 
ATOM      2  C   UNL     1       5.405   5.411  17.425  0.00  0.00    +0.000 C 
ATOM      3  C   UNL     1       6.253   4.627  18.124  0.00  0.00    +0.000 C 
ATOM      4  C   UNL     1       7.762   4.722  18.122  0.00  0.00    +0.000 C 
ATOM      5  N   UNL     1       5.822   3.624  18.957  0.00  0.00    +0.000 NA
ATOM      6  C   UNL     1       4.565   3.342  19.099  0.00  0.00    +0.000 C 
ATOM      7  C   UNL     1       4.277   2.252  20.116  0.00  0.00    +0.000 C 
ATOM      8  C   UNL     1       3.444   4.026  18.363  0.00  0.00    +0.000 C 
ATOM      9  C   UNL     1       2.139   3.678  18.494  0.00  0.00    +0.000 C 
ENDROOT
BRANCH   1  15
ATOM     10  C   UNL     1       0.672   9.403  19.240  0.00  0.00    +0.000 C 
ATOM     11  O   UNL     1       0.166   9.366  20.364  0.00  0.00    +0.000 OA
ATOM     12  N   UNL     1       1.769   8.646  18.865  0.00  0.00    +0.000 N 
ATOM     13  C   UNL     1       2.323   7.766  19.774  0.00  0.00    +0.000 C 
ATOM     14  C   UNL     1       3.044   6.718  19.362  0.00  0.00    +0.000 C 
ATOM     15  C   UNL     1       3.225   6.479  17.940  0.00  0.00    +0.000 C 
ATOM     16  C   UNL     1       2.838   7.430  17.067  0.00  0.00    +0.000 C 
ATOM     17  C   UNL     1       2.349   8.757  17.532  0.00  0.00    +0.000 C 
BRANCH  10  19
ATOM     18  C   UNL     1      -1.246  10.327  18.272  0.00  0.00    +0.000 C 
ATOM     19  O   UNL     1       0.165  10.142  18.220  0.00  0.00    +0.000 OA
ENDBRANCH  10  19
ENDBRANCH   1  15
BRANCH   2  20
ATOM     20  C   UNL     1       5.891   6.575  16.616  0.00  0.00    +0.000 C 
ATOM     21  O   UNL     1       6.300   7.629  17.081  0.00  0.00    +0.000 OA
BRANCH  20  22
ATOM     22  O   UNL     1       5.785   6.329  15.275  0.00  0.00    +0.000 OA
BRANCH  22  23
ATOM     23  C   UNL     1       6.363   5.085  14.823  0.00  0.00    +0.000 C 
ATOM     24  C   UNL     1       5.282   4.305  14.090  0.00  0.00    +0.000 C 
ATOM     25  C   UNL     1       7.528   5.378  13.878  0.00  0.00    +0.000 C 
ENDBRANCH  22  23
ENDBRANCH  20  22
ENDBRANCH   2  20
BRANCH   9  26
ATOM     26  O   UNL     1       1.123   4.326  17.816  0.00  0.00    +0.000 OA
ATOM     27  H   UNL     1       1.009   5.220  18.171  0.00  0.00    +0.000 HD
ENDBRANCH   9  26
BRANCH   9  28
ATOM     28  O   UNL     1       1.749   2.651  19.319  0.00  0.00    +0.000 OA
BRANCH  28  29
ATOM     29  C   UNL     1       0.898   3.023  20.416  0.00  0.00    +0.000 C 
ATOM     30  C   UNL     1       1.386   2.407  21.728  0.00  0.00    +0.000 C 
ATOM     31  C   UNL     1       0.969   4.543  20.513  0.00  0.00    +0.000 C 
ENDBRANCH  28  29
ENDBRANCH   9  28
TORSDOF 8
ENDMDL
MODEL 2
REMARK VINA RESULT:      -7.2      3.665      9.227
REMARK  Name = 
REMARK  15 active torsions:
REMARK  status: ('A' for Active; 'I' for Inactive)
REMARK    1  A    between atoms: C_1  and  O_2
REMARK    2  A    between atoms: O_2  and  C_3
REMARK    3  A    between atoms: C_8  and  C_9
REMARK    4  A    between atoms: C_10  and  C_11
REMARK    5  A    between atoms: C_11  and  O_13
REMARK    6  A    between atoms: O_13  and  C_14
REMARK    7  A    between atoms: C_14  and  C_15
REMARK    8  A    between atoms: C_14  and  C_16
REMARK    9  A    between atoms: C_17  and  C_18
REMARK   10  A    between atoms: C_20  and  C_21
REMARK   11  A    between atoms: C_23  and  O_24
REMARK   12  A    between atoms: C_23  and  O_25
REMARK   13  A    between atoms: O_25  and  C_26
REMARK   14  A    between atoms: C_26  and  C_27
REMARK   15  A    between atoms: C_26  and  C_28
REMARK                            x       y       z     vdW  Elec       q    Type
REMARK                         _______ _______ _______ _____ _____    ______ ____
ROOT
ATOM      1  C   UNL     1       0.187  11.571  18.266  0.00  0.00    +0.000 C 
ATOM      2  C   UNL     1      -1.301  11.444  18.515  0.00  0.00    +0.000 C 
ATOM      3  C   UNL     1      -1.952  12.342  19.283  0.00  0.00    +0.000 C 
ATOM      4  C   UNL     1      -3.432  12.343  19.593  0.00  0.00    +0.000 C 
ATOM      5  N   UNL     1      -1.318  13.390  19.902  0.00  0.00    +0.000 NA
ATOM      6  C   UNL     1      -0.046  13.604  19.759  0.00  0.00    +0.000 C 
ATOM      7  C   UNL     1       0.491  14.765  20.578  0.00  0.00    +0.000 C 
ATOM      8  C   UNL     1       0.868  12.784  18.890  0.00  0.00    +0.000 C 
ATOM      9  C   UNL     1       2.187  13.060  18.719  0.00  0.00    +0.000 C 
ENDROOT
BRANCH   1  15
ATOM     10  C   UNL     1       2.131   6.454  19.384  0.00  0.00    +0.000 C 
ATOM     11  O   UNL     1       2.457   5.704  18.461  0.00  0.00    +0.000 OA
ATOM     12  N   UNL     1       2.022   7.828  19.257  0.00  0.00    +0.000 N 
ATOM     13  C   UNL     1       2.249   8.412  18.026  0.00  0.00    +0.000 C 
ATOM     14  C   UNL     1       1.732   9.607  17.727  0.00  0.00    +0.000 C 
ATOM     15  C   UNL     1       0.891  10.294  18.693  0.00  0.00    +0.000 C 
ATOM     16  C   UNL     1       0.816   9.809  19.949  0.00  0.00    +0.000 C 
ATOM     17  C   UNL     1       1.667   8.670  20.393  0.00  0.00    +0.000 C 
BRANCH  10  19
ATOM     18  C   UNL     1       1.485   4.614  20.674  0.00  0.00    +0.000 C 
ATOM     19  O   UNL     1       1.776   6.006  20.616  0.00  0.00    +0.000 OA
ENDBRANCH  10  19
ENDBRANCH   1  15
BRANCH   2  20
ATOM     20  C   UNL     1      -1.992  10.241  17.947  0.00  0.00    +0.000 C 
ATOM     21  O   UNL     1      -2.508   9.353  18.609  0.00  0.00    +0.000 OA
BRANCH  20  22
ATOM     22  O   UNL     1      -1.940  10.236  16.581  0.00  0.00    +0.000 OA
BRANCH  22  23
ATOM     23  C   UNL     1      -3.205  10.040  15.911  0.00  0.00    +0.000 C 
ATOM     24  C   UNL     1      -4.117  11.201  16.281  0.00  0.00    +0.000 C 
ATOM     25  C   UNL     1      -2.983  10.012  14.400  0.00  0.00    +0.000 C 
ENDBRANCH  22  23
ENDBRANCH  20  22
ENDBRANCH   2  20
BRANCH   9  26
ATOM     26  O   UNL     1       3.013  12.288  17.924  0.00  0.00    +0.000 OA
ATOM     27  H   UNL     1       3.663  11.828  18.475  0.00  0.00    +0.000 HD
ENDBRANCH   9  26
BRANCH   9  28
ATOM     28  O   UNL     1       2.781  14.134  19.337  0.00  0.00    +0.000 OA
BRANCH  28  29
ATOM     29  C   UNL     1       3.649  14.925  18.509  0.00  0.00    +0.000 C 
ATOM     30  C   UNL     1       3.011  16.273  18.167  0.00  0.00    +0.000 C 
ATOM     31  C   UNL     1       4.919  15.158  19.322  0.00  0.00    +0.000 C 
ENDBRANCH  28  29
ENDBRANCH   9  28
TORSDOF 8
ENDMDL
MODEL 3
REMARK VINA RESULT:      -7.0      1.056      1.855
REMARK  Name = 
REMARK  15 active torsions:
REMARK  status: ('A' for Active; 'I' for Inactive)
REMARK    1  A    between atoms: C_1  and  O_2
REMARK    2  A    between atoms: O_2  and  C_3
REMARK    3  A    between atoms: C_8  and  C_9
REMARK    4  A    between atoms: C_10  and  C_11
REMARK    5  A    between atoms: C_11  and  O_13
REMARK    6  A    between atoms: O_13  and  C_14
REMARK    7  A    between atoms: C_14  and  C_15
REMARK    8  A    between atoms: C_14  and  C_16
REMARK    9  A    between atoms: C_17  and  C_18
REMARK   10  A    between atoms: C_20  and  C_21
REMARK   11  A    between atoms: C_23  and  O_24
REMARK   12  A    between atoms: C_23  and  O_25
REMARK   13  A    between atoms: O_25  and  C_26
REMARK   14  A    between atoms: C_26  and  C_27
REMARK   15  A    between atoms: C_26  and  C_28
REMARK                            x       y       z     vdW  Elec       q    Type
REMARK                         _______ _______ _______ _____ _____    ______ ____
ROOT
ATOM      1  C   UNL     1       3.855   5.248  17.534  0.00  0.00    +0.000 C 
ATOM      2  C   UNL     1       5.354   5.454  17.499  0.00  0.00    +0.000 C 
ATOM      3  C   UNL     1       6.182   4.627  18.169  0.00  0.00    +0.000 C 
ATOM      4  C   UNL     1       7.692   4.709  18.200  0.00  0.00    +0.000 C 
ATOM      5  N   UNL     1       5.729   3.584  18.938  0.00  0.00    +0.000 NA
ATOM      6  C   UNL     1       4.467   3.305  19.041  0.00  0.00    +0.000 C 
ATOM      7  C   UNL     1       4.152   2.164  19.992  0.00  0.00    +0.000 C 
ATOM      8  C   UNL     1       3.366   4.037  18.323  0.00  0.00    +0.000 C 
ATOM      9  C   UNL     1       2.055   3.693  18.411  0.00  0.00    +0.000 C 
ENDROOT
BRANCH   1  15
ATOM     10  C   UNL     1       0.626   9.374  19.473  0.00  0.00    +0.000 C 
ATOM     11  O   UNL     1       0.137   9.293  20.602  0.00  0.00    +0.000 OA
ATOM     12  N   UNL     1       1.721   8.637  19.055  0.00  0.00    +0.000 N 
ATOM     13  C   UNL     1       2.292   7.726  19.923  0.00  0.00    +0.000 C 
ATOM     14  C   UNL     1       3.011   6.698  19.462  0.00  0.00    +0.000 C 
ATOM     15  C   UNL     1       3.173   6.511  18.030  0.00  0.00    +0.000 C 
ATOM     16  C   UNL     1       2.768   7.492  17.198  0.00  0.00    +0.000 C 
ATOM     17  C   UNL     1       2.280   8.799  17.718  0.00  0.00    +0.000 C 
BRANCH  10  19
ATOM     18  C   UNL     1      -1.306  10.343  18.581  0.00  0.00    +0.000 C 
ATOM     19  O   UNL     1       0.101  10.147  18.488  0.00  0.00    +0.000 OA
ENDBRANCH  10  19
ENDBRANCH   1  15
BRANCH   2  20
ATOM     20  C   UNL     1       5.864   6.657  16.763  0.00  0.00    +0.000 C 
ATOM     21  O   UNL     1       5.955   6.746  15.548  0.00  0.00    +0.000 OA
BRANCH  20  22
ATOM     22  O   UNL     1       6.256   7.641  17.627  0.00  0.00    +0.000 OA
BRANCH  22  23
ATOM     23  C   UNL     1       7.643   8.035  17.533  0.00  0.00    +0.000 C 
ATOM     24  C   UNL     1       7.696   9.554  17.476  0.00  0.00    +0.000 C 
ATOM     25  C   UNL     1       8.401   7.531  18.760  0.00  0.00    +0.000 C 
ENDBRANCH  22  23
ENDBRANCH  20  22
ENDBRANCH   2  20
BRANCH   9  26
ATOM     26  O   UNL     1       1.057   4.386  17.750  0.00  0.00    +0.000 OA
ATOM     27  H   UNL     1       1.413   5.212  17.392  0.00  0.00    +0.000 HD
ENDBRANCH   9  26
BRANCH   9  28
ATOM     28  O   UNL     1       1.642   2.626  19.171  0.00  0.00    +0.000 OA
BRANCH  28  29
ATOM     29  C   UNL     1       0.829   2.952  20.310  0.00  0.00    +0.000 C 
ATOM     30  C   UNL     1       1.425   2.382  21.598  0.00  0.00    +0.000 C 
ATOM     31  C   UNL     1       0.803   4.475  20.394  0.00  0.00    +0.000 C 
ENDBRANCH  28  29
ENDBRANCH   9  28
TORSDOF 8
ENDMDL
MODEL 4
REMARK VINA RESULT:      -6.8      6.125     10.126
REMARK  Name = 
REMARK  15 active torsions:
REMARK  status: ('A' for Active; 'I' for Inactive)
REMARK    1  A    between atoms: C_1  and  O_2
REMARK    2  A    between atoms: O_2  and  C_3
REMARK    3  A    between atoms: C_8  and  C_9
REMARK    4  A    between atoms: C_10  and  C_11
REMARK    5  A    between atoms: C_11  and  O_13
REMARK    6  A    between atoms: O_13  and  C_14
REMARK    7  A    between atoms: C_14  and  C_15
REMARK    8  A    between atoms: C_14  and  C_16
REMARK    9  A    between atoms: C_17  and  C_18
REMARK   10  A    between atoms: C_20  and  C_21
REMARK   11  A    between atoms: C_23  and  O_24
REMARK   12  A    between atoms: C_23  and  O_25
REMARK   13  A    between atoms: O_25  and  C_26
REMARK   14  A    between atoms: C_26  and  C_27
REMARK   15  A    between atoms: C_26  and  C_28
REMARK                            x       y       z     vdW  Elec       q    Type
REMARK                         _______ _______ _______ _____ _____    ______ ____
ROOT
ATOM      1  C   UNL     1      -1.706  12.478  20.914  0.00  0.00    +0.000 C 
ATOM      2  C   UNL     1      -0.790  11.410  21.470  0.00  0.00    +0.000 C 
ATOM      3  C   UNL     1      -1.014  10.870  22.686  0.00  0.00    +0.000 C 
ATOM      4  C   UNL     1      -0.192   9.787  23.346  0.00  0.00    +0.000 C 
ATOM      5  N   UNL     1      -2.048  11.269  23.497  0.00  0.00    +0.000 NA
ATOM      6  C   UNL     1      -2.901  12.173  23.127  0.00  0.00    +0.000 C 
ATOM      7  C   UNL     1      -3.929  12.535  24.184  0.00  0.00    +0.000 C 
ATOM      8  C   UNL     1      -2.899  12.856  21.787  0.00  0.00    +0.000 C 
ATOM      9  C   UNL     1      -3.834  13.764  21.406  0.00  0.00    +0.000 C 
ENDROOT
BRANCH   1  15
ATOM     10  C   UNL     1       1.934  16.461  19.467  0.00  0.00    +0.000 C 
ATOM     11  O   UNL     1       2.450  16.447  18.348  0.00  0.00    +0.000 OA
ATOM     12  N   UNL     1       0.766  15.790  19.786  0.00  0.00    +0.000 N 
ATOM     13  C   UNL     1       0.144  15.024  18.819  0.00  0.00    +0.000 C 
ATOM     14  C   UNL     1      -0.677  14.026  19.159  0.00  0.00    +0.000 C 
ATOM     15  C   UNL     1      -0.899  13.717  20.561  0.00  0.00    +0.000 C 
ATOM     16  C   UNL     1      -0.435  14.571  21.496  0.00  0.00    +0.000 C 
ATOM     17  C   UNL     1       0.182  15.872  21.119  0.00  0.00    +0.000 C 
BRANCH  10  19
ATOM     18  C   UNL     1       3.904  16.912  20.646  0.00  0.00    +0.000 C 
ATOM     19  O   UNL     1       2.495  17.085  20.536  0.00  0.00    +0.000 OA
ENDBRANCH  10  19
ENDBRANCH   1  15
BRANCH   2  20
ATOM     20  C   UNL     1       0.413  11.044  20.653  0.00  0.00    +0.000 C 
ATOM     21  O   UNL     1       1.485  11.629  20.687  0.00  0.00    +0.000 OA
BRANCH  20  22
ATOM     22  O   UNL     1       0.151   9.988  19.825  0.00  0.00    +0.000 OA
BRANCH  22  23
ATOM     23  C   UNL     1       0.257  10.265  18.411  0.00  0.00    +0.000 C 
ATOM     24  C   UNL     1       1.253   9.282  17.815  0.00  0.00    +0.000 C 
ATOM     25  C   UNL     1      -1.111  10.088  17.753  0.00  0.00    +0.000 C 
ENDBRANCH  22  23
ENDBRANCH  20  22
ENDBRANCH   2  20
BRANCH   9  26
ATOM     26  O   UNL     1      -3.809  14.388  20.173  0.00  0.00    +0.000 OA
ATOM     27  H   UNL     1      -3.745  13.725  19.471  0.00  0.00    +0.000 HD
ENDBRANCH   9  26
BRANCH   9  28
ATOM     28  O   UNL     1      -4.869  14.119  22.237  0.00  0.00    +0.000 OA
BRANCH  28  29
ATOM     29  C   UNL     1      -6.186  14.006  21.673  0.00  0.00    +0.000 C 
ATOM     30  C   UNL     1      -6.583  12.541  21.485  0.00  0.00    +0.000 C 
ATOM     31  C   UNL     1      -7.135  14.664  22.669  0.00  0.00    +0.000 C 
ENDBRANCH  28  29
ENDBRANCH   9  28
TORSDOF 8
ENDMDL
MODEL 5
REMARK VINA RESULT:      -6.7      3.755      9.214
REMARK  Name = 
REMARK  15 active torsions:
REMARK  status: ('A' for Active; 'I' for Inactive)
REMARK    1  A    between atoms: C_1  and  O_2
REMARK    2  A    between atoms: O_2  and  C_3
REMARK    3  A    between atoms: C_8  and  C_9
REMARK    4  A    between atoms: C_10  and  C_11
REMARK    5  A    between atoms: C_11  and  O_13
REMARK    6  A    between atoms: O_13  and  C_14
REMARK    7  A    between atoms: C_14  and  C_15
REMARK    8  A    between atoms: C_14  and  C_16
REMARK    9  A    between atoms: C_17  and  C_18
REMARK   10  A    between atoms: C_20  and  C_21
REMARK   11  A    between atoms: C_23  and  O_24
REMARK   12  A    between atoms: C_23  and  O_25
REMARK   13  A    between atoms: O_25  and  C_26
REMARK   14  A    between atoms: C_26  and  C_27
REMARK   15  A    between atoms: C_26  and  C_28
REMARK                            x       y       z     vdW  Elec       q    Type
REMARK                         _______ _______ _______ _____ _____    ______ ____
ROOT
ATOM      1  C   UNL     1      -0.068  11.649  18.290  0.00  0.00    +0.000 C 
ATOM      2  C   UNL     1      -1.553  11.440  18.497  0.00  0.00    +0.000 C 
ATOM      3  C   UNL     1      -2.273  12.296  19.249  0.00  0.00    +0.000 C 
ATOM      4  C   UNL     1      -3.759  12.214  19.519  0.00  0.00    +0.000 C 
ATOM      5  N   UNL     1      -1.714  13.375  19.890  0.00  0.00    +0.000 NA
ATOM      6  C   UNL     1      -0.454  13.659  19.783  0.00  0.00    +0.000 C 
ATOM      7  C   UNL     1      -0.004  14.843  20.620  0.00  0.00    +0.000 C 
ATOM      8  C   UNL     1       0.528  12.895  18.937  0.00  0.00    +0.000 C 
ATOM      9  C   UNL     1       1.834  13.243  18.804  0.00  0.00    +0.000 C 
ENDROOT
BRANCH   1  15
ATOM     10  C   UNL     1       2.117   6.640  19.450  0.00  0.00    +0.000 C 
ATOM     11  O   UNL     1       2.498   5.907  18.534  0.00  0.00    +0.000 OA
ATOM     12  N   UNL     1       1.939   8.007  19.319  0.00  0.00    +0.000 N 
ATOM     13  C   UNL     1       2.159   8.600  18.091  0.00  0.00    +0.000 C 
ATOM     14  C   UNL     1       1.586   9.767  17.781  0.00  0.00    +0.000 C 
ATOM     15  C   UNL     1       0.694  10.410  18.731  0.00  0.00    +0.000 C 
ATOM     16  C   UNL     1       0.621   9.923  19.986  0.00  0.00    +0.000 C 
ATOM     17  C   UNL     1       1.521   8.830  20.447  0.00  0.00    +0.000 C 
BRANCH  10  19
ATOM     18  C   UNL     1       2.027   4.791  20.879  0.00  0.00    +0.000 C 
ATOM     19  O   UNL     1       1.763   6.175  20.676  0.00  0.00    +0.000 OA
ENDBRANCH  10  19
ENDBRANCH   1  15
BRANCH   2  20
ATOM     20  C   UNL     1      -2.160  10.204  17.905  0.00  0.00    +0.000 C 
ATOM     21  O   UNL     1      -2.751   9.342  18.539  0.00  0.00    +0.000 OA
BRANCH  20  22
ATOM     22  O   UNL     1      -1.938  10.135  16.558  0.00  0.00    +0.000 OA
BRANCH  22  23
ATOM     23  C   UNL     1      -2.880  10.856  15.734  0.00  0.00    +0.000 C 
ATOM     24  C   UNL     1      -2.958  10.154  14.387  0.00  0.00    +0.000 C 
ATOM     25  C   UNL     1      -4.252  10.852  16.406  0.00  0.00    +0.000 C 
ENDBRANCH  22  23
ENDBRANCH  20  22
ENDBRANCH   2  20
BRANCH   9  26
ATOM     26  O   UNL     1       2.723  12.522  18.029  0.00  0.00    +0.000 OA
ATOM     27  H   UNL     1       2.270  12.175  17.247  0.00  0.00    +0.000 HD
ENDBRANCH   9  26
BRANCH   9  28
ATOM     28  O   UNL     1       2.351  14.345  19.441  0.00  0.00    +0.000 OA
BRANCH  28  29
ATOM     29  C   UNL     1       3.691  14.202  19.941  0.00  0.00    +0.000 C 
ATOM     30  C   UNL     1       4.626  15.244  19.323  0.00  0.00    +0.000 C 
ATOM     31  C   UNL     1       3.610  14.424  21.447  0.00  0.00    +0.000 C 
ENDBRANCH  28  29
ENDBRANCH   9  28
TORSDOF 8
ENDMDL
MODEL 6
REMARK VINA RESULT:      -6.7      6.795      9.862
REMARK  Name = 
REMARK  15 active torsions:
REMARK  status: ('A' for Active; 'I' for Inactive)
REMARK    1  A    between atoms: C_1  and  O_2
REMARK    2  A    between atoms: O_2  and  C_3
REMARK    3  A    between atoms: C_8  and  C_9
REMARK    4  A    between atoms: C_10  and  C_11
REMARK    5  A    between atoms: C_11  and  O_13
REMARK    6  A    between atoms: O_13  and  C_14
REMARK    7  A    between atoms: C_14  and  C_15
REMARK    8  A    between atoms: C_14  and  C_16
REMARK    9  A    between atoms: C_17  and  C_18
REMARK   10  A    between atoms: C_20  and  C_21
REMARK   11  A    between atoms: C_23  and  O_24
REMARK   12  A    between atoms: C_23  and  O_25
REMARK   13  A    between atoms: O_25  and  C_26
REMARK   14  A    between atoms: C_26  and  C_27
REMARK   15  A    between atoms: C_26  and  C_28
REMARK                            x       y       z     vdW  Elec       q    Type
REMARK                         _______ _______ _______ _____ _____    ______ ____
ROOT
ATOM      1  C   UNL     1      -1.568  12.683  19.408  0.00  0.00    +0.000 C 
ATOM      2  C   UNL     1      -0.158  12.148  19.282  0.00  0.00    +0.000 C 
ATOM      3  C   UNL     1       0.080  10.958  18.694  0.00  0.00    +0.000 C 
ATOM      4  C   UNL     1       1.436  10.320  18.487  0.00  0.00    +0.000 C 
ATOM      5  N   UNL     1      -0.922  10.154  18.208  0.00  0.00    +0.000 NA
ATOM      6  C   UNL     1      -2.169  10.508  18.255  0.00  0.00    +0.000 C 
ATOM      7  C   UNL     1      -3.139   9.460  17.738  0.00  0.00    +0.000 C 
ATOM      8  C   UNL     1      -2.667  11.822  18.792  0.00  0.00    +0.000 C 
ATOM      9  C   UNL     1      -3.974  12.189  18.784  0.00  0.00    +0.000 C 
ENDROOT
BRANCH   1  15
ATOM     10  C   UNL     1      -3.567  13.573  24.548  0.00  0.00    +0.000 C 
ATOM     11  O   UNL     1      -4.152  12.667  25.146  0.00  0.00    +0.000 OA
ATOM     12  N   UNL     1      -2.711  13.363  23.480  0.00  0.00    +0.000 N 
ATOM     13  C   UNL     1      -2.515  12.076  23.017  0.00  0.00    +0.000 C 
ATOM     14  C   UNL     1      -2.100  11.853  21.767  0.00  0.00    +0.000 C 
ATOM     15  C   UNL     1      -1.881  12.973  20.866  0.00  0.00    +0.000 C 
ATOM     16  C   UNL     1      -1.902  14.224  21.369  0.00  0.00    +0.000 C 
ATOM     17  C   UNL     1      -2.018  14.470  22.833  0.00  0.00    +0.000 C 
BRANCH  10  19
ATOM     18  C   UNL     1      -4.935  15.450  24.268  0.00  0.00    +0.000 C 
ATOM     19  O   UNL     1      -3.751  14.890  24.828  0.00  0.00    +0.000 OA
ENDBRANCH  10  19
ENDBRANCH   1  15
BRANCH   2  20
ATOM     20  C   UNL     1       0.940  12.952  19.911  0.00  0.00    +0.000 C 
ATOM     21  O   UNL     1       1.389  12.767  21.032  0.00  0.00    +0.000 OA
BRANCH  20  22
ATOM     22  O   UNL     1       1.358  13.957  19.084  0.00  0.00    +0.000 OA
BRANCH  22  23
ATOM     23  C   UNL     1       1.142  15.298  19.575  0.00  0.00    +0.000 C 
ATOM     24  C   UNL     1       2.447  16.066  19.434  0.00  0.00    +0.000 C 
ATOM     25  C   UNL     1       0.046  15.973  18.751  0.00  0.00    +0.000 C 
ENDBRANCH  22  23
ENDBRANCH  20  22
ENDBRANCH   2  20
BRANCH   9  26
ATOM     26  O   UNL     1      -4.413  13.397  19.292  0.00  0.00    +0.000 OA
ATOM     27  H   UNL     1      -5.357  13.507  19.108  0.00  0.00    +0.000 HD
ENDBRANCH   9  26
BRANCH   9  28
ATOM     28  O   UNL     1      -4.947  11.367  18.266  0.00  0.00    +0.000 OA
BRANCH  28  29
ATOM     29  C   UNL     1      -6.270  11.562  18.792  0.00  0.00    +0.000 C 
ATOM     30  C   UNL     1      -7.173  12.257  17.772  0.00  0.00    +0.000 C 
ATOM     31  C   UNL     1      -6.819  10.171  19.090  0.00  0.00    +0.000 C 
ENDBRANCH  28  29
ENDBRANCH   9  28
TORSDOF 8
ENDMDL
MODEL 7
REMARK VINA RESULT:      -6.7      6.108     10.269
REMARK  Name = 
REMARK  15 active torsions:
REMARK  status: ('A' for Active; 'I' for Inactive)
REMARK    1  A    between atoms: C_1  and  O_2
REMARK    2  A    between atoms: O_2  and  C_3
REMARK    3  A    between atoms: C_8  and  C_9
REMARK    4  A    between atoms: C_10  and  C_11
REMARK    5  A    between atoms: C_11  and  O_13
REMARK    6  A    between atoms: O_13  and  C_14
REMARK    7  A    between atoms: C_14  and  C_15
REMARK    8  A    between atoms: C_14  and  C_16
REMARK    9  A    between atoms: C_17  and  C_18
REMARK   10  A    between atoms: C_20  and  C_21
REMARK   11  A    between atoms: C_23  and  O_24
REMARK   12  A    between atoms: C_23  and  O_25
REMARK   13  A    between atoms: O_25  and  C_26
REMARK   14  A    between atoms: C_26  and  C_27
REMARK   15  A    between atoms: C_26  and  C_28
REMARK                            x       y       z     vdW  Elec       q    Type
REMARK                         _______ _______ _______ _____ _____    ______ ____
ROOT
ATOM      1  C   UNL     1      -1.526  12.478  20.971  0.00  0.00    +0.000 C 
ATOM      2  C   UNL     1      -0.672  11.374  21.556  0.00  0.00    +0.000 C 
ATOM      3  C   UNL     1      -0.974  10.825  22.750  0.00  0.00    +0.000 C 
ATOM      4  C   UNL     1      -0.220   9.707  23.434  0.00  0.00    +0.000 C 
ATOM      5  N   UNL     1      -2.036  11.244  23.514  0.00  0.00    +0.000 NA
ATOM      6  C   UNL     1      -2.841  12.179  23.116  0.00  0.00    +0.000 C 
ATOM      7  C   UNL     1      -3.910  12.558  24.125  0.00  0.00    +0.000 C 
ATOM      8  C   UNL     1      -2.750  12.881  21.788  0.00  0.00    +0.000 C 
ATOM      9  C   UNL     1      -3.636  13.823  21.375  0.00  0.00    +0.000 C 
ENDROOT
BRANCH   1  15
ATOM     10  C   UNL     1       0.906  17.428  20.081  0.00  0.00    +0.000 C 
ATOM     11  O   UNL     1       0.960  18.260  20.989  0.00  0.00    +0.000 OA
ATOM     12  N   UNL     1       0.699  16.075  20.287  0.00  0.00    +0.000 N 
ATOM     13  C   UNL     1       0.501  15.612  21.573  0.00  0.00    +0.000 C 
ATOM     14  C   UNL     1      -0.139  14.461  21.797  0.00  0.00    +0.000 C 
ATOM     15  C   UNL     1      -0.664  13.695  20.679  0.00  0.00    +0.000 C 
ATOM     16  C   UNL     1      -0.318  14.055  19.426  0.00  0.00    +0.000 C 
ATOM     17  C   UNL     1       0.680  15.131  19.176  0.00  0.00    +0.000 C 
BRANCH  10  19
ATOM     18  C   UNL     1      -0.058  18.628  18.320  0.00  0.00    +0.000 C 
ATOM     19  O   UNL     1       0.977  17.758  18.765  0.00  0.00    +0.000 OA
ENDBRANCH  10  19
ENDBRANCH   1  15
BRANCH   2  20
ATOM     20  C   UNL     1       0.559  10.982  20.795  0.00  0.00    +0.000 C 
ATOM     21  O   UNL     1       1.650  11.521  20.905  0.00  0.00    +0.000 OA
BRANCH  20  22
ATOM     22  O   UNL     1       0.302   9.962  19.922  0.00  0.00    +0.000 OA
BRANCH  22  23
ATOM     23  C   UNL     1       0.383  10.306  18.521  0.00  0.00    +0.000 C 
ATOM     24  C   UNL     1       1.341   9.331  17.854  0.00  0.00    +0.000 C 
ATOM     25  C   UNL     1      -1.003  10.194  17.888  0.00  0.00    +0.000 C 
ENDBRANCH  22  23
ENDBRANCH  20  22
ENDBRANCH   2  20
BRANCH   9  26
ATOM     26  O   UNL     1      -3.529  14.463  20.154  0.00  0.00    +0.000 OA
ATOM     27  H   UNL     1      -4.377  14.427  19.689  0.00  0.00    +0.000 HD
ENDBRANCH   9  26
BRANCH   9  28
ATOM     28  O   UNL     1      -4.701  14.198  22.158  0.00  0.00    +0.000 OA
BRANCH  28  29
ATOM     29  C   UNL     1      -4.923  15.614  22.268  0.00  0.00    +0.000 C 
ATOM     30  C   UNL     1      -6.293  15.913  22.878  0.00  0.00    +0.000 C 
ATOM     31  C   UNL     1      -3.831  16.146  23.188  0.00  0.00    +0.000 C 
ENDBRANCH  28  29
ENDBRANCH   9  28
TORSDOF 8
ENDMDL
MODEL 8
REMARK VINA RESULT:      -6.7      6.073     10.210
REMARK  Name = 
REMARK  15 active torsions:
REMARK  status: ('A' for Active; 'I' for Inactive)
REMARK    1  A    between atoms: C_1  and  O_2
REMARK    2  A    between atoms: O_2  and  C_3
REMARK    3  A    between atoms: C_8  and  C_9
REMARK    4  A    between atoms: C_10  and  C_11
REMARK    5  A    between atoms: C_11  and  O_13
REMARK    6  A    between atoms: O_13  and  C_14
REMARK    7  A    between atoms: C_14  and  C_15
REMARK    8  A    between atoms: C_14  and  C_16
REMARK    9  A    between atoms: C_17  and  C_18
REMARK   10  A    between atoms: C_20  and  C_21
REMARK   11  A    between atoms: C_23  and  O_24
REMARK   12  A    between atoms: C_23  and  O_25
REMARK   13  A    between atoms: O_25  and  C_26
REMARK   14  A    between atoms: C_26  and  C_27
REMARK   15  A    between atoms: C_26  and  C_28
REMARK                            x       y       z     vdW  Elec       q    Type
REMARK                         _______ _______ _______ _____ _____    ______ ____
ROOT
ATOM      1  C   UNL     1      -1.447  12.433  20.974  0.00  0.00    +0.000 C 
ATOM      2  C   UNL     1      -0.610  11.317  21.564  0.00  0.00    +0.000 C 
ATOM      3  C   UNL     1      -0.927  10.772  22.756  0.00  0.00    +0.000 C 
ATOM      4  C   UNL     1      -0.192   9.644  23.444  0.00  0.00    +0.000 C 
ATOM      5  N   UNL     1      -1.988  11.204  23.513  0.00  0.00    +0.000 NA
ATOM      6  C   UNL     1      -2.779  12.149  23.111  0.00  0.00    +0.000 C 
ATOM      7  C   UNL     1      -3.850  12.542  24.113  0.00  0.00    +0.000 C 
ATOM      8  C   UNL     1      -2.670  12.850  21.784  0.00  0.00    +0.000 C 
ATOM      9  C   UNL     1      -3.542  13.803  21.365  0.00  0.00    +0.000 C 
ENDROOT
BRANCH   1  15
ATOM     10  C   UNL     1       2.430  16.271  19.769  0.00  0.00    +0.000 C 
ATOM     11  O   UNL     1       2.975  16.268  18.663  0.00  0.00    +0.000 OA
ATOM     12  N   UNL     1       1.221  15.650  20.032  0.00  0.00    +0.000 N 
ATOM     13  C   UNL     1       0.588  14.951  19.023  0.00  0.00    +0.000 C 
ATOM     14  C   UNL     1      -0.291  13.985  19.304  0.00  0.00    +0.000 C 
ATOM     15  C   UNL     1      -0.568  13.639  20.688  0.00  0.00    +0.000 C 
ATOM     16  C   UNL     1      -0.088  14.435  21.665  0.00  0.00    +0.000 C 
ATOM     17  C   UNL     1       0.605  15.715  21.352  0.00  0.00    +0.000 C 
BRANCH  10  19
ATOM     18  C   UNL     1       4.080  17.704  20.603  0.00  0.00    +0.000 C 
ATOM     19  O   UNL     1       2.992  16.827  20.874  0.00  0.00    +0.000 OA
ENDBRANCH  10  19
ENDBRANCH   1  15
BRANCH   2  20
ATOM     20  C   UNL     1       0.620  10.911  20.810  0.00  0.00    +0.000 C 
ATOM     21  O   UNL     1       1.722  11.424  20.941  0.00  0.00    +0.000 OA
BRANCH  20  22
ATOM     22  O   UNL     1       0.351   9.911  19.918  0.00  0.00    +0.000 OA
BRANCH  22  23
ATOM     23  C   UNL     1       0.429  10.283  18.525  0.00  0.00    +0.000 C 
ATOM     24  C   UNL     1       1.373   9.312  17.832  0.00  0.00    +0.000 C 
ATOM     25  C   UNL     1      -0.961  10.197  17.896  0.00  0.00    +0.000 C 
ENDBRANCH  22  23
ENDBRANCH  20  22
ENDBRANCH   2  20
BRANCH   9  26
ATOM     26  O   UNL     1      -3.420  14.443  20.146  0.00  0.00    +0.000 OA
ATOM     27  H   UNL     1      -2.973  15.294  20.265  0.00  0.00    +0.000 HD
ENDBRANCH   9  26
BRANCH   9  28
ATOM     28  O   UNL     1      -4.608  14.192  22.142  0.00  0.00    +0.000 OA
BRANCH  28  29
ATOM     29  C   UNL     1      -4.828  15.609  22.231  0.00  0.00    +0.000 C 
ATOM     30  C   UNL     1      -6.214  15.919  22.796  0.00  0.00    +0.000 C 
ATOM     31  C   UNL     1      -3.761  16.147  23.180  0.00  0.00    +0.000 C 
ENDBRANCH  28  29
ENDBRANCH   9  28
TORSDOF 8
ENDMDL
MODEL 9
REMARK VINA RESULT:      -6.7      0.811      1.366
REMARK  Name = 
REMARK  15 active torsions:
REMARK  status: ('A' for Active; 'I' for Inactive)
REMARK    1  A    between atoms: C_1  and  O_2
REMARK    2  A    between atoms: O_2  and  C_3
REMARK    3  A    between atoms: C_8  and  C_9
REMARK    4  A    between atoms: C_10  and  C_11
REMARK    5  A    between atoms: C_11  and  O_13
REMARK    6  A    between atoms: O_13  and  C_14
REMARK    7  A    between atoms: C_14  and  C_15
REMARK    8  A    between atoms: C_14  and  C_16
REMARK    9  A    between atoms: C_17  and  C_18
REMARK   10  A    between atoms: C_20  and  C_21
REMARK   11  A    between atoms: C_23  and  O_24
REMARK   12  A    between atoms: C_23  and  O_25
REMARK   13  A    between atoms: O_25  and  C_26
REMARK   14  A    between atoms: C_26  and  C_27
REMARK   15  A    between atoms: C_26  and  C_28
REMARK                            x       y       z     vdW  Elec       q    Type
REMARK                         _______ _______ _______ _____ _____    ______ ____
ROOT
ATOM      1  C   UNL     1       3.850   5.233  17.749  0.00  0.00    +0.000 C 
ATOM      2  C   UNL     1       5.321   5.589  17.726  0.00  0.00    +0.000 C 
ATOM      3  C   UNL     1       6.217   4.873  18.435  0.00  0.00    +0.000 C 
ATOM      4  C   UNL     1       7.709   5.108  18.484  0.00  0.00    +0.000 C 
ATOM      5  N   UNL     1       5.858   3.814  19.234  0.00  0.00    +0.000 NA
ATOM      6  C   UNL     1       4.628   3.413  19.330  0.00  0.00    +0.000 C 
ATOM      7  C   UNL     1       4.414   2.278  20.315  0.00  0.00    +0.000 C 
ATOM      8  C   UNL     1       3.471   4.006  18.572  0.00  0.00    +0.000 C 
ATOM      9  C   UNL     1       2.201   3.534  18.654  0.00  0.00    +0.000 C 
ENDROOT
BRANCH   1  15
ATOM     10  C   UNL     1       1.587  10.134  19.188  0.00  0.00    +0.000 C 
ATOM     11  O   UNL     1       1.497  11.038  18.355  0.00  0.00    +0.000 OA
ATOM     12  N   UNL     1       1.751   8.799  18.860  0.00  0.00    +0.000 N 
ATOM     13  C   UNL     1       1.860   8.440  17.531  0.00  0.00    +0.000 C 
ATOM     14  C   UNL     1       2.460   7.300  17.175  0.00  0.00    +0.000 C 
ATOM     15  C   UNL     1       3.035   6.437  18.192  0.00  0.00    +0.000 C 
ATOM     16  C   UNL     1       2.774   6.698  19.489  0.00  0.00    +0.000 C 
ATOM     17  C   UNL     1       1.817   7.766  19.887  0.00  0.00    +0.000 C 
BRANCH  10  19
ATOM     18  C   UNL     1       0.509  11.127  21.011  0.00  0.00    +0.000 C 
ATOM     19  O   UNL     1       1.604  10.356  20.529  0.00  0.00    +0.000 OA
ENDBRANCH  10  19
ENDBRANCH   1  15
BRANCH   2  20
ATOM     20  C   UNL     1       5.719   6.812  16.956  0.00  0.00    +0.000 C 
ATOM     21  O   UNL     1       5.976   7.899  17.453  0.00  0.00    +0.000 OA
BRANCH  20  22
ATOM     22  O   UNL     1       5.722   6.575  15.610  0.00  0.00    +0.000 OA
BRANCH  22  23
ATOM     23  C   UNL     1       6.203   5.273  15.209  0.00  0.00    +0.000 C 
ATOM     24  C   UNL     1       5.120   4.610  14.372  0.00  0.00    +0.000 C 
ATOM     25  C   UNL     1       7.478   5.433  14.382  0.00  0.00    +0.000 C 
ENDBRANCH  22  23
ENDBRANCH  20  22
ENDBRANCH   2  20
BRANCH   9  26
ATOM     26  O   UNL     1       1.149   4.100  17.957  0.00  0.00    +0.000 OA
ATOM     27  H   UNL     1       0.376   3.519  18.001  0.00  0.00    +0.000 HD
ENDBRANCH   9  26
BRANCH   9  28
ATOM     28  O   UNL     1       1.885   2.456  19.445  0.00  0.00    +0.000 OA
BRANCH  28  29
ATOM     29  C   UNL     1       0.992   2.728  20.538  0.00  0.00    +0.000 C 
ATOM     30  C   UNL     1       1.605   2.303  21.873  0.00  0.00    +0.000 C 
ATOM     31  C   UNL     1       0.768   4.236  20.540  0.00  0.00    +0.000 C 
ENDBRANCH  28  29
ENDBRANCH   9  28
TORSDOF 8
ENDMDL
