MODEL 1
REMARK VINA RESULT:      -7.5      0.000      0.000
REMARK  Name = 
REMARK  13 active torsions:
REMARK  status: ('A' for Active; 'I' for Inactive)
REMARK    1  A    between atoms: C_1  and  O_2
REMARK    2  A    between atoms: O_2  and  C_3
REMARK    3  A    between atoms: C_3  and  C_4
REMARK    4  A    between atoms: C_4  and  N_5
REMARK    5  A    between atoms: N_5  and  C_6
REMARK    6  A    between atoms: C_6  and  C_7
REMARK    7  A    between atoms: C_7  and  C_8
REMARK    8  A    between atoms: C_12  and  C_13
REMARK    9  A    between atoms: C_16  and  C_17
REMARK   10  A    between atoms: C_20  and  O_21
REMARK   11  A    between atoms: O_21  and  C_22
REMARK   12  A    between atoms: C_24  and  C_25
REMARK   13  A    between atoms: C_26  and  C_27
REMARK                            x       y       z     vdW  Elec       q    Type
REMARK                         _______ _______ _______ _____ _____    ______ ____
ROOT
ATOM      1  N   UNL     1       4.446   5.175  17.527  0.00  0.00    +0.000 N 
ATOM      2  C   UNL     1       3.565   5.554  18.572  0.00  0.00    +0.000 A 
ATOM      3  N   UNL     1       3.297   4.677  19.510  0.00  0.00    +0.000 NA
ATOM      4  C   UNL     1       2.408   4.993  20.511  0.00  0.00    +0.000 A 
ATOM      5  C   UNL     1       2.249   4.001  21.627  0.00  0.00    +0.000 C 
ATOM      6  N   UNL     1       1.736   6.094  20.594  0.00  0.00    +0.000 NA
ATOM      7  C   UNL     1       2.055   7.071  19.723  0.00  0.00    +0.000 A 
ATOM      8  C   UNL     1       1.717   8.413  19.664  0.00  0.00    +0.000 A 
ATOM      9  C   UNL     1       2.376   8.873  18.478  0.00  0.00    +0.000 A 
ATOM     10  C   UNL     1       2.388  10.218  17.847  0.00  0.00    +0.000 C 
ATOM     11  N   UNL     1       3.080   7.891  17.883  0.00  0.00    +0.000 NA
ATOM     12  N   UNL     1       2.932   6.827  18.691  0.00  0.00    +0.000 N 
ENDROOT
BRANCH   8  13
ATOM     13  C   UNL     1       0.832   9.090  20.620  0.00  0.00    +0.000 A 
ATOM     14  C   UNL     1       1.126   8.977  21.990  0.00  0.00    +0.000 A 
ATOM     15  C   UNL     1       0.318   9.581  22.951  0.00  0.00    +0.000 A 
ATOM     16  C   UNL     1      -0.752  10.330  22.519  0.00  0.00    +0.000 A 
ATOM     17  N   UNL     1      -1.076  10.473  21.224  0.00  0.00    +0.000 NA
ATOM     18  C   UNL     1      -0.306   9.854  20.286  0.00  0.00    +0.000 A 
ATOM     19  C   UNL     1      -0.810  10.107  18.897  0.00  0.00    +0.000 C 
BRANCH  16  20
ATOM     20  O   UNL     1      -1.511  10.958  23.484  0.00  0.00    +0.000 OA
ATOM     21  C   UNL     1      -2.267  12.045  22.954  0.00  0.00    +0.000 C 
ENDBRANCH  16  20
ENDBRANCH   8  13
BRANCH   1  22
ATOM     22  C   UNL     1       4.914   6.083  16.458  0.00  0.00    +0.000 C 
BRANCH  22  23
ATOM     23  C   UNL     1       6.028   5.471  15.598  0.00  0.00    +0.000 C 
BRANCH  23  25
ATOM     24  C   UNL     1       7.238   6.676  17.204  0.00  0.00    +0.000 C 
ATOM     25  O   UNL     1       7.302   6.019  15.941  0.00  0.00    +0.000 OA
ENDBRANCH  23  25
ENDBRANCH  22  23
ENDBRANCH   1  22
BRANCH   1  26
ATOM     26  C   UNL     1       4.544   3.715  17.245  0.00  0.00    +0.000 C 
BRANCH  26  27
ATOM     27  C   UNL     1       3.206   2.984  17.149  0.00  0.00    +0.000 C 
BRANCH  27  28
ATOM     28  C   UNL     1       3.262   1.698  17.964  0.00  0.00    +0.000 C 
ATOM     29  F   UNL     1       2.251   1.708  18.874  0.00  0.00    +0.000 F 
ENDBRANCH  27  28
ENDBRANCH  26  27
ENDBRANCH   1  26
TORSDOF 8
ENDMDL
MODEL 2
REMARK VINA RESULT:      -6.7      1.591      1.796
REMARK  Name = 
REMARK  13 active torsions:
REMARK  status: ('A' for Active; 'I' for Inactive)
REMARK    1  A    between atoms: C_1  and  O_2
REMARK    2  A    between atoms: O_2  and  C_3
REMARK    3  A    between atoms: C_3  and  C_4
REMARK    4  A    between atoms: C_4  and  N_5
REMARK    5  A    between atoms: N_5  and  C_6
REMARK    6  A    between atoms: C_6  and  C_7
REMARK    7  A    between atoms: C_7  and  C_8
REMARK    8  A    between atoms: C_12  and  C_13
REMARK    9  A    between atoms: C_16  and  C_17
REMARK   10  A    between atoms: C_20  and  O_21
REMARK   11  A    between atoms: O_21  and  C_22
REMARK   12  A    between atoms: C_24  and  C_25
REMARK   13  A    between atoms: C_26  and  C_27
REMARK                            x       y       z     vdW  Elec       q    Type
REMARK                         _______ _______ _______ _____ _____    ______ ____
ROOT
ATOM      1  N   UNL     1       4.521   5.487  17.106  0.00  0.00    +0.000 N 
ATOM      2  C   UNL     1       3.638   5.784  18.175  0.00  0.00    +0.000 A 
ATOM      3  N   UNL     1       3.379   4.842  19.050  0.00  0.00    +0.000 NA
ATOM      4  C   UNL     1       2.488   5.079  20.071  0.00  0.00    +0.000 A 
ATOM      5  C   UNL     1       2.339   4.010  21.115  0.00  0.00    +0.000 C 
ATOM      6  N   UNL     1       1.807   6.166  20.231  0.00  0.00    +0.000 NA
ATOM      7  C   UNL     1       2.117   7.204  19.430  0.00  0.00    +0.000 A 
ATOM      8  C   UNL     1       1.768   8.544  19.465  0.00  0.00    +0.000 A 
ATOM      9  C   UNL     1       2.422   9.091  18.314  0.00  0.00    +0.000 A 
ATOM     10  C   UNL     1       2.422  10.477  17.779  0.00  0.00    +0.000 C 
ATOM     11  N   UNL     1       3.133   8.160  17.652  0.00  0.00    +0.000 NA
ATOM     12  N   UNL     1       2.995   7.041  18.384  0.00  0.00    +0.000 N 
ENDROOT
BRANCH   8  13
ATOM     13  C   UNL     1       0.878   9.145  20.466  0.00  0.00    +0.000 A 
ATOM     14  C   UNL     1       1.194   8.968  21.825  0.00  0.00    +0.000 A 
ATOM     15  C   UNL     1       0.383   9.498  22.826  0.00  0.00    +0.000 A 
ATOM     16  C   UNL     1      -0.713  10.239  22.448  0.00  0.00    +0.000 A 
ATOM     17  N   UNL     1      -1.058  10.441  21.166  0.00  0.00    +0.000 NA
ATOM     18  C   UNL     1      -0.284   9.894  20.188  0.00  0.00    +0.000 A 
ATOM     19  C   UNL     1      -0.814  10.207  18.820  0.00  0.00    +0.000 C 
BRANCH  16  20
ATOM     20  O   UNL     1      -1.475  10.794  23.454  0.00  0.00    +0.000 OA
ATOM     21  C   UNL     1      -1.875  12.129  23.154  0.00  0.00    +0.000 C 
ENDBRANCH  16  20
ENDBRANCH   8  13
BRANCH   1  22
ATOM     22  C   UNL     1       4.981   6.471  16.103  0.00  0.00    +0.000 C 
BRANCH  22  23
ATOM     23  C   UNL     1       6.421   6.944  16.344  0.00  0.00    +0.000 C 
BRANCH  23  25
ATOM     24  C   UNL     1       7.898   7.318  18.127  0.00  0.00    +0.000 C 
ATOM     25  O   UNL     1       6.566   7.500  17.653  0.00  0.00    +0.000 OA
ENDBRANCH  23  25
ENDBRANCH  22  23
ENDBRANCH   1  22
BRANCH   1  26
ATOM     26  C   UNL     1       4.632   4.051  16.722  0.00  0.00    +0.000 C 
BRANCH  26  27
ATOM     27  C   UNL     1       5.833   3.707  15.844  0.00  0.00    +0.000 C 
BRANCH  27  28
ATOM     28  C   UNL     1       5.471   3.897  14.376  0.00  0.00    +0.000 C 
ATOM     29  F   UNL     1       6.485   3.418  13.606  0.00  0.00    +0.000 F 
ENDBRANCH  27  28
ENDBRANCH  26  27
ENDBRANCH   1  26
TORSDOF 8
ENDMDL
MODEL 3
REMARK VINA RESULT:      -6.6      2.772      4.306
REMARK  Name = 
REMARK  13 active torsions:
REMARK  status: ('A' for Active; 'I' for Inactive)
REMARK    1  A    between atoms: C_1  and  O_2
REMARK    2  A    between atoms: O_2  and  C_3
REMARK    3  A    between atoms: C_3  and  C_4
REMARK    4  A    between atoms: C_4  and  N_5
REMARK    5  A    between atoms: N_5  and  C_6
REMARK    6  A    between atoms: C_6  and  C_7
REMARK    7  A    between atoms: C_7  and  C_8
REMARK    8  A    between atoms: C_12  and  C_13
REMARK    9  A    between atoms: C_16  and  C_17
REMARK   10  A    between atoms: C_20  and  O_21
REMARK   11  A    between atoms: O_21  and  C_22
REMARK   12  A    between atoms: C_24  and  C_25
REMARK   13  A    between atoms: C_26  and  C_27
REMARK                            x       y       z     vdW  Elec       q    Type
REMARK                         _______ _______ _______ _____ _____    ______ ____
ROOT
ATOM      1  N   UNL     1       3.034   4.818  20.079  0.00  0.00    +0.000 N 
ATOM      2  C   UNL     1       2.855   6.086  19.468  0.00  0.00    +0.000 A 
ATOM      3  N   UNL     1       3.470   6.325  18.335  0.00  0.00    +0.000 NA
ATOM      4  C   UNL     1       3.360   7.560  17.740  0.00  0.00    +0.000 A 
ATOM      5  C   UNL     1       3.973   7.726  16.380  0.00  0.00    +0.000 C 
ATOM      6  N   UNL     1       2.728   8.574  18.235  0.00  0.00    +0.000 NA
ATOM      7  C   UNL     1       1.987   8.352  19.338  0.00  0.00    +0.000 A 
ATOM      8  C   UNL     1       1.032   9.117  19.988  0.00  0.00    +0.000 A 
ATOM      9  C   UNL     1       0.648   8.300  21.100  0.00  0.00    +0.000 A 
ATOM     10  C   UNL     1      -0.322   8.564  22.195  0.00  0.00    +0.000 C 
ATOM     11  N   UNL     1       1.299   7.122  21.105  0.00  0.00    +0.000 NA
ATOM     12  N   UNL     1       2.050   7.143  19.991  0.00  0.00    +0.000 N 
ENDROOT
BRANCH   8  13
ATOM     13  C   UNL     1       0.628  10.467  19.576  0.00  0.00    +0.000 A 
ATOM     14  C   UNL     1       1.178  11.563  20.263  0.00  0.00    +0.000 A 
ATOM     15  C   UNL     1       0.825  12.869  19.933  0.00  0.00    +0.000 A 
ATOM     16  C   UNL     1      -0.045  13.060  18.884  0.00  0.00    +0.000 A 
ATOM     17  N   UNL     1      -0.597  12.050  18.193  0.00  0.00    +0.000 NA
ATOM     18  C   UNL     1      -0.277  10.772  18.538  0.00  0.00    +0.000 A 
ATOM     19  C   UNL     1      -0.986   9.770  17.676  0.00  0.00    +0.000 C 
BRANCH  16  20
ATOM     20  O   UNL     1      -0.345  14.362  18.544  0.00  0.00    +0.000 OA
ATOM     21  C   UNL     1       0.707  15.265  18.881  0.00  0.00    +0.000 C 
ENDBRANCH  16  20
ENDBRANCH   8  13
BRANCH   1  22
ATOM     22  C   UNL     1       2.332   4.372  21.301  0.00  0.00    +0.000 C 
BRANCH  22  23
ATOM     23  C   UNL     1       1.251   3.320  21.020  0.00  0.00    +0.000 C 
BRANCH  23  25
ATOM     24  C   UNL     1       0.561   2.511  18.931  0.00  0.00    +0.000 C 
ATOM     25  O   UNL     1       0.538   3.624  19.820  0.00  0.00    +0.000 OA
ENDBRANCH  23  25
ENDBRANCH  22  23
ENDBRANCH   1  22
BRANCH   1  26
ATOM     26  C   UNL     1       4.290   4.094  19.736  0.00  0.00    +0.000 C 
BRANCH  26  27
ATOM     27  C   UNL     1       4.092   2.688  19.172  0.00  0.00    +0.000 C 
BRANCH  27  28
ATOM     28  C   UNL     1       3.919   2.759  17.660  0.00  0.00    +0.000 C 
ATOM     29  F   UNL     1       4.761   3.707  17.163  0.00  0.00    +0.000 F 
ENDBRANCH  27  28
ENDBRANCH  26  27
ENDBRANCH   1  26
TORSDOF 8
ENDMDL
MODEL 4
REMARK VINA RESULT:      -6.6      4.182      9.671
REMARK  Name = 
REMARK  13 active torsions:
REMARK  status: ('A' for Active; 'I' for Inactive)
REMARK    1  A    between atoms: C_1  and  O_2
REMARK    2  A    between atoms: O_2  and  C_3
REMARK    3  A    between atoms: C_3  and  C_4
REMARK    4  A    between atoms: C_4  and  N_5
REMARK    5  A    between atoms: N_5  and  C_6
REMARK    6  A    between atoms: C_6  and  C_7
REMARK    7  A    between atoms: C_7  and  C_8
REMARK    8  A    between atoms: C_12  and  C_13
REMARK    9  A    between atoms: C_16  and  C_17
REMARK   10  A    between atoms: C_20  and  O_21
REMARK   11  A    between atoms: O_21  and  C_22
REMARK   12  A    between atoms: C_24  and  C_25
REMARK   13  A    between atoms: C_26  and  C_27
REMARK                            x       y       z     vdW  Elec       q    Type
REMARK                         _______ _______ _______ _____ _____    ______ ____
ROOT
ATOM      1  N   UNL     1      -4.472  12.899  19.559  0.00  0.00    +0.000 N 
ATOM      2  C   UNL     1      -3.619  11.918  18.992  0.00  0.00    +0.000 A 
ATOM      3  N   UNL     1      -4.000  11.324  17.887  0.00  0.00    +0.000 NA
ATOM      4  C   UNL     1      -3.222  10.332  17.337  0.00  0.00    +0.000 A 
ATOM      5  C   UNL     1      -3.642   9.788  16.002  0.00  0.00    +0.000 C 
ATOM      6  N   UNL     1      -2.132   9.865  17.852  0.00  0.00    +0.000 NA
ATOM      7  C   UNL     1      -1.637  10.514  18.925  0.00  0.00    +0.000 A 
ATOM      8  C   UNL     1      -0.417  10.440  19.576  0.00  0.00    +0.000 A 
ATOM      9  C   UNL     1      -0.550  11.384  20.645  0.00  0.00    +0.000 A 
ATOM     10  C   UNL     1       0.405  11.757  21.721  0.00  0.00    +0.000 C 
ATOM     11  N   UNL     1      -1.747  12.001  20.623  0.00  0.00    +0.000 NA
ATOM     12  N   UNL     1      -2.362  11.513  19.532  0.00  0.00    +0.000 N 
ENDROOT
BRANCH   8  13
ATOM     13  C   UNL     1       0.669   9.525  19.205  0.00  0.00    +0.000 A 
ATOM     14  C   UNL     1       1.270   9.686  17.944  0.00  0.00    +0.000 A 
ATOM     15  C   UNL     1       2.295   8.843  17.523  0.00  0.00    +0.000 A 
ATOM     16  C   UNL     1       2.735   7.873  18.394  0.00  0.00    +0.000 A 
ATOM     17  N   UNL     1       2.200   7.677  19.610  0.00  0.00    +0.000 NA
ATOM     18  C   UNL     1       1.174   8.481  20.008  0.00  0.00    +0.000 A 
ATOM     19  C   UNL     1       0.688   8.122  21.381  0.00  0.00    +0.000 C 
BRANCH  16  20
ATOM     20  O   UNL     1       3.782   7.079  17.976  0.00  0.00    +0.000 OA
ATOM     21  C   UNL     1       3.890   5.881  18.742  0.00  0.00    +0.000 C 
ENDBRANCH  16  20
ENDBRANCH   8  13
BRANCH   1  22
ATOM     22  C   UNL     1      -4.135  13.718  20.743  0.00  0.00    +0.000 C 
BRANCH  22  23
ATOM     23  C   UNL     1      -4.970  13.356  21.978  0.00  0.00    +0.000 C 
BRANCH  23  25
ATOM     24  C   UNL     1      -4.184  12.659  24.074  0.00  0.00    +0.000 C 
ATOM     25  O   UNL     1      -4.367  12.287  22.711  0.00  0.00    +0.000 OA
ENDBRANCH  23  25
ENDBRANCH  22  23
ENDBRANCH   1  22
BRANCH   1  26
ATOM     26  C   UNL     1      -5.920  12.786  19.224  0.00  0.00    +0.000 C 
BRANCH  26  27
ATOM     27  C   UNL     1      -6.580  14.083  18.759  0.00  0.00    +0.000 C 
BRANCH  27  28
ATOM     28  C   UNL     1      -7.048  13.936  17.317  0.00  0.00    +0.000 C 
ATOM     29  F   UNL     1      -6.013  13.477  16.562  0.00  0.00    +0.000 F 
ENDBRANCH  27  28
ENDBRANCH  26  27
ENDBRANCH   1  26
TORSDOF 8
ENDMDL
MODEL 5
REMARK VINA RESULT:      -6.4      1.381      1.593
REMARK  Name = 
REMARK  13 active torsions:
REMARK  status: ('A' for Active; 'I' for Inactive)
REMARK    1  A    between atoms: C_1  and  O_2
REMARK    2  A    between atoms: O_2  and  C_3
REMARK    3  A    between atoms: C_3  and  C_4
REMARK    4  A    between atoms: C_4  and  N_5
REMARK    5  A    between atoms: N_5  and  C_6
REMARK    6  A    between atoms: C_6  and  C_7
REMARK    7  A    between atoms: C_7  and  C_8
REMARK    8  A    between atoms: C_12  and  C_13
REMARK    9  A    between atoms: C_16  and  C_17
REMARK   10  A    between atoms: C_20  and  O_21
REMARK   11  A    between atoms: O_21  and  C_22
REMARK   12  A    between atoms: C_24  and  C_25
REMARK   13  A    between atoms: C_26  and  C_27
REMARK                            x       y       z     vdW  Elec       q    Type
REMARK                         _______ _______ _______ _____ _____    ______ ____
ROOT
ATOM      1  N   UNL     1       4.312   5.803  17.370  0.00  0.00    +0.000 N 
ATOM      2  C   UNL     1       3.415   6.128  18.419  0.00  0.00    +0.000 A 
ATOM      3  N   UNL     1       3.154   5.214  19.322  0.00  0.00    +0.000 NA
ATOM      4  C   UNL     1       2.250   5.478  20.325  0.00  0.00    +0.000 A 
ATOM      5  C   UNL     1       2.098   4.444  21.403  0.00  0.00    +0.000 C 
ATOM      6  N   UNL     1       1.558   6.563  20.440  0.00  0.00    +0.000 NA
ATOM      7  C   UNL     1       1.867   7.576  19.608  0.00  0.00    +0.000 A 
ATOM      8  C   UNL     1       1.507   8.914  19.593  0.00  0.00    +0.000 A 
ATOM      9  C   UNL     1       2.168   9.427  18.431  0.00  0.00    +0.000 A 
ATOM     10  C   UNL     1       2.162  10.794  17.849  0.00  0.00    +0.000 C 
ATOM     11  N   UNL     1       2.895   8.480  17.809  0.00  0.00    +0.000 NA
ATOM     12  N   UNL     1       2.758   7.385  18.577  0.00  0.00    +0.000 N 
ENDROOT
BRANCH   8  13
ATOM     13  C   UNL     1       0.601   9.540  20.564  0.00  0.00    +0.000 A 
ATOM     14  C   UNL     1       0.904   9.415  21.930  0.00  0.00    +0.000 A 
ATOM     15  C   UNL     1       0.078   9.972  22.904  0.00  0.00    +0.000 A 
ATOM     16  C   UNL     1      -1.022  10.688  22.490  0.00  0.00    +0.000 A 
ATOM     17  N   UNL     1      -1.356  10.841  21.198  0.00  0.00    +0.000 NA
ATOM     18  C   UNL     1      -0.566  10.267  20.247  0.00  0.00    +0.000 A 
ATOM     19  C   UNL     1      -1.086  10.525  18.864  0.00  0.00    +0.000 C 
BRANCH  16  20
ATOM     20  O   UNL     1      -1.800  11.270  23.467  0.00  0.00    +0.000 OA
ATOM     21  C   UNL     1      -2.168  12.608  23.140  0.00  0.00    +0.000 C 
ENDBRANCH  16  20
ENDBRANCH   8  13
BRANCH   1  22
ATOM     22  C   UNL     1       4.775   6.756  16.338  0.00  0.00    +0.000 C 
BRANCH  22  23
ATOM     23  C   UNL     1       5.327   6.062  15.086  0.00  0.00    +0.000 C 
BRANCH  23  25
ATOM     24  C   UNL     1       7.143   4.712  14.474  0.00  0.00    +0.000 C 
ATOM     25  O   UNL     1       6.741   5.883  15.180  0.00  0.00    +0.000 OA
ENDBRANCH  23  25
ENDBRANCH  22  23
ENDBRANCH   1  22
BRANCH   1  26
ATOM     26  C   UNL     1       4.439   4.356  17.037  0.00  0.00    +0.000 C 
BRANCH  26  27
ATOM     27  C   UNL     1       5.453   3.585  17.879  0.00  0.00    +0.000 C 
BRANCH  27  28
ATOM     28  C   UNL     1       6.596   4.508  18.282  0.00  0.00    +0.000 C 
ATOM     29  F   UNL     1       6.390   4.934  19.559  0.00  0.00    +0.000 F 
ENDBRANCH  27  28
ENDBRANCH  26  27
ENDBRANCH   1  26
TORSDOF 8
ENDMDL
MODEL 6
REMARK VINA RESULT:      -6.3      7.135      9.485
REMARK  Name = 
REMARK  13 active torsions:
REMARK  status: ('A' for Active; 'I' for Inactive)
REMARK    1  A    between atoms: C_1  and  O_2
REMARK    2  A    between atoms: O_2  and  C_3
REMARK    3  A    between atoms: C_3  and  C_4
REMARK    4  A    between atoms: C_4  and  N_5
REMARK    5  A    between atoms: N_5  and  C_6
REMARK    6  A    between atoms: C_6  and  C_7
REMARK    7  A    between atoms: C_7  and  C_8
REMARK    8  A    between atoms: C_12  and  C_13
REMARK    9  A    between atoms: C_16  and  C_17
REMARK   10  A    between atoms: C_20  and  O_21
REMARK   11  A    between atoms: O_21  and  C_22
REMARK   12  A    between atoms: C_24  and  C_25
REMARK   13  A    between atoms: C_26  and  C_27
REMARK                            x       y       z     vdW  Elec       q    Type
REMARK                         _______ _______ _______ _____ _____    ______ ____
ROOT
ATOM      1  N   UNL     1      -3.901  11.548  17.848  0.00  0.00    +0.000 N 
ATOM      2  C   UNL     1      -3.144  11.923  18.987  0.00  0.00    +0.000 A 
ATOM      3  N   UNL     1      -1.901  11.514  19.073  0.00  0.00    +0.000 NA
ATOM      4  C   UNL     1      -1.154  11.817  20.187  0.00  0.00    +0.000 A 
ATOM      5  C   UNL     1       0.299  11.439  20.164  0.00  0.00    +0.000 C 
ATOM      6  N   UNL     1      -1.588  12.444  21.230  0.00  0.00    +0.000 NA
ATOM      7  C   UNL     1      -2.820  12.984  21.149  0.00  0.00    +0.000 A 
ATOM      8  C   UNL     1      -3.497  13.885  21.955  0.00  0.00    +0.000 A 
ATOM      9  C   UNL     1      -4.769  14.022  21.309  0.00  0.00    +0.000 A 
ATOM     10  C   UNL     1      -5.957  14.828  21.692  0.00  0.00    +0.000 C 
ATOM     11  N   UNL     1      -4.843  13.284  20.186  0.00  0.00    +0.000 NA
ATOM     12  N   UNL     1      -3.628  12.720  20.068  0.00  0.00    +0.000 N 
ENDROOT
BRANCH   8  13
ATOM     13  C   UNL     1      -2.959  14.458  23.195  0.00  0.00    +0.000 A 
ATOM     14  C   UNL     1      -2.065  15.537  23.092  0.00  0.00    +0.000 A 
ATOM     15  C   UNL     1      -1.505  16.118  24.228  0.00  0.00    +0.000 A 
ATOM     16  C   UNL     1      -1.887  15.634  25.458  0.00  0.00    +0.000 A 
ATOM     17  N   UNL     1      -2.739  14.607  25.613  0.00  0.00    +0.000 NA
ATOM     18  C   UNL     1      -3.260  14.018  24.501  0.00  0.00    +0.000 A 
ATOM     19  C   UNL     1      -4.181  12.887  24.851  0.00  0.00    +0.000 C 
BRANCH  16  20
ATOM     20  O   UNL     1      -1.358  16.252  26.571  0.00  0.00    +0.000 OA
ATOM     21  C   UNL     1      -0.035  16.734  26.343  0.00  0.00    +0.000 C 
ENDBRANCH  16  20
ENDBRANCH   8  13
BRANCH   1  22
ATOM     22  C   UNL     1      -5.277  12.011  17.567  0.00  0.00    +0.000 C 
BRANCH  22  23
ATOM     23  C   UNL     1      -6.350  11.017  18.031  0.00  0.00    +0.000 C 
BRANCH  23  25
ATOM     24  C   UNL     1      -7.465  10.904  20.091  0.00  0.00    +0.000 C 
ATOM     25  O   UNL     1      -7.301  11.652  18.889  0.00  0.00    +0.000 OA
ENDBRANCH  23  25
ENDBRANCH  22  23
ENDBRANCH   1  22
BRANCH   1  26
ATOM     26  C   UNL     1      -3.467  10.305  17.149  0.00  0.00    +0.000 C 
BRANCH  26  27
ATOM     27  C   UNL     1      -2.617  10.529  15.900  0.00  0.00    +0.000 C 
BRANCH  27  28
ATOM     28  C   UNL     1      -3.443  10.232  14.654  0.00  0.00    +0.000 C 
ATOM     29  F   UNL     1      -2.607   9.837  13.655  0.00  0.00    +0.000 F 
ENDBRANCH  27  28
ENDBRANCH  26  27
ENDBRANCH   1  26
TORSDOF 8
ENDMDL
MODEL 7
REMARK VINA RESULT:      -6.3      3.810      9.289
REMARK  Name = 
REMARK  13 active torsions:
REMARK  status: ('A' for Active; 'I' for Inactive)
REMARK    1  A    between atoms: C_1  and  O_2
REMARK    2  A    between atoms: O_2  and  C_3
REMARK    3  A    between atoms: C_3  and  C_4
REMARK    4  A    between atoms: C_4  and  N_5
REMARK    5  A    between atoms: N_5  and  C_6
REMARK    6  A    between atoms: C_6  and  C_7
REMARK    7  A    between atoms: C_7  and  C_8
REMARK    8  A    between atoms: C_12  and  C_13
REMARK    9  A    between atoms: C_16  and  C_17
REMARK   10  A    between atoms: C_20  and  O_21
REMARK   11  A    between atoms: O_21  and  C_22
REMARK   12  A    between atoms: C_24  and  C_25
REMARK   13  A    between atoms: C_26  and  C_27
REMARK                            x       y       z     vdW  Elec       q    Type
REMARK                         _______ _______ _______ _____ _____    ______ ____
ROOT
ATOM      1  N   UNL     1      -3.833  12.719  19.435  0.00  0.00    +0.000 N 
ATOM      2  C   UNL     1      -2.990  11.748  18.836  0.00  0.00    +0.000 A 
ATOM      3  N   UNL     1      -3.307  11.296  17.646  0.00  0.00    +0.000 NA
ATOM      4  C   UNL     1      -2.541  10.317  17.057  0.00  0.00    +0.000 A 
ATOM      5  C   UNL     1      -2.875   9.941  15.642  0.00  0.00    +0.000 C 
ATOM      6  N   UNL     1      -1.527   9.731  17.604  0.00  0.00    +0.000 NA
ATOM      7  C   UNL     1      -1.091  10.234  18.776  0.00  0.00    +0.000 A 
ATOM      8  C   UNL     1       0.063  10.016  19.511  0.00  0.00    +0.000 A 
ATOM      9  C   UNL     1      -0.108  10.853  20.661  0.00  0.00    +0.000 A 
ATOM     10  C   UNL     1       0.770  11.052  21.842  0.00  0.00    +0.000 C 
ATOM     11  N   UNL     1      -1.263  11.543  20.610  0.00  0.00    +0.000 NA
ATOM     12  N   UNL     1      -1.808  11.210  19.427  0.00  0.00    +0.000 N 
ENDROOT
BRANCH   8  13
ATOM     13  C   UNL     1       1.125   9.076  19.131  0.00  0.00    +0.000 A 
ATOM     14  C   UNL     1       1.756   9.256  17.888  0.00  0.00    +0.000 A 
ATOM     15  C   UNL     1       2.760   8.391  17.459  0.00  0.00    +0.000 A 
ATOM     16  C   UNL     1       3.150   7.379  18.306  0.00  0.00    +0.000 A 
ATOM     17  N   UNL     1       2.583   7.164  19.505  0.00  0.00    +0.000 NA
ATOM     18  C   UNL     1       1.577   7.990  19.909  0.00  0.00    +0.000 A 
ATOM     19  C   UNL     1       1.051   7.605  21.260  0.00  0.00    +0.000 C 
BRANCH  16  20
ATOM     20  O   UNL     1       4.176   6.563  17.883  0.00  0.00    +0.000 OA
ATOM     21  C   UNL     1       4.645   6.914  16.583  0.00  0.00    +0.000 C 
ENDBRANCH  16  20
ENDBRANCH   8  13
BRANCH   1  22
ATOM     22  C   UNL     1      -3.553  13.390  20.723  0.00  0.00    +0.000 C 
BRANCH  22  23
ATOM     23  C   UNL     1      -4.490  12.935  21.849  0.00  0.00    +0.000 C 
BRANCH  23  25
ATOM     24  C   UNL     1      -4.225  12.633  24.159  0.00  0.00    +0.000 C 
ATOM     25  O   UNL     1      -3.769  12.239  22.868  0.00  0.00    +0.000 OA
ENDBRANCH  23  25
ENDBRANCH  22  23
ENDBRANCH   1  22
BRANCH   1  26
ATOM     26  C   UNL     1      -5.250  12.734  18.976  0.00  0.00    +0.000 C 
BRANCH  26  27
ATOM     27  C   UNL     1      -5.992  11.407  19.126  0.00  0.00    +0.000 C 
BRANCH  27  28
ATOM     28  C   UNL     1      -7.427  11.666  19.569  0.00  0.00    +0.000 C 
ATOM     29  F   UNL     1      -7.649  11.018  20.745  0.00  0.00    +0.000 F 
ENDBRANCH  27  28
ENDBRANCH  26  27
ENDBRANCH   1  26
TORSDOF 8
ENDMDL
MODEL 8
REMARK VINA RESULT:      -6.3      0.951      1.655
REMARK  Name = 
REMARK  13 active torsions:
REMARK  status: ('A' for Active; 'I' for Inactive)
REMARK    1  A    between atoms: C_1  and  O_2
REMARK    2  A    between atoms: O_2  and  C_3
REMARK    3  A    between atoms: C_3  and  C_4
REMARK    4  A    between atoms: C_4  and  N_5
REMARK    5  A    between atoms: N_5  and  C_6
REMARK    6  A    between atoms: C_6  and  C_7
REMARK    7  A    between atoms: C_7  and  C_8
REMARK    8  A    between atoms: C_12  and  C_13
REMARK    9  A    between atoms: C_16  and  C_17
REMARK   10  A    between atoms: C_20  and  O_21
REMARK   11  A    between atoms: O_21  and  C_22
REMARK   12  A    between atoms: C_24  and  C_25
REMARK   13  A    between atoms: C_26  and  C_27
REMARK                            x       y       z     vdW  Elec       q    Type
REMARK                         _______ _______ _______ _____ _____    ______ ____
ROOT
ATOM      1  N   UNL     1       4.219   5.266  17.563  0.00  0.00    +0.000 N 
ATOM      2  C   UNL     1       3.378   5.686  18.625  0.00  0.00    +0.000 A 
ATOM      3  N   UNL     1       3.112   4.833  19.585  0.00  0.00    +0.000 NA
ATOM      4  C   UNL     1       2.260   5.189  20.604  0.00  0.00    +0.000 A 
ATOM      5  C   UNL     1       2.105   4.221  21.741  0.00  0.00    +0.000 C 
ATOM      6  N   UNL     1       1.621   6.309  20.687  0.00  0.00    +0.000 NA
ATOM      7  C   UNL     1       1.942   7.263  19.790  0.00  0.00    +0.000 A 
ATOM      8  C   UNL     1       1.640   8.613  19.717  0.00  0.00    +0.000 A 
ATOM      9  C   UNL     1       2.278   9.034  18.506  0.00  0.00    +0.000 A 
ATOM     10  C   UNL     1       2.309  10.368  17.852  0.00  0.00    +0.000 C 
ATOM     11  N   UNL     1       2.938   8.024  17.909  0.00  0.00    +0.000 NA
ATOM     12  N   UNL     1       2.783   6.978  18.740  0.00  0.00    +0.000 N 
ENDROOT
BRANCH   8  13
ATOM     13  C   UNL     1       0.800   9.329  20.685  0.00  0.00    +0.000 A 
ATOM     14  C   UNL     1      -0.393   9.913  20.223  0.00  0.00    +0.000 A 
ATOM     15  C   UNL     1      -1.228  10.620  21.085  0.00  0.00    +0.000 A 
ATOM     16  C   UNL     1      -0.875  10.695  22.413  0.00  0.00    +0.000 A 
ATOM     17  N   UNL     1       0.251  10.155  22.907  0.00  0.00    +0.000 NA
ATOM     18  C   UNL     1       1.084   9.492  22.057  0.00  0.00    +0.000 A 
ATOM     19  C   UNL     1       2.295   8.961  22.766  0.00  0.00    +0.000 C 
BRANCH  16  20
ATOM     20  O   UNL     1      -1.738  11.360  23.258  0.00  0.00    +0.000 OA
ATOM     21  C   UNL     1      -2.592  12.261  22.557  0.00  0.00    +0.000 C 
ENDBRANCH  16  20
ENDBRANCH   8  13
BRANCH   1  22
ATOM     22  C   UNL     1       4.683   6.142  16.466  0.00  0.00    +0.000 C 
BRANCH  22  23
ATOM     23  C   UNL     1       5.850   5.541  15.673  0.00  0.00    +0.000 C 
BRANCH  23  25
ATOM     24  C   UNL     1       6.446   4.094  13.927  0.00  0.00    +0.000 C 
ATOM     25  O   UNL     1       5.379   4.818  14.534  0.00  0.00    +0.000 OA
ENDBRANCH  23  25
ENDBRANCH  22  23
ENDBRANCH   1  22
BRANCH   1  26
ATOM     26  C   UNL     1       4.269   3.799  17.304  0.00  0.00    +0.000 C 
BRANCH  26  27
ATOM     27  C   UNL     1       2.950   3.177  16.852  0.00  0.00    +0.000 C 
BRANCH  27  28
ATOM     28  C   UNL     1       2.568   2.039  17.790  0.00  0.00    +0.000 C 
ATOM     29  F   UNL     1       3.691   1.345  18.123  0.00  0.00    +0.000 F 
ENDBRANCH  27  28
ENDBRANCH  26  27
ENDBRANCH   1  26
TORSDOF 8
ENDMDL
MODEL 9
REMARK VINA RESULT:      -6.2      3.441      9.206
REMARK  Name = 
REMARK  13 active torsions:
REMARK  status: ('A' for Active; 'I' for Inactive)
REMARK    1  A    between atoms: C_1  and  O_2
REMARK    2  A    between atoms: O_2  and  C_3
REMARK    3  A    between atoms: C_3  and  C_4
REMARK    4  A    between atoms: C_4  and  N_5
REMARK    5  A    between atoms: N_5  and  C_6
REMARK    6  A    between atoms: C_6  and  C_7
REMARK    7  A    between atoms: C_7  and  C_8
REMARK    8  A    between atoms: C_12  and  C_13
REMARK    9  A    between atoms: C_16  and  C_17
REMARK   10  A    between atoms: C_20  and  O_21
REMARK   11  A    between atoms: O_21  and  C_22
REMARK   12  A    between atoms: C_24  and  C_25
REMARK   13  A    between atoms: C_26  and  C_27
REMARK                            x       y       z     vdW  Elec       q    Type
REMARK                         _______ _______ _______ _____ _____    ______ ____
ROOT
ATOM      1  N   UNL     1      -2.025  13.012  21.729  0.00  0.00    +0.000 N 
ATOM      2  C   UNL     1      -1.562  12.029  20.817  0.00  0.00    +0.000 A 
ATOM      3  N   UNL     1      -2.032  12.042  19.593  0.00  0.00    +0.000 NA
ATOM      4  C   UNL     1      -1.643  11.074  18.697  0.00  0.00    +0.000 A 
ATOM      5  C   UNL     1      -2.110  11.222  17.278  0.00  0.00    +0.000 C 
ATOM      6  N   UNL     1      -0.869  10.074  18.967  0.00  0.00    +0.000 NA
ATOM      7  C   UNL     1      -0.269  10.075  20.173  0.00  0.00    +0.000 A 
ATOM      8  C   UNL     1       0.762   9.315  20.701  0.00  0.00    +0.000 A 
ATOM      9  C   UNL     1       0.898   9.816  22.036  0.00  0.00    +0.000 A 
ATOM     10  C   UNL     1       1.815   9.399  23.129  0.00  0.00    +0.000 C 
ATOM     11  N   UNL     1       0.035  10.819  22.286  0.00  0.00    +0.000 NA
ATOM     12  N   UNL     1      -0.612  11.009  21.123  0.00  0.00    +0.000 N 
ENDROOT
BRANCH   8  13
ATOM     13  C   UNL     1       1.447   8.233  19.985  0.00  0.00    +0.000 A 
ATOM     14  C   UNL     1       1.518   6.971  20.601  0.00  0.00    +0.000 A 
ATOM     15  C   UNL     1       2.167   5.904  19.983  0.00  0.00    +0.000 A 
ATOM     16  C   UNL     1       2.700   6.108  18.730  0.00  0.00    +0.000 A 
ATOM     17  N   UNL     1       2.658   7.290  18.096  0.00  0.00    +0.000 NA
ATOM     18  C   UNL     1       2.053   8.342  18.715  0.00  0.00    +0.000 A 
ATOM     19  C   UNL     1       2.103   9.585  17.877  0.00  0.00    +0.000 C 
BRANCH  16  20
ATOM     20  O   UNL     1       3.297   5.027  18.117  0.00  0.00    +0.000 OA
ATOM     21  C   UNL     1       3.361   3.888  18.972  0.00  0.00    +0.000 C 
ENDBRANCH  16  20
ENDBRANCH   8  13
BRANCH   1  22
ATOM     22  C   UNL     1      -1.516  13.182  23.106  0.00  0.00    +0.000 C 
BRANCH  22  23
ATOM     23  C   UNL     1      -1.074  14.620  23.407  0.00  0.00    +0.000 C 
BRANCH  23  25
ATOM     24  C   UNL     1      -2.712  14.784  25.077  0.00  0.00    +0.000 C 
ATOM     25  O   UNL     1      -1.332  14.962  24.771  0.00  0.00    +0.000 OA
ENDBRANCH  23  25
ENDBRANCH  22  23
ENDBRANCH   1  22
BRANCH   1  26
ATOM     26  C   UNL     1      -3.367  13.594  21.443  0.00  0.00    +0.000 C 
BRANCH  26  27
ATOM     27  C   UNL     1      -4.537  12.883  22.121  0.00  0.00    +0.000 C 
BRANCH  27  28
ATOM     28  C   UNL     1      -5.547  12.435  21.072  0.00  0.00    +0.000 C 
ATOM     29  F   UNL     1      -5.302  13.103  19.911  0.00  0.00    +0.000 F 
ENDBRANCH  27  28
ENDBRANCH  26  27
ENDBRANCH   1  26
TORSDOF 8
ENDMDL
