MODEL 1
REMARK VINA RESULT:      -8.0      0.000      0.000
REMARK  Name = 
REMARK  6 active torsions:
REMARK  status: ('A' for Active; 'I' for Inactive)
REMARK    1  A    between atoms: C_8  and  C_9
REMARK    2  A    between atoms: C_9  and  N_10
REMARK    3  A    between atoms: N_17  and  C_18
REMARK    4  A    between atoms: C_18  and  C_19
REMARK    5  A    between atoms: C_19  and  C_20
REMARK    6  A    between atoms: C_20  and  C_21
REMARK                            x       y       z     vdW  Elec       q    Type
REMARK                         _______ _______ _______ _____ _____    ______ ____
ROOT
ATOM      1  F   UNL     1       0.175   1.922  18.566  0.00  0.00    +0.000 F 
ATOM      2  C   UNL     1       1.365   2.538  18.521  0.00  0.00    +0.000 A 
ATOM      3  C   UNL     1       2.409   1.952  17.823  0.00  0.00    +0.000 A 
ATOM      4  C   UNL     1       3.658   2.575  17.760  0.00  0.00    +0.000 A 
ATOM      5  C   UNL     1       3.824   3.800  18.434  0.00  0.00    +0.000 A 
ATOM      6  C   UNL     1       2.775   4.401  19.141  0.00  0.00    +0.000 A 
ATOM      7  C   UNL     1       1.521   3.756  19.179  0.00  0.00    +0.000 A 
ATOM      8  C   UNL     1       3.269   5.628  19.695  0.00  0.00    +0.000 A 
ATOM      9  C   UNL     1       4.596   5.718  19.332  0.00  0.00    +0.000 A 
ATOM     10  N   UNL     1       4.921   4.627  18.573  0.00  0.00    +0.000 N 
ENDROOT
BRANCH   8  11
ATOM     11  C   UNL     1       2.503   6.619  20.515  0.00  0.00    +0.000 C 
BRANCH  11  12
ATOM     12  N   UNL     1       1.706   7.524  19.657  0.00  0.00    +0.000 NA
ATOM     13  C   UNL     1       1.220   8.684  20.423  0.00  0.00    +0.000 C 
ATOM     14  C   UNL     1       0.505   9.715  19.548  0.00  0.00    +0.000 C 
ATOM     15  C   UNL     1       1.391  10.162  18.395  0.00  0.00    +0.000 C 
ATOM     16  C   UNL     1       1.841   8.945  17.601  0.00  0.00    +0.000 C 
ATOM     17  C   UNL     1       2.529   7.923  18.505  0.00  0.00    +0.000 C 
ENDBRANCH  11  12
ENDBRANCH   8  11
BRANCH  10  18
ATOM     18  C   UNL     1       6.242   4.424  18.004  0.00  0.00    +0.000 C 
BRANCH  18  19
ATOM     19  C   UNL     1       6.504   5.271  16.761  0.00  0.00    +0.000 C 
BRANCH  19  20
ATOM     20  C   UNL     1       5.401   5.158  15.705  0.00  0.00    +0.000 C 
BRANCH  20  21
ATOM     21  C   UNL     1       5.986   4.759  14.371  0.00  0.00    +0.000 A 
ATOM     22  C   UNL     1       5.341   3.804  13.574  0.00  0.00    +0.000 A 
ATOM     23  C   UNL     1       5.916   3.388  12.374  0.00  0.00    +0.000 A 
ATOM     24  C   UNL     1       7.138   3.913  11.965  0.00  0.00    +0.000 A 
ATOM     25  C   UNL     1       7.785   4.864  12.751  0.00  0.00    +0.000 A 
ATOM     26  C   UNL     1       7.214   5.286  13.949  0.00  0.00    +0.000 A 
ENDBRANCH  20  21
ENDBRANCH  19  20
ENDBRANCH  18  19
ENDBRANCH  10  18
TORSDOF 6
ENDMDL
MODEL 2
REMARK VINA RESULT:      -7.9      2.921      7.718
REMARK  Name = 
REMARK  6 active torsions:
REMARK  status: ('A' for Active; 'I' for Inactive)
REMARK    1  A    between atoms: C_8  and  C_9
REMARK    2  A    between atoms: C_9  and  N_10
REMARK    3  A    between atoms: N_17  and  C_18
REMARK    4  A    between atoms: C_18  and  C_19
REMARK    5  A    between atoms: C_19  and  C_20
REMARK    6  A    between atoms: C_20  and  C_21
REMARK                            x       y       z     vdW  Elec       q    Type
REMARK                         _______ _______ _______ _____ _____    ______ ____
ROOT
ATOM      1  F   UNL     1       8.042   4.322  16.878  0.00  0.00    +0.000 F 
ATOM      2  C   UNL     1       6.911   5.010  17.088  0.00  0.00    +0.000 A 
ATOM      3  C   UNL     1       6.966   6.390  17.205  0.00  0.00    +0.000 A 
ATOM      4  C   UNL     1       5.801   7.129  17.422  0.00  0.00    +0.000 A 
ATOM      5  C   UNL     1       4.583   6.433  17.531  0.00  0.00    +0.000 A 
ATOM      6  C   UNL     1       4.516   5.039  17.413  0.00  0.00    +0.000 A 
ATOM      7  C   UNL     1       5.706   4.318  17.182  0.00  0.00    +0.000 A 
ATOM      8  C   UNL     1       3.143   4.653  17.562  0.00  0.00    +0.000 A 
ATOM      9  C   UNL     1       2.431   5.811  17.789  0.00  0.00    +0.000 A 
ATOM     10  N   UNL     1       3.294   6.873  17.763  0.00  0.00    +0.000 N 
ENDROOT
BRANCH   8  11
ATOM     11  C   UNL     1       2.585   3.266  17.493  0.00  0.00    +0.000 C 
BRANCH  11  12
ATOM     12  N   UNL     1       2.335   2.720  18.846  0.00  0.00    +0.000 NA
ATOM     13  C   UNL     1       3.536   2.836  19.691  0.00  0.00    +0.000 C 
ATOM     14  C   UNL     1       3.285   2.408  21.138  0.00  0.00    +0.000 C 
ATOM     15  C   UNL     1       2.124   3.182  21.743  0.00  0.00    +0.000 C 
ATOM     16  C   UNL     1       0.891   3.008  20.870  0.00  0.00    +0.000 C 
ATOM     17  C   UNL     1       1.178   3.419  19.426  0.00  0.00    +0.000 C 
ENDBRANCH  11  12
ENDBRANCH   8  11
BRANCH  10  18
ATOM     18  C   UNL     1       2.863   8.248  17.943  0.00  0.00    +0.000 C 
BRANCH  18  19
ATOM     19  C   UNL     1       1.564   8.377  18.736  0.00  0.00    +0.000 C 
BRANCH  19  20
ATOM     20  C   UNL     1       1.755   8.209  20.246  0.00  0.00    +0.000 C 
BRANCH  20  21
ATOM     21  C   UNL     1       0.881   9.183  21.001  0.00  0.00    +0.000 A 
ATOM     22  C   UNL     1       0.821  10.527  20.611  0.00  0.00    +0.000 A 
ATOM     23  C   UNL     1       0.067  11.439  21.349  0.00  0.00    +0.000 A 
ATOM     24  C   UNL     1      -0.625  11.019  22.482  0.00  0.00    +0.000 A 
ATOM     25  C   UNL     1      -0.571   9.683  22.875  0.00  0.00    +0.000 A 
ATOM     26  C   UNL     1       0.178   8.768  22.140  0.00  0.00    +0.000 A 
ENDBRANCH  20  21
ENDBRANCH  19  20
ENDBRANCH  18  19
ENDBRANCH  10  18
TORSDOF 6
ENDMDL
MODEL 3
REMARK VINA RESULT:      -7.9      2.314      7.212
REMARK  Name = 
REMARK  6 active torsions:
REMARK  status: ('A' for Active; 'I' for Inactive)
REMARK    1  A    between atoms: C_8  and  C_9
REMARK    2  A    between atoms: C_9  and  N_10
REMARK    3  A    between atoms: N_17  and  C_18
REMARK    4  A    between atoms: C_18  and  C_19
REMARK    5  A    between atoms: C_19  and  C_20
REMARK    6  A    between atoms: C_20  and  C_21
REMARK                            x       y       z     vdW  Elec       q    Type
REMARK                         _______ _______ _______ _____ _____    ______ ____
ROOT
ATOM      1  F   UNL     1       6.814   3.529  14.266  0.00  0.00    +0.000 F 
ATOM      2  C   UNL     1       6.115   4.347  15.066  0.00  0.00    +0.000 A 
ATOM      3  C   UNL     1       5.721   5.589  14.592  0.00  0.00    +0.000 A 
ATOM      4  C   UNL     1       4.991   6.458  15.406  0.00  0.00    +0.000 A 
ATOM      5  C   UNL     1       4.682   6.042  16.715  0.00  0.00    +0.000 A 
ATOM      6  C   UNL     1       5.075   4.788  17.203  0.00  0.00    +0.000 A 
ATOM      7  C   UNL     1       5.801   3.926  16.355  0.00  0.00    +0.000 A 
ATOM      8  C   UNL     1       4.599   4.676  18.550  0.00  0.00    +0.000 A 
ATOM      9  C   UNL     1       3.962   5.863  18.844  0.00  0.00    +0.000 A 
ATOM     10  N   UNL     1       4.009   6.673  17.742  0.00  0.00    +0.000 N 
ENDROOT
BRANCH   8  11
ATOM     11  C   UNL     1       4.764   3.506  19.469  0.00  0.00    +0.000 C 
BRANCH  11  12
ATOM     12  N   UNL     1       3.469   2.835  19.723  0.00  0.00    +0.000 NA
ATOM     13  C   UNL     1       2.740   3.497  20.818  0.00  0.00    +0.000 C 
ATOM     14  C   UNL     1       1.337   2.922  21.027  0.00  0.00    +0.000 C 
ATOM     15  C   UNL     1       0.531   2.967  19.738  0.00  0.00    +0.000 C 
ATOM     16  C   UNL     1       1.292   2.240  18.640  0.00  0.00    +0.000 C 
ATOM     17  C   UNL     1       2.697   2.818  18.471  0.00  0.00    +0.000 C 
ENDBRANCH  11  12
ENDBRANCH   8  11
BRANCH  10  18
ATOM     18  C   UNL     1       3.405   7.994  17.705  0.00  0.00    +0.000 C 
BRANCH  18  19
ATOM     19  C   UNL     1       1.912   7.987  18.022  0.00  0.00    +0.000 C 
BRANCH  19  20
ATOM     20  C   UNL     1       1.340   9.382  18.288  0.00  0.00    +0.000 C 
BRANCH  20  21
ATOM     21  C   UNL     1       0.882   9.501  19.722  0.00  0.00    +0.000 A 
ATOM     22  C   UNL     1       0.081  10.579  20.120  0.00  0.00    +0.000 A 
ATOM     23  C   UNL     1      -0.286  10.725  21.458  0.00  0.00    +0.000 A 
ATOM     24  C   UNL     1       0.148   9.803  22.406  0.00  0.00    +0.000 A 
ATOM     25  C   UNL     1       0.944   8.727  22.017  0.00  0.00    +0.000 A 
ATOM     26  C   UNL     1       1.311   8.575  20.683  0.00  0.00    +0.000 A 
ENDBRANCH  20  21
ENDBRANCH  19  20
ENDBRANCH  18  19
ENDBRANCH  10  18
TORSDOF 6
ENDMDL
MODEL 4
REMARK VINA RESULT:      -7.9      0.541      1.439
REMARK  Name = 
REMARK  6 active torsions:
REMARK  status: ('A' for Active; 'I' for Inactive)
REMARK    1  A    between atoms: C_8  and  C_9
REMARK    2  A    between atoms: C_9  and  N_10
REMARK    3  A    between atoms: N_17  and  C_18
REMARK    4  A    between atoms: C_18  and  C_19
REMARK    5  A    between atoms: C_19  and  C_20
REMARK    6  A    between atoms: C_20  and  C_21
REMARK                            x       y       z     vdW  Elec       q    Type
REMARK                         _______ _______ _______ _____ _____    ______ ____
ROOT
ATOM      1  F   UNL     1       0.277   1.571  18.596  0.00  0.00    +0.000 F 
ATOM      2  C   UNL     1       1.384   2.327  18.600  0.00  0.00    +0.000 A 
ATOM      3  C   UNL     1       2.548   1.831  18.034  0.00  0.00    +0.000 A 
ATOM      4  C   UNL     1       3.714   2.601  18.024  0.00  0.00    +0.000 A 
ATOM      5  C   UNL     1       3.673   3.878  18.614  0.00  0.00    +0.000 A 
ATOM      6  C   UNL     1       2.501   4.389  19.188  0.00  0.00    +0.000 A 
ATOM      7  C   UNL     1       1.335   3.595  19.174  0.00  0.00    +0.000 A 
ATOM      8  C   UNL     1       2.794   5.701  19.684  0.00  0.00    +0.000 A 
ATOM      9  C   UNL     1       4.127   5.933  19.423  0.00  0.00    +0.000 A 
ATOM     10  N   UNL     1       4.647   4.843  18.777  0.00  0.00    +0.000 N 
ENDROOT
BRANCH   8  11
ATOM     11  C   UNL     1       1.845   6.639  20.363  0.00  0.00    +0.000 C 
BRANCH  11  12
ATOM     12  N   UNL     1       2.005   8.022  19.860  0.00  0.00    +0.000 NA
ATOM     13  C   UNL     1       1.842   8.072  18.397  0.00  0.00    +0.000 C 
ATOM     14  C   UNL     1       1.865   9.500  17.847  0.00  0.00    +0.000 C 
ATOM     15  C   UNL     1       0.824  10.368  18.536  0.00  0.00    +0.000 C 
ATOM     16  C   UNL     1       1.047  10.327  20.040  0.00  0.00    +0.000 C 
ATOM     17  C   UNL     1       1.043   8.889  20.557  0.00  0.00    +0.000 C 
ENDBRANCH  11  12
ENDBRANCH   8  11
BRANCH  10  18
ATOM     18  C   UNL     1       6.028   4.771  18.333  0.00  0.00    +0.000 C 
BRANCH  18  19
ATOM     19  C   UNL     1       6.177   4.286  16.893  0.00  0.00    +0.000 C 
BRANCH  19  20
ATOM     20  C   UNL     1       6.311   5.424  15.879  0.00  0.00    +0.000 C 
BRANCH  20  21
ATOM     21  C   UNL     1       6.540   4.873  14.491  0.00  0.00    +0.000 A 
ATOM     22  C   UNL     1       7.587   5.363  13.700  0.00  0.00    +0.000 A 
ATOM     23  C   UNL     1       7.756   4.901  12.395  0.00  0.00    +0.000 A 
ATOM     24  C   UNL     1       6.881   3.956  11.869  0.00  0.00    +0.000 A 
ATOM     25  C   UNL     1       5.838   3.462  12.651  0.00  0.00    +0.000 A 
ATOM     26  C   UNL     1       5.666   3.917  13.955  0.00  0.00    +0.000 A 
ENDBRANCH  20  21
ENDBRANCH  19  20
ENDBRANCH  18  19
ENDBRANCH  10  18
TORSDOF 6
ENDMDL
MODEL 5
REMARK VINA RESULT:      -7.8      4.218      6.509
REMARK  Name = 
REMARK  6 active torsions:
REMARK  status: ('A' for Active; 'I' for Inactive)
REMARK    1  A    between atoms: C_8  and  C_9
REMARK    2  A    between atoms: C_9  and  N_10
REMARK    3  A    between atoms: N_17  and  C_18
REMARK    4  A    between atoms: C_18  and  C_19
REMARK    5  A    between atoms: C_19  and  C_20
REMARK    6  A    between atoms: C_20  and  C_21
REMARK                            x       y       z     vdW  Elec       q    Type
REMARK                         _______ _______ _______ _____ _____    ______ ____
ROOT
ATOM      1  F   UNL     1       5.243   3.565  13.672  0.00  0.00    +0.000 F 
ATOM      2  C   UNL     1       5.758   4.213  14.726  0.00  0.00    +0.000 A 
ATOM      3  C   UNL     1       6.673   5.234  14.515  0.00  0.00    +0.000 A 
ATOM      4  C   UNL     1       7.222   5.926  15.598  0.00  0.00    +0.000 A 
ATOM      5  C   UNL     1       6.831   5.549  16.896  0.00  0.00    +0.000 A 
ATOM      6  C   UNL     1       5.907   4.520  17.119  0.00  0.00    +0.000 A 
ATOM      7  C   UNL     1       5.359   3.846  16.008  0.00  0.00    +0.000 A 
ATOM      8  C   UNL     1       5.724   4.397  18.535  0.00  0.00    +0.000 A 
ATOM      9  C   UNL     1       6.554   5.328  19.122  0.00  0.00    +0.000 A 
ATOM     10  N   UNL     1       7.209   6.018  18.138  0.00  0.00    +0.000 N 
ENDROOT
BRANCH   8  11
ATOM     11  C   UNL     1       4.816   3.442  19.246  0.00  0.00    +0.000 C 
BRANCH  11  12
ATOM     12  N   UNL     1       3.404   3.875  19.154  0.00  0.00    +0.000 NA
ATOM     13  C   UNL     1       2.511   2.720  18.957  0.00  0.00    +0.000 C 
ATOM     14  C   UNL     1       1.030   3.103  18.991  0.00  0.00    +0.000 C 
ATOM     15  C   UNL     1       0.685   3.838  20.278  0.00  0.00    +0.000 C 
ATOM     16  C   UNL     1       1.596   5.047  20.429  0.00  0.00    +0.000 C 
ATOM     17  C   UNL     1       3.067   4.637  20.367  0.00  0.00    +0.000 C 
ENDBRANCH  11  12
ENDBRANCH   8  11
BRANCH  10  18
ATOM     18  C   UNL     1       8.145   7.093  18.415  0.00  0.00    +0.000 C 
BRANCH  18  19
ATOM     19  C   UNL     1       7.547   8.484  18.217  0.00  0.00    +0.000 C 
BRANCH  19  20
ATOM     20  C   UNL     1       8.478   9.445  17.474  0.00  0.00    +0.000 C 
BRANCH  20  21
ATOM     21  C   UNL     1       8.928  10.560  18.388  0.00  0.00    +0.000 A 
ATOM     22  C   UNL     1       9.015  11.874  17.911  0.00  0.00    +0.000 A 
ATOM     23  C   UNL     1       9.494  12.890  18.737  0.00  0.00    +0.000 A 
ATOM     24  C   UNL     1       9.896  12.603  20.038  0.00  0.00    +0.000 A 
ATOM     25  C   UNL     1       9.810  11.299  20.521  0.00  0.00    +0.000 A 
ATOM     26  C   UNL     1       9.330  10.280  19.702  0.00  0.00    +0.000 A 
ENDBRANCH  20  21
ENDBRANCH  19  20
ENDBRANCH  18  19
ENDBRANCH  10  18
TORSDOF 6
ENDMDL
MODEL 6
REMARK VINA RESULT:      -7.7      1.054      1.635
REMARK  Name = 
REMARK  6 active torsions:
REMARK  status: ('A' for Active; 'I' for Inactive)
REMARK    1  A    between atoms: C_8  and  C_9
REMARK    2  A    between atoms: C_9  and  N_10
REMARK    3  A    between atoms: N_17  and  C_18
REMARK    4  A    between atoms: C_18  and  C_19
REMARK    5  A    between atoms: C_19  and  C_20
REMARK    6  A    between atoms: C_20  and  C_21
REMARK                            x       y       z     vdW  Elec       q    Type
REMARK                         _______ _______ _______ _____ _____    ______ ____
ROOT
ATOM      1  F   UNL     1       0.649   2.532  19.774  0.00  0.00    +0.000 F 
ATOM      2  C   UNL     1       1.702   3.247  19.352  0.00  0.00    +0.000 A 
ATOM      3  C   UNL     1       2.947   2.643  19.274  0.00  0.00    +0.000 A 
ATOM      4  C   UNL     1       4.059   3.366  18.836  0.00  0.00    +0.000 A 
ATOM      5  C   UNL     1       3.879   4.719  18.493  0.00  0.00    +0.000 A 
ATOM      6  C   UNL     1       2.624   5.339  18.568  0.00  0.00    +0.000 A 
ATOM      7  C   UNL     1       1.516   4.582  19.002  0.00  0.00    +0.000 A 
ATOM      8  C   UNL     1       2.784   6.699  18.145  0.00  0.00    +0.000 A 
ATOM      9  C   UNL     1       4.121   6.868  17.856  0.00  0.00    +0.000 A 
ATOM     10  N   UNL     1       4.770   5.680  18.059  0.00  0.00    +0.000 N 
ENDROOT
BRANCH   8  11
ATOM     11  C   UNL     1       1.714   7.741  18.043  0.00  0.00    +0.000 C 
BRANCH  11  12
ATOM     12  N   UNL     1       1.788   8.699  19.169  0.00  0.00    +0.000 NA
ATOM     13  C   UNL     1       0.869   9.831  18.959  0.00  0.00    +0.000 C 
ATOM     14  C   UNL     1       0.813  10.778  20.160  0.00  0.00    +0.000 C 
ATOM     15  C   UNL     1       0.459  10.025  21.433  0.00  0.00    +0.000 C 
ATOM     16  C   UNL     1       1.451   8.891  21.641  0.00  0.00    +0.000 C 
ATOM     17  C   UNL     1       1.505   7.976  20.418  0.00  0.00    +0.000 C 
ENDBRANCH  11  12
ENDBRANCH   8  11
BRANCH  10  18
ATOM     18  C   UNL     1       6.192   5.505  17.820  0.00  0.00    +0.000 C 
BRANCH  18  19
ATOM     19  C   UNL     1       6.504   4.451  16.761  0.00  0.00    +0.000 C 
BRANCH  19  20
ATOM     20  C   UNL     1       5.446   4.368  15.657  0.00  0.00    +0.000 C 
BRANCH  20  21
ATOM     21  C   UNL     1       6.100   4.378  14.296  0.00  0.00    +0.000 A 
ATOM     22  C   UNL     1       5.611   3.558  13.271  0.00  0.00    +0.000 A 
ATOM     23  C   UNL     1       6.256   3.517  12.035  0.00  0.00    +0.000 A 
ATOM     24  C   UNL     1       7.396   4.286  11.816  0.00  0.00    +0.000 A 
ATOM     25  C   UNL     1       7.888   5.106  12.830  0.00  0.00    +0.000 A 
ATOM     26  C   UNL     1       7.245   5.152  14.065  0.00  0.00    +0.000 A 
ENDBRANCH  20  21
ENDBRANCH  19  20
ENDBRANCH  18  19
ENDBRANCH  10  18
TORSDOF 6
ENDMDL
MODEL 7
REMARK VINA RESULT:      -7.7      2.238      7.328
REMARK  Name = 
REMARK  6 active torsions:
REMARK  status: ('A' for Active; 'I' for Inactive)
REMARK    1  A    between atoms: C_8  and  C_9
REMARK    2  A    between atoms: C_9  and  N_10
REMARK    3  A    between atoms: N_17  and  C_18
REMARK    4  A    between atoms: C_18  and  C_19
REMARK    5  A    between atoms: C_19  and  C_20
REMARK    6  A    between atoms: C_20  and  C_21
REMARK                            x       y       z     vdW  Elec       q    Type
REMARK                         _______ _______ _______ _____ _____    ______ ____
ROOT
ATOM      1  F   UNL     1       2.716   1.598  18.044  0.00  0.00    +0.000 F 
ATOM      2  C   UNL     1       2.643   2.933  18.139  0.00  0.00    +0.000 A 
ATOM      3  C   UNL     1       1.700   3.504  18.979  0.00  0.00    +0.000 A 
ATOM      4  C   UNL     1       1.605   4.894  19.097  0.00  0.00    +0.000 A 
ATOM      5  C   UNL     1       2.481   5.686  18.331  0.00  0.00    +0.000 A 
ATOM      6  C   UNL     1       3.438   5.119  17.480  0.00  0.00    +0.000 A 
ATOM      7  C   UNL     1       3.520   3.713  17.390  0.00  0.00    +0.000 A 
ATOM      8  C   UNL     1       4.164   6.190  16.863  0.00  0.00    +0.000 A 
ATOM      9  C   UNL     1       3.612   7.362  17.334  0.00  0.00    +0.000 A 
ATOM     10  N   UNL     1       2.611   7.056  18.216  0.00  0.00    +0.000 N 
ENDROOT
BRANCH   8  11
ATOM     11  C   UNL     1       5.295   6.068  15.890  0.00  0.00    +0.000 C 
BRANCH  11  12
ATOM     12  N   UNL     1       6.601   6.045  16.586  0.00  0.00    +0.000 NA
ATOM     13  C   UNL     1       6.749   7.215  17.468  0.00  0.00    +0.000 C 
ATOM     14  C   UNL     1       8.026   7.164  18.309  0.00  0.00    +0.000 C 
ATOM     15  C   UNL     1       8.103   5.873  19.109  0.00  0.00    +0.000 C 
ATOM     16  C   UNL     1       7.989   4.686  18.164  0.00  0.00    +0.000 C 
ATOM     17  C   UNL     1       6.718   4.776  17.321  0.00  0.00    +0.000 C 
ENDBRANCH  11  12
ENDBRANCH   8  11
BRANCH  10  18
ATOM     18  C   UNL     1       1.839   8.067  18.918  0.00  0.00    +0.000 C 
BRANCH  18  19
ATOM     19  C   UNL     1       1.576   9.317  18.083  0.00  0.00    +0.000 C 
BRANCH  19  20
ATOM     20  C   UNL     1       1.059  10.500  18.905  0.00  0.00    +0.000 C 
BRANCH  20  21
ATOM     21  C   UNL     1      -0.396  10.763  18.598  0.00  0.00    +0.000 A 
ATOM     22  C   UNL     1      -1.130  11.668  19.374  0.00  0.00    +0.000 A 
ATOM     23  C   UNL     1      -2.490  11.860  19.132  0.00  0.00    +0.000 A 
ATOM     24  C   UNL     1      -3.127  11.146  18.121  0.00  0.00    +0.000 A 
ATOM     25  C   UNL     1      -2.404  10.245  17.343  0.00  0.00    +0.000 A 
ATOM     26  C   UNL     1      -1.045  10.052  17.579  0.00  0.00    +0.000 A 
ENDBRANCH  20  21
ENDBRANCH  19  20
ENDBRANCH  18  19
ENDBRANCH  10  18
TORSDOF 6
ENDMDL
MODEL 8
REMARK VINA RESULT:      -7.7      1.022      1.817
REMARK  Name = 
REMARK  6 active torsions:
REMARK  status: ('A' for Active; 'I' for Inactive)
REMARK    1  A    between atoms: C_8  and  C_9
REMARK    2  A    between atoms: C_9  and  N_10
REMARK    3  A    between atoms: N_17  and  C_18
REMARK    4  A    between atoms: C_18  and  C_19
REMARK    5  A    between atoms: C_19  and  C_20
REMARK    6  A    between atoms: C_20  and  C_21
REMARK                            x       y       z     vdW  Elec       q    Type
REMARK                         _______ _______ _______ _____ _____    ______ ____
ROOT
ATOM      1  F   UNL     1       0.284   2.816  18.376  0.00  0.00    +0.000 F 
ATOM      2  C   UNL     1       1.508   3.358  18.296  0.00  0.00    +0.000 A 
ATOM      3  C   UNL     1       2.622   2.545  18.431  0.00  0.00    +0.000 A 
ATOM      4  C   UNL     1       3.908   3.086  18.350  0.00  0.00    +0.000 A 
ATOM      5  C   UNL     1       4.034   4.472  18.142  0.00  0.00    +0.000 A 
ATOM      6  C   UNL     1       2.914   5.302  18.003  0.00  0.00    +0.000 A 
ATOM      7  C   UNL     1       1.628   4.728  18.078  0.00  0.00    +0.000 A 
ATOM      8  C   UNL     1       3.386   6.640  17.797  0.00  0.00    +0.000 A 
ATOM      9  C   UNL     1       4.763   6.584  17.843  0.00  0.00    +0.000 A 
ATOM     10  N   UNL     1       5.145   5.285  18.043  0.00  0.00    +0.000 N 
ENDROOT
BRANCH   8  11
ATOM     11  C   UNL     1       2.553   7.865  17.581  0.00  0.00    +0.000 C 
BRANCH  11  12
ATOM     12  N   UNL     1       1.593   8.064  18.690  0.00  0.00    +0.000 NA
ATOM     13  C   UNL     1       2.191   7.678  19.980  0.00  0.00    +0.000 C 
ATOM     14  C   UNL     1       1.284   7.993  21.171  0.00  0.00    +0.000 C 
ATOM     15  C   UNL     1       0.882   9.459  21.180  0.00  0.00    +0.000 C 
ATOM     16  C   UNL     1       0.231   9.813  19.851  0.00  0.00    +0.000 C 
ATOM     17  C   UNL     1       1.149   9.466  18.680  0.00  0.00    +0.000 C 
ENDBRANCH  11  12
ENDBRANCH   8  11
BRANCH  10  18
ATOM     18  C   UNL     1       6.536   4.872  18.115  0.00  0.00    +0.000 C 
BRANCH  18  19
ATOM     19  C   UNL     1       7.124   4.482  16.761  0.00  0.00    +0.000 C 
BRANCH  19  20
ATOM     20  C   UNL     1       6.071   4.009  15.755  0.00  0.00    +0.000 C 
BRANCH  20  21
ATOM     21  C   UNL     1       6.571   4.191  14.342  0.00  0.00    +0.000 A 
ATOM     22  C   UNL     1       7.501   5.195  14.046  0.00  0.00    +0.000 A 
ATOM     23  C   UNL     1       7.911   5.406  12.729  0.00  0.00    +0.000 A 
ATOM     24  C   UNL     1       7.391   4.625  11.702  0.00  0.00    +0.000 A 
ATOM     25  C   UNL     1       6.466   3.624  11.988  0.00  0.00    +0.000 A 
ATOM     26  C   UNL     1       6.056   3.406  13.301  0.00  0.00    +0.000 A 
ENDBRANCH  20  21
ENDBRANCH  19  20
ENDBRANCH  18  19
ENDBRANCH  10  18
TORSDOF 6
ENDMDL
MODEL 9
REMARK VINA RESULT:      -7.7      2.852      5.200
REMARK  Name = 
REMARK  6 active torsions:
REMARK  status: ('A' for Active; 'I' for Inactive)
REMARK    1  A    between atoms: C_8  and  C_9
REMARK    2  A    between atoms: C_9  and  N_10
REMARK    3  A    between atoms: N_17  and  C_18
REMARK    4  A    between atoms: C_18  and  C_19
REMARK    5  A    between atoms: C_19  and  C_20
REMARK    6  A    between atoms: C_20  and  C_21
REMARK                            x       y       z     vdW  Elec       q    Type
REMARK                         _______ _______ _______ _____ _____    ______ ____
ROOT
ATOM      1  F   UNL     1       6.101   6.224  15.481  0.00  0.00    +0.000 F 
ATOM      2  C   UNL     1       5.279   6.198  16.540  0.00  0.00    +0.000 A 
ATOM      3  C   UNL     1       5.355   5.141  17.434  0.00  0.00    +0.000 A 
ATOM      4  C   UNL     1       4.510   5.093  18.546  0.00  0.00    +0.000 A 
ATOM      5  C   UNL     1       3.582   6.135  18.721  0.00  0.00    +0.000 A 
ATOM      6  C   UNL     1       3.499   7.209  17.825  0.00  0.00    +0.000 A 
ATOM      7  C   UNL     1       4.371   7.238  16.717  0.00  0.00    +0.000 A 
ATOM      8  C   UNL     1       2.469   8.090  18.293  0.00  0.00    +0.000 A 
ATOM      9  C   UNL     1       1.947   7.516  19.432  0.00  0.00    +0.000 A 
ATOM     10  N   UNL     1       2.619   6.351  19.688  0.00  0.00    +0.000 N 
ENDROOT
BRANCH   8  11
ATOM     11  C   UNL     1       2.035   9.379  17.668  0.00  0.00    +0.000 C 
BRANCH  11  12
ATOM     12  N   UNL     1       1.085  10.105  18.541  0.00  0.00    +0.000 NA
ATOM     13  C   UNL     1       1.476  11.519  18.683  0.00  0.00    +0.000 C 
ATOM     14  C   UNL     1       0.451  12.340  19.466  0.00  0.00    +0.000 C 
ATOM     15  C   UNL     1      -0.933  12.223  18.846  0.00  0.00    +0.000 C 
ATOM     16  C   UNL     1      -1.322  10.756  18.752  0.00  0.00    +0.000 C 
ATOM     17  C   UNL     1      -0.269   9.956  17.987  0.00  0.00    +0.000 C 
ENDBRANCH  11  12
ENDBRANCH   8  11
BRANCH  10  18
ATOM     18  C   UNL     1       2.334   5.508  20.836  0.00  0.00    +0.000 C 
BRANCH  18  19
ATOM     19  C   UNL     1       0.997   4.777  20.734  0.00  0.00    +0.000 C 
BRANCH  19  20
ATOM     20  C   UNL     1       1.123   3.258  20.878  0.00  0.00    +0.000 C 
BRANCH  20  21
ATOM     21  C   UNL     1       2.086   2.707  19.854  0.00  0.00    +0.000 A 
ATOM     22  C   UNL     1       1.716   2.632  18.505  0.00  0.00    +0.000 A 
ATOM     23  C   UNL     1       2.580   2.062  17.570  0.00  0.00    +0.000 A 
ATOM     24  C   UNL     1       3.812   1.556  17.975  0.00  0.00    +0.000 A 
ATOM     25  C   UNL     1       4.188   1.629  19.314  0.00  0.00    +0.000 A 
ATOM     26  C   UNL     1       3.331   2.200  20.251  0.00  0.00    +0.000 A 
ENDBRANCH  20  21
ENDBRANCH  19  20
ENDBRANCH  18  19
ENDBRANCH  10  18
TORSDOF 6
ENDMDL
