MODEL 1
REMARK VINA RESULT:      -7.7      0.000      0.000
REMARK  Name = 
REMARK  10 active torsions:
REMARK  status: ('A' for Active; 'I' for Inactive)
REMARK    1  A    between atoms: C_1  and  C_2
REMARK    2  A    between atoms: C_2  and  C_3
REMARK    3  A    between atoms: C_2  and  N_4
REMARK    4  A    between atoms: N_4  and  C_5
REMARK    5  A    between atoms: C_5  and  C_6
REMARK    6  A    between atoms: C_12  and  C_14
REMARK    7  A    between atoms: C_14  and  C_15
REMARK    8  A    between atoms: C_15  and  S_16
REMARK    9  A    between atoms: S_16  and  C_19
REMARK   10  A    between atoms: N_28  and  C_29
REMARK                            x       y       z     vdW  Elec       q    Type
REMARK                         _______ _______ _______ _____ _____    ______ ____
ROOT
ATOM      1  C   UNL     1       1.699   9.325  18.206  0.00  0.00    +0.000 C 
ENDROOT
BRANCH   1   2
ATOM      2  S   UNL     1       0.927  10.283  19.483  0.00  0.00    +0.000 S 
ATOM      3  O   UNL     1       0.753   9.450  20.658  0.00  0.00    +0.000 OA
ATOM      4  O   UNL     1       1.594  11.568  19.566  0.00  0.00    +0.000 OA
BRANCH   2   5
ATOM      5  C   UNL     1      -0.694  10.559  18.786  0.00  0.00    +0.000 A 
ATOM      6  C   UNL     1      -1.629  11.403  19.421  0.00  0.00    +0.000 A 
ATOM      7  C   UNL     1      -2.849  11.704  18.789  0.00  0.00    +0.000 A 
ATOM      8  C   UNL     1      -3.081  11.145  17.552  0.00  0.00    +0.000 A 
ATOM      9  C   UNL     1      -2.163  10.295  16.955  0.00  0.00    +0.000 A 
ATOM     10  C   UNL     1      -0.968   9.968  17.549  0.00  0.00    +0.000 A 
ATOM     11  O   UNL     1      -2.551   9.853  15.706  0.00  0.00    +0.000 OA
ATOM     12  C   UNL     1      -3.776  10.503  15.531  0.00  0.00    +0.000 A 
ATOM     13  O   UNL     1      -4.443  10.398  14.511  0.00  0.00    +0.000 OA
ATOM     14  N   UNL     1      -4.104  11.258  16.639  0.00  0.00    +0.000 N 
ATOM     15  C   UNL     1      -5.292  12.057  16.720  0.00  0.00    +0.000 C 
ENDBRANCH   2   5
ENDBRANCH   1   2
BRANCH   1  16
ATOM     16  C   UNL     1       2.030   7.901  18.631  0.00  0.00    +0.000 C 
BRANCH  16  18
ATOM     17  N   UNL     1       3.963   6.327  18.332  0.00  0.00    +0.000 N 
ATOM     18  C   UNL     1       3.264   7.436  17.866  0.00  0.00    +0.000 C 
ATOM     19  O   UNL     1       3.601   8.050  16.851  0.00  0.00    +0.000 OA
BRANCH  17  21
ATOM     20  C   UNL     1       6.260   5.215  18.527  0.00  0.00    +0.000 C 
ATOM     21  C   UNL     1       5.180   5.838  17.632  0.00  0.00    +0.000 C 
ATOM     22  C   UNL     1       4.824   4.870  16.503  0.00  0.00    +0.000 C 
ENDBRANCH  17  21
BRANCH  17  23
ATOM     23  C   UNL     1       3.682   5.716  19.640  0.00  0.00    +0.000 C 
BRANCH  23  24
ATOM     24  C   UNL     1       2.682   4.581  19.617  0.00  0.00    +0.000 A 
ATOM     25  C   UNL     1       2.099   4.102  18.437  0.00  0.00    +0.000 A 
ATOM     26  C   UNL     1       1.102   3.125  18.481  0.00  0.00    +0.000 A 
ATOM     27  C   UNL     1       0.695   2.593  19.702  0.00  0.00    +0.000 A 
ATOM     28  C   UNL     1       1.308   3.012  20.879  0.00  0.00    +0.000 A 
ATOM     29  C   UNL     1       2.301   3.994  20.837  0.00  0.00    +0.000 A 
ENDBRANCH  23  24
ENDBRANCH  17  23
ENDBRANCH  16  18
ENDBRANCH   1  16
TORSDOF 7
ENDMDL
MODEL 2
REMARK VINA RESULT:      -7.6      1.676      2.031
REMARK  Name = 
REMARK  10 active torsions:
REMARK  status: ('A' for Active; 'I' for Inactive)
REMARK    1  A    between atoms: C_1  and  C_2
REMARK    2  A    between atoms: C_2  and  C_3
REMARK    3  A    between atoms: C_2  and  N_4
REMARK    4  A    between atoms: N_4  and  C_5
REMARK    5  A    between atoms: C_5  and  C_6
REMARK    6  A    between atoms: C_12  and  C_14
REMARK    7  A    between atoms: C_14  and  C_15
REMARK    8  A    between atoms: C_15  and  S_16
REMARK    9  A    between atoms: S_16  and  C_19
REMARK   10  A    between atoms: N_28  and  C_29
REMARK                            x       y       z     vdW  Elec       q    Type
REMARK                         _______ _______ _______ _____ _____    ______ ____
ROOT
ATOM      1  C   UNL     1       1.353   8.699  17.908  0.00  0.00    +0.000 C 
ENDROOT
BRANCH   1   2
ATOM      2  S   UNL     1       1.178  10.165  18.889  0.00  0.00    +0.000 S 
ATOM      3  O   UNL     1       1.247   9.804  20.292  0.00  0.00    +0.000 OA
ATOM      4  O   UNL     1       2.034  11.198  18.338  0.00  0.00    +0.000 OA
BRANCH   2   5
ATOM      5  C   UNL     1      -0.513  10.622  18.543  0.00  0.00    +0.000 A 
ATOM      6  C   UNL     1      -1.235  10.015  17.494  0.00  0.00    +0.000 A 
ATOM      7  C   UNL     1      -2.602  10.299  17.323  0.00  0.00    +0.000 A 
ATOM      8  C   UNL     1      -3.184  11.182  18.206  0.00  0.00    +0.000 A 
ATOM      9  C   UNL     1      -2.453  11.793  19.212  0.00  0.00    +0.000 A 
ATOM     10  C   UNL     1      -1.113  11.549  19.401  0.00  0.00    +0.000 A 
ATOM     11  O   UNL     1      -3.206  12.625  20.016  0.00  0.00    +0.000 OA
ATOM     12  C   UNL     1      -4.485  12.484  19.468  0.00  0.00    +0.000 A 
ATOM     13  O   UNL     1      -5.468  13.047  19.927  0.00  0.00    +0.000 OA
ATOM     14  N   UNL     1      -4.470  11.641  18.376  0.00  0.00    +0.000 N 
ATOM     15  C   UNL     1      -5.650  11.291  17.639  0.00  0.00    +0.000 C 
ENDBRANCH   2   5
ENDBRANCH   1   2
BRANCH   1  16
ATOM     16  C   UNL     1       2.166   7.606  18.588  0.00  0.00    +0.000 C 
BRANCH  16  18
ATOM     17  N   UNL     1       4.227   6.256  18.106  0.00  0.00    +0.000 N 
ATOM     18  C   UNL     1       3.397   7.310  17.737  0.00  0.00    +0.000 C 
ATOM     19  O   UNL     1       3.615   8.007  16.744  0.00  0.00    +0.000 OA
BRANCH  17  21
ATOM     20  C   UNL     1       6.577   5.241  18.097  0.00  0.00    +0.000 C 
ATOM     21  C   UNL     1       5.446   5.931  17.320  0.00  0.00    +0.000 C 
ATOM     22  C   UNL     1       5.106   5.114  16.072  0.00  0.00    +0.000 C 
ENDBRANCH  17  21
BRANCH  17  23
ATOM     23  C   UNL     1       4.080   5.553  19.389  0.00  0.00    +0.000 C 
BRANCH  23  24
ATOM     24  C   UNL     1       2.977   4.519  19.433  0.00  0.00    +0.000 A 
ATOM     25  C   UNL     1       2.745   3.607  18.394  0.00  0.00    +0.000 A 
ATOM     26  C   UNL     1       1.648   2.745  18.437  0.00  0.00    +0.000 A 
ATOM     27  C   UNL     1       0.784   2.761  19.530  0.00  0.00    +0.000 A 
ATOM     28  C   UNL     1       1.036   3.616  20.598  0.00  0.00    +0.000 A 
ATOM     29  C   UNL     1       2.130   4.484  20.555  0.00  0.00    +0.000 A 
ENDBRANCH  23  24
ENDBRANCH  17  23
ENDBRANCH  16  18
ENDBRANCH   1  16
TORSDOF 7
ENDMDL
MODEL 3
REMARK VINA RESULT:      -7.3      1.263      3.214
REMARK  Name = 
REMARK  10 active torsions:
REMARK  status: ('A' for Active; 'I' for Inactive)
REMARK    1  A    between atoms: C_1  and  C_2
REMARK    2  A    between atoms: C_2  and  C_3
REMARK    3  A    between atoms: C_2  and  N_4
REMARK    4  A    between atoms: N_4  and  C_5
REMARK    5  A    between atoms: C_5  and  C_6
REMARK    6  A    between atoms: C_12  and  C_14
REMARK    7  A    between atoms: C_14  and  C_15
REMARK    8  A    between atoms: C_15  and  S_16
REMARK    9  A    between atoms: S_16  and  C_19
REMARK   10  A    between atoms: N_28  and  C_29
REMARK                            x       y       z     vdW  Elec       q    Type
REMARK                         _______ _______ _______ _____ _____    ______ ____
ROOT
ATOM      1  C   UNL     1       1.072   8.499  20.004  0.00  0.00    +0.000 C 
ENDROOT
BRANCH   1   2
ATOM      2  S   UNL     1       1.131  10.200  19.511  0.00  0.00    +0.000 S 
ATOM      3  O   UNL     1       1.201  11.033  20.696  0.00  0.00    +0.000 OA
ATOM      4  O   UNL     1       2.097  10.340  18.439  0.00  0.00    +0.000 OA
BRANCH   2   5
ATOM      5  C   UNL     1      -0.495  10.420  18.805  0.00  0.00    +0.000 A 
ATOM      6  C   UNL     1      -1.480  11.188  19.460  0.00  0.00    +0.000 A 
ATOM      7  C   UNL     1      -2.707  11.451  18.825  0.00  0.00    +0.000 A 
ATOM      8  C   UNL     1      -2.895  10.931  17.564  0.00  0.00    +0.000 A 
ATOM      9  C   UNL     1      -1.929  10.153  16.946  0.00  0.00    +0.000 A 
ATOM     10  C   UNL     1      -0.724   9.865  17.542  0.00  0.00    +0.000 A 
ATOM     11  O   UNL     1      -2.279   9.741  15.676  0.00  0.00    +0.000 OA
ATOM     12  C   UNL     1      -3.535  10.334  15.511  0.00  0.00    +0.000 A 
ATOM     13  O   UNL     1      -4.184  10.235  14.479  0.00  0.00    +0.000 OA
ATOM     14  N   UNL     1      -3.913  11.026  16.643  0.00  0.00    +0.000 N 
ATOM     15  C   UNL     1      -5.142  11.759  16.740  0.00  0.00    +0.000 C 
ENDBRANCH   2   5
ENDBRANCH   1   2
BRANCH   1  16
ATOM     16  C   UNL     1       2.271   7.688  19.534  0.00  0.00    +0.000 C 
BRANCH  16  18
ATOM     17  N   UNL     1       2.496   5.245  18.999  0.00  0.00    +0.000 N 
ATOM     18  C   UNL     1       2.035   6.221  19.877  0.00  0.00    +0.000 C 
ATOM     19  O   UNL     1       1.450   5.942  20.926  0.00  0.00    +0.000 OA
BRANCH  17  21
ATOM     20  C   UNL     1       1.756   2.965  18.102  0.00  0.00    +0.000 C 
ATOM     21  C   UNL     1       2.283   3.800  19.277  0.00  0.00    +0.000 C 
ATOM     22  C   UNL     1       3.543   3.149  19.849  0.00  0.00    +0.000 C 
ENDBRANCH  17  21
BRANCH  17  23
ATOM     23  C   UNL     1       3.016   5.574  17.663  0.00  0.00    +0.000 C 
BRANCH  23  24
ATOM     24  C   UNL     1       4.473   5.235  17.438  0.00  0.00    +0.000 A 
ATOM     25  C   UNL     1       5.508   5.761  18.223  0.00  0.00    +0.000 A 
ATOM     26  C   UNL     1       6.843   5.499  17.908  0.00  0.00    +0.000 A 
ATOM     27  C   UNL     1       7.161   4.686  16.822  0.00  0.00    +0.000 A 
ATOM     28  C   UNL     1       6.144   4.105  16.070  0.00  0.00    +0.000 A 
ATOM     29  C   UNL     1       4.808   4.371  16.381  0.00  0.00    +0.000 A 
ENDBRANCH  23  24
ENDBRANCH  17  23
ENDBRANCH  16  18
ENDBRANCH   1  16
TORSDOF 7
ENDMDL
MODEL 4
REMARK VINA RESULT:      -7.3      5.202      8.676
REMARK  Name = 
REMARK  10 active torsions:
REMARK  status: ('A' for Active; 'I' for Inactive)
REMARK    1  A    between atoms: C_1  and  C_2
REMARK    2  A    between atoms: C_2  and  C_3
REMARK    3  A    between atoms: C_2  and  N_4
REMARK    4  A    between atoms: N_4  and  C_5
REMARK    5  A    between atoms: C_5  and  C_6
REMARK    6  A    between atoms: C_12  and  C_14
REMARK    7  A    between atoms: C_14  and  C_15
REMARK    8  A    between atoms: C_15  and  S_16
REMARK    9  A    between atoms: S_16  and  C_19
REMARK   10  A    between atoms: N_28  and  C_29
REMARK                            x       y       z     vdW  Elec       q    Type
REMARK                         _______ _______ _______ _____ _____    ______ ____
ROOT
ATOM      1  C   UNL     1       5.644   5.939  18.565  0.00  0.00    +0.000 C 
ENDROOT
BRANCH   1   2
ATOM      2  S   UNL     1       7.293   5.767  17.937  0.00  0.00    +0.000 S 
ATOM      3  O   UNL     1       7.834   7.085  17.666  0.00  0.00    +0.000 OA
ATOM      4  O   UNL     1       8.010   4.818  18.766  0.00  0.00    +0.000 OA
BRANCH   2   5
ATOM      5  C   UNL     1       6.991   4.985  16.359  0.00  0.00    +0.000 A 
ATOM      6  C   UNL     1       6.042   3.949  16.226  0.00  0.00    +0.000 A 
ATOM      7  C   UNL     1       5.732   3.438  14.953  0.00  0.00    +0.000 A 
ATOM      8  C   UNL     1       6.387   3.983  13.871  0.00  0.00    +0.000 A 
ATOM      9  C   UNL     1       7.337   4.980  14.023  0.00  0.00    +0.000 A 
ATOM     10  C   UNL     1       7.675   5.494  15.252  0.00  0.00    +0.000 A 
ATOM     11  O   UNL     1       7.869   5.424  12.828  0.00  0.00    +0.000 OA
ATOM     12  C   UNL     1       7.169   4.655  11.893  0.00  0.00    +0.000 A 
ATOM     13  O   UNL     1       7.329   4.773  10.686  0.00  0.00    +0.000 OA
ATOM     14  N   UNL     1       6.300   3.781  12.513  0.00  0.00    +0.000 N 
ATOM     15  C   UNL     1       5.432   2.895  11.793  0.00  0.00    +0.000 C 
ENDBRANCH   2   5
ENDBRANCH   1   2
BRANCH   1  16
ATOM     16  C   UNL     1       5.343   5.017  19.739  0.00  0.00    +0.000 C 
BRANCH  16  18
ATOM     17  N   UNL     1       2.906   4.420  19.640  0.00  0.00    +0.000 N 
ATOM     18  C   UNL     1       4.218   4.068  19.338  0.00  0.00    +0.000 C 
ATOM     19  O   UNL     1       4.503   3.022  18.753  0.00  0.00    +0.000 OA
BRANCH  17  21
ATOM     20  C   UNL     1       0.600   3.508  20.275  0.00  0.00    +0.000 C 
ATOM     21  C   UNL     1       1.772   3.527  19.283  0.00  0.00    +0.000 C 
ATOM     22  C   UNL     1       1.251   3.819  17.875  0.00  0.00    +0.000 C 
ENDBRANCH  17  21
BRANCH  17  23
ATOM     23  C   UNL     1       2.579   5.563  20.505  0.00  0.00    +0.000 C 
BRANCH  23  24
ATOM     24  C   UNL     1       2.178   6.827  19.776  0.00  0.00    +0.000 A 
ATOM     25  C   UNL     1       2.458   7.047  18.421  0.00  0.00    +0.000 A 
ATOM     26  C   UNL     1       2.161   8.273  17.823  0.00  0.00    +0.000 A 
ATOM     27  C   UNL     1       1.554   9.286  18.564  0.00  0.00    +0.000 A 
ATOM     28  C   UNL     1       1.212   9.061  19.894  0.00  0.00    +0.000 A 
ATOM     29  C   UNL     1       1.514   7.837  20.495  0.00  0.00    +0.000 A 
ENDBRANCH  23  24
ENDBRANCH  17  23
ENDBRANCH  16  18
ENDBRANCH   1  16
TORSDOF 7
ENDMDL
MODEL 5
REMARK VINA RESULT:      -7.2      1.965      3.642
REMARK  Name = 
REMARK  10 active torsions:
REMARK  status: ('A' for Active; 'I' for Inactive)
REMARK    1  A    between atoms: C_1  and  C_2
REMARK    2  A    between atoms: C_2  and  C_3
REMARK    3  A    between atoms: C_2  and  N_4
REMARK    4  A    between atoms: N_4  and  C_5
REMARK    5  A    between atoms: C_5  and  C_6
REMARK    6  A    between atoms: C_12  and  C_14
REMARK    7  A    between atoms: C_14  and  C_15
REMARK    8  A    between atoms: C_15  and  S_16
REMARK    9  A    between atoms: S_16  and  C_19
REMARK   10  A    between atoms: N_28  and  C_29
REMARK                            x       y       z     vdW  Elec       q    Type
REMARK                         _______ _______ _______ _____ _____    ______ ____
ROOT
ATOM      1  C   UNL     1       1.217   8.521  18.199  0.00  0.00    +0.000 C 
ENDROOT
BRANCH   1   2
ATOM      2  S   UNL     1       1.144  10.150  18.894  0.00  0.00    +0.000 S 
ATOM      3  O   UNL     1       1.270  10.054  20.335  0.00  0.00    +0.000 OA
ATOM      4  O   UNL     1       2.009  11.023  18.122  0.00  0.00    +0.000 OA
BRANCH   2   5
ATOM      5  C   UNL     1      -0.544  10.611  18.539  0.00  0.00    +0.000 A 
ATOM      6  C   UNL     1      -1.266   9.997  17.493  0.00  0.00    +0.000 A 
ATOM      7  C   UNL     1      -2.631  10.286  17.316  0.00  0.00    +0.000 A 
ATOM      8  C   UNL     1      -3.212  11.178  18.190  0.00  0.00    +0.000 A 
ATOM      9  C   UNL     1      -2.481  11.794  19.193  0.00  0.00    +0.000 A 
ATOM     10  C   UNL     1      -1.143  11.546  19.388  0.00  0.00    +0.000 A 
ATOM     11  O   UNL     1      -3.234  12.635  19.989  0.00  0.00    +0.000 OA
ATOM     12  C   UNL     1      -4.511  12.494  19.438  0.00  0.00    +0.000 A 
ATOM     13  O   UNL     1      -5.494  13.065  19.890  0.00  0.00    +0.000 OA
ATOM     14  N   UNL     1      -4.497  11.642  18.353  0.00  0.00    +0.000 N 
ATOM     15  C   UNL     1      -5.676  11.291  17.616  0.00  0.00    +0.000 C 
ENDBRANCH   2   5
ENDBRANCH   1   2
BRANCH   1  16
ATOM     16  C   UNL     1       2.540   7.810  18.452  0.00  0.00    +0.000 C 
BRANCH  16  18
ATOM     17  N   UNL     1       2.689   5.381  19.068  0.00  0.00    +0.000 N 
ATOM     18  C   UNL     1       2.300   6.666  19.432  0.00  0.00    +0.000 C 
ATOM     19  O   UNL     1       1.778   6.914  20.520  0.00  0.00    +0.000 OA
BRANCH  17  21
ATOM     20  C   UNL     1       1.011   3.956  20.372  0.00  0.00    +0.000 C 
ATOM     21  C   UNL     1       2.470   4.227  19.978  0.00  0.00    +0.000 C 
ATOM     22  C   UNL     1       3.100   2.948  19.423  0.00  0.00    +0.000 C 
ENDBRANCH  17  21
BRANCH  17  23
ATOM     23  C   UNL     1       3.130   5.051  17.703  0.00  0.00    +0.000 C 
BRANCH  23  24
ATOM     24  C   UNL     1       4.629   4.999  17.507  0.00  0.00    +0.000 A 
ATOM     25  C   UNL     1       5.230   4.464  16.360  0.00  0.00    +0.000 A 
ATOM     26  C   UNL     1       6.618   4.343  16.274  0.00  0.00    +0.000 A 
ATOM     27  C   UNL     1       7.426   4.781  17.322  0.00  0.00    +0.000 A 
ATOM     28  C   UNL     1       6.849   5.371  18.442  0.00  0.00    +0.000 A 
ATOM     29  C   UNL     1       5.459   5.488  18.531  0.00  0.00    +0.000 A 
ENDBRANCH  23  24
ENDBRANCH  17  23
ENDBRANCH  16  18
ENDBRANCH   1  16
TORSDOF 7
ENDMDL
MODEL 6
REMARK VINA RESULT:      -7.2      3.554      4.629
REMARK  Name = 
REMARK  10 active torsions:
REMARK  status: ('A' for Active; 'I' for Inactive)
REMARK    1  A    between atoms: C_1  and  C_2
REMARK    2  A    between atoms: C_2  and  C_3
REMARK    3  A    between atoms: C_2  and  N_4
REMARK    4  A    between atoms: N_4  and  C_5
REMARK    5  A    between atoms: C_5  and  C_6
REMARK    6  A    between atoms: C_12  and  C_14
REMARK    7  A    between atoms: C_14  and  C_15
REMARK    8  A    between atoms: C_15  and  S_16
REMARK    9  A    between atoms: S_16  and  C_19
REMARK   10  A    between atoms: N_28  and  C_29
REMARK                            x       y       z     vdW  Elec       q    Type
REMARK                         _______ _______ _______ _____ _____    ______ ____
ROOT
ATOM      1  C   UNL     1       3.361   7.072  17.423  0.00  0.00    +0.000 C 
ENDROOT
BRANCH   1   2
ATOM      2  S   UNL     1       2.597   6.508  18.921  0.00  0.00    +0.000 S 
ATOM      3  O   UNL     1       1.536   5.578  18.588  0.00  0.00    +0.000 OA
ATOM      4  O   UNL     1       3.637   6.152  19.867  0.00  0.00    +0.000 OA
BRANCH   2   5
ATOM      5  C   UNL     1       1.823   8.007  19.508  0.00  0.00    +0.000 A 
ATOM      6  C   UNL     1       1.495   9.056  18.624  0.00  0.00    +0.000 A 
ATOM      7  C   UNL     1       0.771  10.169  19.090  0.00  0.00    +0.000 A 
ATOM      8  C   UNL     1       0.413  10.184  20.419  0.00  0.00    +0.000 A 
ATOM      9  C   UNL     1       0.770   9.159  21.281  0.00  0.00    +0.000 A 
ATOM     10  C   UNL     1       1.486   8.063  20.864  0.00  0.00    +0.000 A 
ATOM     11  O   UNL     1       0.301   9.330  22.569  0.00  0.00    +0.000 OA
ATOM     12  C   UNL     1      -0.407  10.532  22.465  0.00  0.00    +0.000 A 
ATOM     13  O   UNL     1      -1.015  11.025  23.405  0.00  0.00    +0.000 OA
ATOM     14  N   UNL     1      -0.324  11.053  21.191  0.00  0.00    +0.000 N 
ATOM     15  C   UNL     1      -0.984  12.263  20.794  0.00  0.00    +0.000 C 
ENDBRANCH   2   5
ENDBRANCH   1   2
BRANCH   1  16
ATOM     16  C   UNL     1       4.880   6.969  17.440  0.00  0.00    +0.000 C 
BRANCH  16  18
ATOM     17  N   UNL     1       5.737   4.951  16.214  0.00  0.00    +0.000 N 
ATOM     18  C   UNL     1       5.337   6.283  16.156  0.00  0.00    +0.000 C 
ATOM     19  O   UNL     1       5.331   6.926  15.104  0.00  0.00    +0.000 OA
BRANCH  17  21
ATOM     20  C   UNL     1       5.139   3.996  13.916  0.00  0.00    +0.000 C 
ATOM     21  C   UNL     1       6.203   4.238  14.997  0.00  0.00    +0.000 C 
ATOM     22  C   UNL     1       7.420   4.926  14.377  0.00  0.00    +0.000 C 
ENDBRANCH  17  21
BRANCH  17  23
ATOM     23  C   UNL     1       5.931   4.245  17.490  0.00  0.00    +0.000 C 
BRANCH  23  24
ATOM     24  C   UNL     1       4.706   3.535  18.023  0.00  0.00    +0.000 A 
ATOM     25  C   UNL     1       4.577   3.136  19.361  0.00  0.00    +0.000 A 
ATOM     26  C   UNL     1       3.473   2.390  19.777  0.00  0.00    +0.000 A 
ATOM     27  C   UNL     1       2.470   2.056  18.871  0.00  0.00    +0.000 A 
ATOM     28  C   UNL     1       2.552   2.497  17.553  0.00  0.00    +0.000 A 
ATOM     29  C   UNL     1       3.658   3.238  17.133  0.00  0.00    +0.000 A 
ENDBRANCH  23  24
ENDBRANCH  17  23
ENDBRANCH  16  18
ENDBRANCH   1  16
TORSDOF 7
ENDMDL
MODEL 7
REMARK VINA RESULT:      -7.2      0.597      1.178
REMARK  Name = 
REMARK  10 active torsions:
REMARK  status: ('A' for Active; 'I' for Inactive)
REMARK    1  A    between atoms: C_1  and  C_2
REMARK    2  A    between atoms: C_2  and  C_3
REMARK    3  A    between atoms: C_2  and  N_4
REMARK    4  A    between atoms: N_4  and  C_5
REMARK    5  A    between atoms: C_5  and  C_6
REMARK    6  A    between atoms: C_12  and  C_14
REMARK    7  A    between atoms: C_14  and  C_15
REMARK    8  A    between atoms: C_15  and  S_16
REMARK    9  A    between atoms: S_16  and  C_19
REMARK   10  A    between atoms: N_28  and  C_29
REMARK                            x       y       z     vdW  Elec       q    Type
REMARK                         _______ _______ _______ _____ _____    ______ ____
ROOT
ATOM      1  C   UNL     1       1.715   9.287  18.301  0.00  0.00    +0.000 C 
ENDROOT
BRANCH   1   2
ATOM      2  S   UNL     1       0.877  10.166  19.592  0.00  0.00    +0.000 S 
ATOM      3  O   UNL     1       0.651   9.265  20.706  0.00  0.00    +0.000 OA
ATOM      4  O   UNL     1       1.531  11.446  19.784  0.00  0.00    +0.000 OA
BRANCH   2   5
ATOM      5  C   UNL     1      -0.710  10.479  18.834  0.00  0.00    +0.000 A 
ATOM      6  C   UNL     1      -1.634  11.373  19.414  0.00  0.00    +0.000 A 
ATOM      7  C   UNL     1      -2.821  11.698  18.733  0.00  0.00    +0.000 A 
ATOM      8  C   UNL     1      -3.033  11.112  17.506  0.00  0.00    +0.000 A 
ATOM      9  C   UNL     1      -2.128  10.212  16.964  0.00  0.00    +0.000 A 
ATOM     10  C   UNL     1      -0.964   9.861  17.606  0.00  0.00    +0.000 A 
ATOM     11  O   UNL     1      -2.491   9.747  15.715  0.00  0.00    +0.000 OA
ATOM     12  C   UNL     1      -3.685  10.435  15.482  0.00  0.00    +0.000 A 
ATOM     13  O   UNL     1      -4.322  10.324  14.443  0.00  0.00    +0.000 OA
ATOM     14  N   UNL     1      -4.021  11.233  16.556  0.00  0.00    +0.000 N 
ATOM     15  C   UNL     1      -5.182  12.075  16.575  0.00  0.00    +0.000 C 
ENDBRANCH   2   5
ENDBRANCH   1   2
BRANCH   1  16
ATOM     16  C   UNL     1       2.260   7.935  18.741  0.00  0.00    +0.000 C 
BRANCH  16  18
ATOM     17  N   UNL     1       4.085   6.354  18.054  0.00  0.00    +0.000 N 
ATOM     18  C   UNL     1       3.403   7.542  17.812  0.00  0.00    +0.000 C 
ATOM     19  O   UNL     1       3.684   8.284  16.868  0.00  0.00    +0.000 OA
BRANCH  17  21
ATOM     20  C   UNL     1       5.117   6.342  15.712  0.00  0.00    +0.000 C 
ATOM     21  C   UNL     1       5.215   5.928  17.187  0.00  0.00    +0.000 C 
ATOM     22  C   UNL     1       6.560   6.379  17.761  0.00  0.00    +0.000 C 
ENDBRANCH  17  21
BRANCH  17  23
ATOM     23  C   UNL     1       3.885   5.571  19.284  0.00  0.00    +0.000 C 
BRANCH  23  24
ATOM     24  C   UNL     1       2.777   4.542  19.216  0.00  0.00    +0.000 A 
ATOM     25  C   UNL     1       1.720   4.499  20.134  0.00  0.00    +0.000 A 
ATOM     26  C   UNL     1       0.782   3.465  20.090  0.00  0.00    +0.000 A 
ATOM     27  C   UNL     1       0.872   2.477  19.112  0.00  0.00    +0.000 A 
ATOM     28  C   UNL     1       1.880   2.540  18.155  0.00  0.00    +0.000 A 
ATOM     29  C   UNL     1       2.822   3.570  18.201  0.00  0.00    +0.000 A 
ENDBRANCH  23  24
ENDBRANCH  17  23
ENDBRANCH  16  18
ENDBRANCH   1  16
TORSDOF 7
ENDMDL
MODEL 8
REMARK VINA RESULT:      -7.1      3.199      4.778
REMARK  Name = 
REMARK  10 active torsions:
REMARK  status: ('A' for Active; 'I' for Inactive)
REMARK    1  A    between atoms: C_1  and  C_2
REMARK    2  A    between atoms: C_2  and  C_3
REMARK    3  A    between atoms: C_2  and  N_4
REMARK    4  A    between atoms: N_4  and  C_5
REMARK    5  A    between atoms: C_5  and  C_6
REMARK    6  A    between atoms: C_12  and  C_14
REMARK    7  A    between atoms: C_14  and  C_15
REMARK    8  A    between atoms: C_15  and  S_16
REMARK    9  A    between atoms: S_16  and  C_19
REMARK   10  A    between atoms: N_28  and  C_29
REMARK                            x       y       z     vdW  Elec       q    Type
REMARK                         _______ _______ _______ _____ _____    ______ ____
ROOT
ATOM      1  C   UNL     1       1.590   9.010  17.999  0.00  0.00    +0.000 C 
ENDROOT
BRANCH   1   2
ATOM      2  S   UNL     1       0.501   9.851  19.117  0.00  0.00    +0.000 S 
ATOM      3  O   UNL     1      -0.737  10.160  18.427  0.00  0.00    +0.000 OA
ATOM      4  O   UNL     1       0.497   9.143  20.382  0.00  0.00    +0.000 OA
BRANCH   2   5
ATOM      5  C   UNL     1       1.369  11.393  19.363  0.00  0.00    +0.000 A 
ATOM      6  C   UNL     1       2.086  12.004  18.313  0.00  0.00    +0.000 A 
ATOM      7  C   UNL     1       2.653  13.278  18.497  0.00  0.00    +0.000 A 
ATOM      8  C   UNL     1       2.481  13.882  19.722  0.00  0.00    +0.000 A 
ATOM      9  C   UNL     1       1.799  13.254  20.752  0.00  0.00    +0.000 A 
ATOM     10  C   UNL     1       1.242  12.005  20.613  0.00  0.00    +0.000 A 
ATOM     11  O   UNL     1       1.701  14.019  21.898  0.00  0.00    +0.000 OA
ATOM     12  C   UNL     1       2.350  15.198  21.519  0.00  0.00    +0.000 A 
ATOM     13  O   UNL     1       2.452  16.166  22.260  0.00  0.00    +0.000 OA
ATOM     14  N   UNL     1       2.834  15.111  20.230  0.00  0.00    +0.000 N 
ATOM     15  C   UNL     1       3.514  16.189  19.573  0.00  0.00    +0.000 C 
ENDBRANCH   2   5
ENDBRANCH   1   2
BRANCH   1  16
ATOM     16  C   UNL     1       2.225   7.761  18.594  0.00  0.00    +0.000 C 
BRANCH  16  18
ATOM     17  N   UNL     1       4.210   6.291  18.143  0.00  0.00    +0.000 N 
ATOM     18  C   UNL     1       3.444   7.386  17.757  0.00  0.00    +0.000 C 
ATOM     19  O   UNL     1       3.709   8.059  16.758  0.00  0.00    +0.000 OA
BRANCH  17  21
ATOM     20  C   UNL     1       6.513   5.174  18.172  0.00  0.00    +0.000 C 
ATOM     21  C   UNL     1       5.414   5.887  17.371  0.00  0.00    +0.000 C 
ATOM     22  C   UNL     1       5.039   5.047  16.149  0.00  0.00    +0.000 C 
ENDBRANCH  17  21
BRANCH  17  23
ATOM     23  C   UNL     1       4.012   5.611  19.432  0.00  0.00    +0.000 C 
BRANCH  23  24
ATOM     24  C   UNL     1       2.923   4.561  19.445  0.00  0.00    +0.000 A 
ATOM     25  C   UNL     1       2.759   3.620  18.419  0.00  0.00    +0.000 A 
ATOM     26  C   UNL     1       1.674   2.741  18.427  0.00  0.00    +0.000 A 
ATOM     27  C   UNL     1       0.754   2.771  19.473  0.00  0.00    +0.000 A 
ATOM     28  C   UNL     1       0.938   3.657  20.531  0.00  0.00    +0.000 A 
ATOM     29  C   UNL     1       2.019   4.541  20.522  0.00  0.00    +0.000 A 
ENDBRANCH  23  24
ENDBRANCH  17  23
ENDBRANCH  16  18
ENDBRANCH   1  16
TORSDOF 7
ENDMDL
MODEL 9
REMARK VINA RESULT:      -7.1      1.195      3.077
REMARK  Name = 
REMARK  10 active torsions:
REMARK  status: ('A' for Active; 'I' for Inactive)
REMARK    1  A    between atoms: C_1  and  C_2
REMARK    2  A    between atoms: C_2  and  C_3
REMARK    3  A    between atoms: C_2  and  N_4
REMARK    4  A    between atoms: N_4  and  C_5
REMARK    5  A    between atoms: C_5  and  C_6
REMARK    6  A    between atoms: C_12  and  C_14
REMARK    7  A    between atoms: C_14  and  C_15
REMARK    8  A    between atoms: C_15  and  S_16
REMARK    9  A    between atoms: S_16  and  C_19
REMARK   10  A    between atoms: N_28  and  C_29
REMARK                            x       y       z     vdW  Elec       q    Type
REMARK                         _______ _______ _______ _____ _____    ______ ____
ROOT
ATOM      1  C   UNL     1       1.075   8.819  20.214  0.00  0.00    +0.000 C 
ENDROOT
BRANCH   1   2
ATOM      2  S   UNL     1       1.023  10.566  19.921  0.00  0.00    +0.000 S 
ATOM      3  O   UNL     1       0.968  11.257  21.195  0.00  0.00    +0.000 OA
ATOM      4  O   UNL     1       2.028  10.901  18.930  0.00  0.00    +0.000 OA
BRANCH   2   5
ATOM      5  C   UNL     1      -0.578  10.749  19.151  0.00  0.00    +0.000 A 
ATOM      6  C   UNL     1      -1.570  11.578  19.713  0.00  0.00    +0.000 A 
ATOM      7  C   UNL     1      -2.774  11.805  19.022  0.00  0.00    +0.000 A 
ATOM      8  C   UNL     1      -2.933  11.188  17.801  0.00  0.00    +0.000 A 
ATOM      9  C   UNL     1      -1.960  10.353  17.276  0.00  0.00    +0.000 A 
ATOM     10  C   UNL     1      -0.777  10.099  17.929  0.00  0.00    +0.000 A 
ATOM     11  O   UNL     1      -2.278   9.846  16.032  0.00  0.00    +0.000 OA
ATOM     12  C   UNL     1      -3.520  10.438  15.783  0.00  0.00    +0.000 A 
ATOM     13  O   UNL     1      -4.140  10.266  14.743  0.00  0.00    +0.000 OA
ATOM     14  N   UNL     1      -3.922  11.223  16.844  0.00  0.00    +0.000 N 
ATOM     15  C   UNL     1      -5.142  11.975  16.846  0.00  0.00    +0.000 C 
ENDBRANCH   2   5
ENDBRANCH   1   2
BRANCH   1  16
ATOM     16  C   UNL     1       2.163   8.103  19.426  0.00  0.00    +0.000 C 
BRANCH  16  18
ATOM     17  N   UNL     1       2.745   5.720  18.889  0.00  0.00    +0.000 N 
ATOM     18  C   UNL     1       2.085   6.610  19.731  0.00  0.00    +0.000 C 
ATOM     19  O   UNL     1       1.448   6.237  20.717  0.00  0.00    +0.000 OA
BRANCH  17  21
ATOM     20  C   UNL     1       2.792   3.817  20.599  0.00  0.00    +0.000 C 
ATOM     21  C   UNL     1       2.693   4.255  19.131  0.00  0.00    +0.000 C 
ATOM     22  C   UNL     1       1.457   3.625  18.487  0.00  0.00    +0.000 C 
ENDBRANCH  17  21
BRANCH  17  23
ATOM     23  C   UNL     1       3.338   6.142  17.610  0.00  0.00    +0.000 C 
BRANCH  23  24
ATOM     24  C   UNL     1       4.733   5.619  17.345  0.00  0.00    +0.000 A 
ATOM     25  C   UNL     1       5.047   4.811  16.244  0.00  0.00    +0.000 A 
ATOM     26  C   UNL     1       6.326   4.267  16.103  0.00  0.00    +0.000 A 
ATOM     27  C   UNL     1       7.314   4.546  17.044  0.00  0.00    +0.000 A 
ATOM     28  C   UNL     1       7.036   5.397  18.109  0.00  0.00    +0.000 A 
ATOM     29  C   UNL     1       5.756   5.937  18.255  0.00  0.00    +0.000 A 
ENDBRANCH  23  24
ENDBRANCH  17  23
ENDBRANCH  16  18
ENDBRANCH   1  16
TORSDOF 7
ENDMDL
