MODEL 1
REMARK VINA RESULT:      -9.6      0.000      0.000
REMARK  Name = 
REMARK  7 active torsions:
REMARK  status: ('A' for Active; 'I' for Inactive)
REMARK    1  A    between atoms: C_1  and  C_2
REMARK    2  A    between atoms: C_3  and  C_4
REMARK    3  A    between atoms: C_4  and  C_5
REMARK    4  A    between atoms: C_10  and  C_11
REMARK    5  A    between atoms: C_18  and  C_19
REMARK    6  A    between atoms: C_24  and  C_25
REMARK    7  A    between atoms: C_32  and  C_33
REMARK                            x       y       z     vdW  Elec       q    Type
REMARK                         _______ _______ _______ _____ _____    ______ ____
ROOT
ATOM      1  C   UNL     1       7.921   8.313  17.768  0.00  0.00    +0.000 A 
ATOM      2  C   UNL     1       8.472   7.823  18.961  0.00  0.00    +0.000 A 
ATOM      3  C   UNL     1       8.317   6.475  19.306  0.00  0.00    +0.000 A 
ATOM      4  C   UNL     1       7.620   5.605  18.466  0.00  0.00    +0.000 A 
ATOM      5  F   UNL     1       7.466   4.332  18.855  0.00  0.00    +0.000 F 
ATOM      6  C   UNL     1       7.092   6.063  17.261  0.00  0.00    +0.000 A 
ATOM      7  C   UNL     1       7.247   7.417  16.922  0.00  0.00    +0.000 A 
ENDROOT
BRANCH   6   8
ATOM      8  C   UNL     1       6.199   5.193  16.454  0.00  0.00    +0.000 C 
ATOM      9  O   UNL     1       6.701   4.458  15.610  0.00  0.00    +0.000 OA
ATOM     10  N   UNL     1       4.844   5.140  16.772  0.00  0.00    +0.000 N 
ATOM     11  C   UNL     1       4.052   4.017  16.274  0.00  0.00    +0.000 C 
ATOM     12  C   UNL     1       3.043   3.658  17.315  0.00  0.00    +0.000 A 
ATOM     13  N   UNL     1       2.406   2.519  17.450  0.00  0.00    +0.000 NA
ATOM     14  N   UNL     1       1.733   2.552  18.643  0.00  0.00    +0.000 NA
ATOM     15  C   UNL     1       1.972   3.714  19.229  0.00  0.00    +0.000 A 
ATOM     16  N   UNL     1       2.691   4.496  18.353  0.00  0.00    +0.000 N 
ATOM     17  C   UNL     1       3.234   5.841  18.526  0.00  0.00    +0.000 C 
ATOM     18  C   UNL     1       2.183   6.920  18.772  0.00  0.00    +0.000 C 
ATOM     19  C   UNL     1       4.063   6.257  17.289  0.00  0.00    +0.000 C 
BRANCH  15  20
ATOM     20  C   UNL     1       1.599   4.099  20.612  0.00  0.00    +0.000 C 
ATOM     21  F   UNL     1       0.570   4.983  20.667  0.00  0.00    +0.000 F 
ATOM     22  F   UNL     1       1.218   3.015  21.342  0.00  0.00    +0.000 F 
ATOM     23  F   UNL     1       2.633   4.670  21.283  0.00  0.00    +0.000 F 
ENDBRANCH  15  20
ENDBRANCH   6   8
BRANCH   1  24
ATOM     24  C   UNL     1       7.907   9.795  17.452  0.00  0.00    +0.000 C 
BRANCH  24  27
ATOM     25  C   UNL     1       7.834  12.817  17.140  0.00  0.00    +0.000 C 
ATOM     26  C   UNL     1       8.852  12.170  18.031  0.00  0.00    +0.000 A 
ATOM     27  C   UNL     1       8.803  10.688  18.307  0.00  0.00    +0.000 A 
ATOM     28  N   UNL     1       9.584  10.091  19.155  0.00  0.00    +0.000 NA
ATOM     29  N   UNL     1      10.510  10.858  19.797  0.00  0.00    +0.000 N 
ATOM     30  C   UNL     1      10.772  12.177  19.552  0.00  0.00    +0.000 A 
ATOM     31  O   UNL     1      11.705  12.760  20.100  0.00  0.00    +0.000 OA
ATOM     32  C   UNL     1       9.850  12.865  18.613  0.00  0.00    +0.000 A 
ATOM     33  C   UNL     1      10.109  14.326  18.361  0.00  0.00    +0.000 C 
ATOM     34  H   UNL     1      11.152  10.381  20.420  0.00  0.00    +0.000 HD
ENDBRANCH  24  27
ENDBRANCH   1  24
TORSDOF 4
ENDMDL
MODEL 2
REMARK VINA RESULT:      -9.4      0.986      1.272
REMARK  Name = 
REMARK  7 active torsions:
REMARK  status: ('A' for Active; 'I' for Inactive)
REMARK    1  A    between atoms: C_1  and  C_2
REMARK    2  A    between atoms: C_3  and  C_4
REMARK    3  A    between atoms: C_4  and  C_5
REMARK    4  A    between atoms: C_10  and  C_11
REMARK    5  A    between atoms: C_18  and  C_19
REMARK    6  A    between atoms: C_24  and  C_25
REMARK    7  A    between atoms: C_32  and  C_33
REMARK                            x       y       z     vdW  Elec       q    Type
REMARK                         _______ _______ _______ _____ _____    ______ ____
ROOT
ATOM      1  C   UNL     1       7.863   7.895  17.702  0.00  0.00    +0.000 A 
ATOM      2  C   UNL     1       8.376   7.294  18.859  0.00  0.00    +0.000 A 
ATOM      3  C   UNL     1       7.944   6.018  19.242  0.00  0.00    +0.000 A 
ATOM      4  C   UNL     1       7.004   5.330  18.473  0.00  0.00    +0.000 A 
ATOM      5  F   UNL     1       6.593   4.127  18.897  0.00  0.00    +0.000 F 
ATOM      6  C   UNL     1       6.505   5.894  17.302  0.00  0.00    +0.000 A 
ATOM      7  C   UNL     1       6.939   7.176  16.925  0.00  0.00    +0.000 A 
ENDROOT
BRANCH   6   8
ATOM      8  C   UNL     1       5.377   5.251  16.580  0.00  0.00    +0.000 C 
ATOM      9  O   UNL     1       5.584   4.781  15.466  0.00  0.00    +0.000 OA
ATOM     10  N   UNL     1       4.163   5.083  17.241  0.00  0.00    +0.000 N 
ATOM     11  C   UNL     1       3.204   4.116  16.710  0.00  0.00    +0.000 C 
ATOM     12  C   UNL     1       2.506   3.468  17.861  0.00  0.00    +0.000 A 
ATOM     13  N   UNL     1       1.872   2.320  17.865  0.00  0.00    +0.000 NA
ATOM     14  N   UNL     1       1.560   2.017  19.165  0.00  0.00    +0.000 NA
ATOM     15  C   UNL     1       2.014   2.985  19.943  0.00  0.00    +0.000 A 
ATOM     16  N   UNL     1       2.503   3.989  19.138  0.00  0.00    +0.000 N 
ATOM     17  C   UNL     1       3.144   5.251  19.498  0.00  0.00    +0.000 C 
ATOM     18  C   UNL     1       2.262   6.200  20.306  0.00  0.00    +0.000 C 
ATOM     19  C   UNL     1       3.617   6.003  18.233  0.00  0.00    +0.000 C 
BRANCH  15  20
ATOM     20  C   UNL     1       2.062   2.977  21.426  0.00  0.00    +0.000 C 
ATOM     21  F   UNL     1       3.045   2.186  21.928  0.00  0.00    +0.000 F 
ATOM     22  F   UNL     1       2.278   4.226  21.922  0.00  0.00    +0.000 F 
ATOM     23  F   UNL     1       0.899   2.540  21.976  0.00  0.00    +0.000 F 
ENDBRANCH  15  20
ENDBRANCH   6   8
BRANCH   1  24
ATOM     24  C   UNL     1       8.165   9.339  17.358  0.00  0.00    +0.000 C 
BRANCH  24  27
ATOM     25  C   UNL     1       7.886  12.359  17.176  0.00  0.00    +0.000 C 
ATOM     26  C   UNL     1       8.613  11.733  18.327  0.00  0.00    +0.000 A 
ATOM     27  C   UNL     1       8.630  10.235  18.504  0.00  0.00    +0.000 A 
ATOM     28  N   UNL     1       9.144   9.641  19.538  0.00  0.00    +0.000 NA
ATOM     29  N   UNL     1       9.721  10.430  20.488  0.00  0.00    +0.000 N 
ATOM     30  C   UNL     1       9.911  11.781  20.404  0.00  0.00    +0.000 A 
ATOM     31  O   UNL     1      10.545  12.396  21.260  0.00  0.00    +0.000 OA
ATOM     32  C   UNL     1       9.285  12.460  19.242  0.00  0.00    +0.000 A 
ATOM     33  C   UNL     1       9.460  13.953  19.157  0.00  0.00    +0.000 C 
ATOM     34  H   UNL     1      10.167   9.961  21.268  0.00  0.00    +0.000 HD
ENDBRANCH  24  27
ENDBRANCH   1  24
TORSDOF 4
ENDMDL
MODEL 3
REMARK VINA RESULT:      -9.1      5.941     10.385
REMARK  Name = 
REMARK  7 active torsions:
REMARK  status: ('A' for Active; 'I' for Inactive)
REMARK    1  A    between atoms: C_1  and  C_2
REMARK    2  A    between atoms: C_3  and  C_4
REMARK    3  A    between atoms: C_4  and  C_5
REMARK    4  A    between atoms: C_10  and  C_11
REMARK    5  A    between atoms: C_18  and  C_19
REMARK    6  A    between atoms: C_24  and  C_25
REMARK    7  A    between atoms: C_32  and  C_33
REMARK                            x       y       z     vdW  Elec       q    Type
REMARK                         _______ _______ _______ _____ _____    ______ ____
ROOT
ATOM      1  C   UNL     1       1.271   9.822  18.189  0.00  0.00    +0.000 A 
ATOM      2  C   UNL     1      -0.072   9.711  17.803  0.00  0.00    +0.000 A 
ATOM      3  C   UNL     1      -1.021  10.621  18.284  0.00  0.00    +0.000 A 
ATOM      4  C   UNL     1      -0.640  11.650  19.147  0.00  0.00    +0.000 A 
ATOM      5  F   UNL     1      -1.589  12.475  19.611  0.00  0.00    +0.000 F 
ATOM      6  C   UNL     1       0.694  11.798  19.519  0.00  0.00    +0.000 A 
ATOM      7  C   UNL     1       1.641  10.880  19.037  0.00  0.00    +0.000 A 
ENDROOT
BRANCH   6   8
ATOM      8  C   UNL     1       1.076  12.772  20.574  0.00  0.00    +0.000 C 
ATOM      9  O   UNL     1       0.701  12.568  21.725  0.00  0.00    +0.000 OA
ATOM     10  N   UNL     1       1.953  13.803  20.252  0.00  0.00    +0.000 N 
ATOM     11  C   UNL     1       2.641  14.502  21.337  0.00  0.00    +0.000 C 
ATOM     12  C   UNL     1       4.017  14.851  20.871  0.00  0.00    +0.000 A 
ATOM     13  N   UNL     1       5.063  15.128  21.611  0.00  0.00    +0.000 NA
ATOM     14  N   UNL     1       6.157  15.190  20.787  0.00  0.00    +0.000 NA
ATOM     15  C   UNL     1       5.765  14.944  19.548  0.00  0.00    +0.000 A 
ATOM     16  N   UNL     1       4.391  14.856  19.543  0.00  0.00    +0.000 N 
ATOM     17  C   UNL     1       3.474  14.563  18.444  0.00  0.00    +0.000 C 
ATOM     18  C   UNL     1       3.507  15.580  17.305  0.00  0.00    +0.000 C 
ATOM     19  C   UNL     1       2.019  14.471  18.957  0.00  0.00    +0.000 C 
BRANCH  15  20
ATOM     20  C   UNL     1       6.641  14.726  18.372  0.00  0.00    +0.000 C 
ATOM     21  F   UNL     1       6.808  15.839  17.612  0.00  0.00    +0.000 F 
ATOM     22  F   UNL     1       7.886  14.324  18.749  0.00  0.00    +0.000 F 
ATOM     23  F   UNL     1       6.160  13.764  17.543  0.00  0.00    +0.000 F 
ENDBRANCH  15  20
ENDBRANCH   6   8
BRANCH   1  24
ATOM     24  C   UNL     1       2.286   8.753  17.840  0.00  0.00    +0.000 C 
BRANCH  24  27
ATOM     25  C   UNL     1       4.120   6.409  17.228  0.00  0.00    +0.000 C 
ATOM     26  C   UNL     1       3.266   6.403  18.461  0.00  0.00    +0.000 A 
ATOM     27  C   UNL     1       2.467   7.621  18.849  0.00  0.00    +0.000 A 
ATOM     28  N   UNL     1       1.801   7.718  19.959  0.00  0.00    +0.000 NA
ATOM     29  N   UNL     1       1.814   6.637  20.790  0.00  0.00    +0.000 N 
ATOM     30  C   UNL     1       2.369   5.418  20.515  0.00  0.00    +0.000 A 
ATOM     31  O   UNL     1       2.234   4.463  21.278  0.00  0.00    +0.000 OA
ATOM     32  C   UNL     1       3.164   5.326  19.265  0.00  0.00    +0.000 A 
ATOM     33  C   UNL     1       3.808   3.998  18.969  0.00  0.00    +0.000 C 
ATOM     34  H   UNL     1       1.252   6.695  21.632  0.00  0.00    +0.000 HD
ENDBRANCH  24  27
ENDBRANCH   1  24
TORSDOF 4
ENDMDL
MODEL 4
REMARK VINA RESULT:      -9.1      5.481      8.555
REMARK  Name = 
REMARK  7 active torsions:
REMARK  status: ('A' for Active; 'I' for Inactive)
REMARK    1  A    between atoms: C_1  and  C_2
REMARK    2  A    between atoms: C_3  and  C_4
REMARK    3  A    between atoms: C_4  and  C_5
REMARK    4  A    between atoms: C_10  and  C_11
REMARK    5  A    between atoms: C_18  and  C_19
REMARK    6  A    between atoms: C_24  and  C_25
REMARK    7  A    between atoms: C_32  and  C_33
REMARK                            x       y       z     vdW  Elec       q    Type
REMARK                         _______ _______ _______ _____ _____    ______ ____
ROOT
ATOM      1  C   UNL     1      -0.084  10.160  18.685  0.00  0.00    +0.000 A 
ATOM      2  C   UNL     1      -0.363   9.825  20.017  0.00  0.00    +0.000 A 
ATOM      3  C   UNL     1       0.449   8.910  20.699  0.00  0.00    +0.000 A 
ATOM      4  C   UNL     1       1.546   8.328  20.062  0.00  0.00    +0.000 A 
ATOM      5  F   UNL     1       2.274   7.431  20.742  0.00  0.00    +0.000 F 
ATOM      6  C   UNL     1       1.861   8.670  18.749  0.00  0.00    +0.000 A 
ATOM      7  C   UNL     1       1.041   9.585  18.069  0.00  0.00    +0.000 A 
ENDROOT
BRANCH   6   8
ATOM      8  C   UNL     1       2.912   7.924  18.010  0.00  0.00    +0.000 C 
ATOM      9  O   UNL     1       3.833   8.555  17.502  0.00  0.00    +0.000 OA
ATOM     10  N   UNL     1       2.891   6.532  18.033  0.00  0.00    +0.000 N 
ATOM     11  C   UNL     1       4.108   5.808  17.670  0.00  0.00    +0.000 C 
ATOM     12  C   UNL     1       4.198   4.586  18.526  0.00  0.00    +0.000 A 
ATOM     13  N   UNL     1       5.270   3.881  18.798  0.00  0.00    +0.000 NA
ATOM     14  N   UNL     1       4.941   2.976  19.773  0.00  0.00    +0.000 NA
ATOM     15  C   UNL     1       3.668   3.143  20.090  0.00  0.00    +0.000 A 
ATOM     16  N   UNL     1       3.128   4.067  19.224  0.00  0.00    +0.000 N 
ATOM     17  C   UNL     1       1.780   4.627  19.171  0.00  0.00    +0.000 C 
ATOM     18  C   UNL     1       0.679   3.601  18.911  0.00  0.00    +0.000 C 
ATOM     19  C   UNL     1       1.684   5.715  18.077  0.00  0.00    +0.000 C 
BRANCH  15  20
ATOM     20  C   UNL     1       2.949   2.509  21.222  0.00  0.00    +0.000 C 
ATOM     21  F   UNL     1       2.406   3.406  22.085  0.00  0.00    +0.000 F 
ATOM     22  F   UNL     1       1.926   1.725  20.783  0.00  0.00    +0.000 F 
ATOM     23  F   UNL     1       3.759   1.707  21.961  0.00  0.00    +0.000 F 
ENDBRANCH  15  20
ENDBRANCH   6   8
BRANCH   1  24
ATOM     24  C   UNL     1      -1.041  10.998  17.862  0.00  0.00    +0.000 C 
BRANCH  24  27
ATOM     25  C   UNL     1      -3.668   9.593  17.262  0.00  0.00    +0.000 C 
ATOM     26  C   UNL     1      -3.643  10.820  18.123  0.00  0.00    +0.000 A 
ATOM     27  C   UNL     1      -2.333  11.437  18.546  0.00  0.00    +0.000 A 
ATOM     28  N   UNL     1      -2.244  12.428  19.380  0.00  0.00    +0.000 NA
ATOM     29  N   UNL     1      -3.410  12.943  19.863  0.00  0.00    +0.000 N 
ATOM     30  C   UNL     1      -4.670  12.590  19.468  0.00  0.00    +0.000 A 
ATOM     31  O   UNL     1      -5.664  13.189  19.876  0.00  0.00    +0.000 OA
ATOM     32  C   UNL     1      -4.768  11.430  18.548  0.00  0.00    +0.000 A 
ATOM     33  C   UNL     1      -6.152  11.010  18.132  0.00  0.00    +0.000 C 
ATOM     34  H   UNL     1      -3.341  13.749  20.474  0.00  0.00    +0.000 HD
ENDBRANCH  24  27
ENDBRANCH   1  24
TORSDOF 4
ENDMDL
MODEL 5
REMARK VINA RESULT:      -9.0      6.379      9.817
REMARK  Name = 
REMARK  7 active torsions:
REMARK  status: ('A' for Active; 'I' for Inactive)
REMARK    1  A    between atoms: C_1  and  C_2
REMARK    2  A    between atoms: C_3  and  C_4
REMARK    3  A    between atoms: C_4  and  C_5
REMARK    4  A    between atoms: C_10  and  C_11
REMARK    5  A    between atoms: C_18  and  C_19
REMARK    6  A    between atoms: C_24  and  C_25
REMARK    7  A    between atoms: C_32  and  C_33
REMARK                            x       y       z     vdW  Elec       q    Type
REMARK                         _______ _______ _______ _____ _____    ______ ____
ROOT
ATOM      1  C   UNL     1       2.155   7.889  18.726  0.00  0.00    +0.000 A 
ATOM      2  C   UNL     1       2.186   7.685  20.112  0.00  0.00    +0.000 A 
ATOM      3  C   UNL     1       1.368   8.446  20.955  0.00  0.00    +0.000 A 
ATOM      4  C   UNL     1       0.508   9.410  20.425  0.00  0.00    +0.000 A 
ATOM      5  F   UNL     1      -0.230  10.139  21.273  0.00  0.00    +0.000 F 
ATOM      6  C   UNL     1       0.437   9.607  19.048  0.00  0.00    +0.000 A 
ATOM      7  C   UNL     1       1.264   8.845  18.208  0.00  0.00    +0.000 A 
ENDROOT
BRANCH   6   8
ATOM      8  C   UNL     1      -0.334  10.749  18.493  0.00  0.00    +0.000 C 
ATOM      9  O   UNL     1      -1.497  10.560  18.149  0.00  0.00    +0.000 OA
ATOM     10  N   UNL     1       0.237  12.018  18.507  0.00  0.00    +0.000 N 
ATOM     11  C   UNL     1      -0.636  13.181  18.350  0.00  0.00    +0.000 C 
ATOM     12  C   UNL     1      -0.102  14.284  19.205  0.00  0.00    +0.000 A 
ATOM     13  N   UNL     1      -0.752  15.333  19.651  0.00  0.00    +0.000 NA
ATOM     14  N   UNL     1       0.055  15.975  20.553  0.00  0.00    +0.000 NA
ATOM     15  C   UNL     1       1.191  15.306  20.653  0.00  0.00    +0.000 A 
ATOM     16  N   UNL     1       1.181  14.301  19.712  0.00  0.00    +0.000 N 
ATOM     17  C   UNL     1       2.172  13.265  19.435  0.00  0.00    +0.000 C 
ATOM     18  C   UNL     1       3.533  13.794  18.991  0.00  0.00    +0.000 C 
ATOM     19  C   UNL     1       1.660  12.296  18.345  0.00  0.00    +0.000 C 
BRANCH  15  20
ATOM     20  C   UNL     1       2.268  15.537  21.646  0.00  0.00    +0.000 C 
ATOM     21  F   UNL     1       2.767  14.391  22.176  0.00  0.00    +0.000 F 
ATOM     22  F   UNL     1       3.321  16.198  21.090  0.00  0.00    +0.000 F 
ATOM     23  F   UNL     1       1.848  16.294  22.693  0.00  0.00    +0.000 F 
ENDBRANCH  15  20
ENDBRANCH   6   8
BRANCH   1  24
ATOM     24  C   UNL     1       3.153   7.221  17.803  0.00  0.00    +0.000 C 
BRANCH  24  27
ATOM     25  C   UNL     1       1.378   4.766  17.567  0.00  0.00    +0.000 C 
ATOM     26  C   UNL     1       2.718   4.672  18.234  0.00  0.00    +0.000 A 
ATOM     27  C   UNL     1       3.665   5.845  18.225  0.00  0.00    +0.000 A 
ATOM     28  N   UNL     1       4.879   5.790  18.685  0.00  0.00    +0.000 NA
ATOM     29  N   UNL     1       5.287   4.608  19.226  0.00  0.00    +0.000 N 
ATOM     30  C   UNL     1       4.505   3.506  19.436  0.00  0.00    +0.000 A 
ATOM     31  O   UNL     1       4.929   2.521  20.037  0.00  0.00    +0.000 OA
ATOM     32  C   UNL     1       3.133   3.559  18.872  0.00  0.00    +0.000 A 
ATOM     33  C   UNL     1       2.274   2.339  19.066  0.00  0.00    +0.000 C 
ATOM     34  H   UNL     1       6.216   4.582  19.631  0.00  0.00    +0.000 HD
ENDBRANCH  24  27
ENDBRANCH   1  24
TORSDOF 4
ENDMDL
MODEL 6
REMARK VINA RESULT:      -8.9      3.930      7.489
REMARK  Name = 
REMARK  7 active torsions:
REMARK  status: ('A' for Active; 'I' for Inactive)
REMARK    1  A    between atoms: C_1  and  C_2
REMARK    2  A    between atoms: C_3  and  C_4
REMARK    3  A    between atoms: C_4  and  C_5
REMARK    4  A    between atoms: C_10  and  C_11
REMARK    5  A    between atoms: C_18  and  C_19
REMARK    6  A    between atoms: C_24  and  C_25
REMARK    7  A    between atoms: C_32  and  C_33
REMARK                            x       y       z     vdW  Elec       q    Type
REMARK                         _______ _______ _______ _____ _____    ______ ____
ROOT
ATOM      1  C   UNL     1       2.007   5.721  20.335  0.00  0.00    +0.000 A 
ATOM      2  C   UNL     1       0.844   5.004  20.646  0.00  0.00    +0.000 A 
ATOM      3  C   UNL     1       0.587   3.774  20.027  0.00  0.00    +0.000 A 
ATOM      4  C   UNL     1       1.487   3.248  19.099  0.00  0.00    +0.000 A 
ATOM      5  F   UNL     1       1.183   2.086  18.505  0.00  0.00    +0.000 F 
ATOM      6  C   UNL     1       2.665   3.928  18.798  0.00  0.00    +0.000 A 
ATOM      7  C   UNL     1       2.915   5.163  19.419  0.00  0.00    +0.000 A 
ENDROOT
BRANCH   6   8
ATOM      8  C   UNL     1       3.534   3.468  17.685  0.00  0.00    +0.000 C 
ATOM      9  O   UNL     1       3.021   2.858  16.753  0.00  0.00    +0.000 OA
ATOM     10  N   UNL     1       4.871   3.858  17.669  0.00  0.00    +0.000 N 
ATOM     11  C   UNL     1       5.613   3.763  16.413  0.00  0.00    +0.000 C 
ATOM     12  C   UNL     1       6.561   4.916  16.342  0.00  0.00    +0.000 A 
ATOM     13  N   UNL     1       7.123   5.420  15.270  0.00  0.00    +0.000 NA
ATOM     14  N   UNL     1       7.753   6.582  15.632  0.00  0.00    +0.000 NA
ATOM     15  C   UNL     1       7.562   6.778  16.926  0.00  0.00    +0.000 A 
ATOM     16  N   UNL     1       6.923   5.672  17.438  0.00  0.00    +0.000 N 
ATOM     17  C   UNL     1       6.454   5.403  18.795  0.00  0.00    +0.000 C 
ATOM     18  C   UNL     1       7.558   5.369  19.850  0.00  0.00    +0.000 C 
ATOM     19  C   UNL     1       5.698   4.056  18.854  0.00  0.00    +0.000 C 
BRANCH  15  20
ATOM     20  C   UNL     1       7.906   8.000  17.694  0.00  0.00    +0.000 C 
ATOM     21  F   UNL     1       8.645   8.891  16.986  0.00  0.00    +0.000 F 
ATOM     22  F   UNL     1       6.787   8.661  18.101  0.00  0.00    +0.000 F 
ATOM     23  F   UNL     1       8.616   7.718  18.817  0.00  0.00    +0.000 F 
ENDBRANCH  15  20
ENDBRANCH   6   8
BRANCH   1  24
ATOM     24  C   UNL     1       2.227   7.132  20.841  0.00  0.00    +0.000 C 
BRANCH  24  27
ATOM     25  C   UNL     1       0.590   9.295  22.208  0.00  0.00    +0.000 C 
ATOM     26  C   UNL     1       0.669   9.235  20.712  0.00  0.00    +0.000 A 
ATOM     27  C   UNL     1       1.594   8.259  20.029  0.00  0.00    +0.000 A 
ATOM     28  N   UNL     1       1.791   8.237  18.746  0.00  0.00    +0.000 NA
ATOM     29  N   UNL     1       1.091   9.131  17.992  0.00  0.00    +0.000 N 
ATOM     30  C   UNL     1       0.116   9.976  18.445  0.00  0.00    +0.000 A 
ATOM     31  O   UNL     1      -0.544  10.669  17.672  0.00  0.00    +0.000 OA
ATOM     32  C   UNL     1      -0.075  10.028  19.915  0.00  0.00    +0.000 A 
ATOM     33  C   UNL     1      -1.123  10.980  20.428  0.00  0.00    +0.000 C 
ATOM     34  H   UNL     1       1.207   9.077  16.986  0.00  0.00    +0.000 HD
ENDBRANCH  24  27
ENDBRANCH   1  24
TORSDOF 4
ENDMDL
MODEL 7
REMARK VINA RESULT:      -8.9      6.598     10.925
REMARK  Name = 
REMARK  7 active torsions:
REMARK  status: ('A' for Active; 'I' for Inactive)
REMARK    1  A    between atoms: C_1  and  C_2
REMARK    2  A    between atoms: C_3  and  C_4
REMARK    3  A    between atoms: C_4  and  C_5
REMARK    4  A    between atoms: C_10  and  C_11
REMARK    5  A    between atoms: C_18  and  C_19
REMARK    6  A    between atoms: C_24  and  C_25
REMARK    7  A    between atoms: C_32  and  C_33
REMARK                            x       y       z     vdW  Elec       q    Type
REMARK                         _______ _______ _______ _____ _____    ______ ____
ROOT
ATOM      1  C   UNL     1       3.425  15.219  20.460  0.00  0.00    +0.000 A 
ATOM      2  C   UNL     1       3.828  14.577  21.639  0.00  0.00    +0.000 A 
ATOM      3  C   UNL     1       5.147  14.700  22.092  0.00  0.00    +0.000 A 
ATOM      4  C   UNL     1       6.071  15.466  21.380  0.00  0.00    +0.000 A 
ATOM      5  F   UNL     1       7.332  15.525  21.832  0.00  0.00    +0.000 F 
ATOM      6  C   UNL     1       5.685  16.138  20.223  0.00  0.00    +0.000 A 
ATOM      7  C   UNL     1       4.361  16.008  19.771  0.00  0.00    +0.000 A 
ENDROOT
BRANCH   6   8
ATOM      8  C   UNL     1       6.700  16.802  19.366  0.00  0.00    +0.000 C 
ATOM      9  O   UNL     1       6.880  18.009  19.496  0.00  0.00    +0.000 OA
ATOM     10  N   UNL     1       7.504  16.017  18.544  0.00  0.00    +0.000 N 
ATOM     11  C   UNL     1       8.743  16.592  18.021  0.00  0.00    +0.000 C 
ATOM     12  C   UNL     1       9.774  15.512  17.971  0.00  0.00    +0.000 A 
ATOM     13  N   UNL     1      11.078  15.656  17.934  0.00  0.00    +0.000 NA
ATOM     14  N   UNL     1      11.642  14.419  18.100  0.00  0.00    +0.000 NA
ATOM     15  C   UNL     1      10.673  13.530  18.243  0.00  0.00    +0.000 A 
ATOM     16  N   UNL     1       9.472  14.168  18.033  0.00  0.00    +0.000 N 
ATOM     17  C   UNL     1       8.108  13.649  18.110  0.00  0.00    +0.000 C 
ATOM     18  C   UNL     1       7.798  12.536  17.113  0.00  0.00    +0.000 C 
ATOM     19  C   UNL     1       7.080  14.783  17.892  0.00  0.00    +0.000 C 
BRANCH  15  20
ATOM     20  C   UNL     1      10.831  12.107  18.632  0.00  0.00    +0.000 C 
ATOM     21  F   UNL     1      10.579  11.240  17.617  0.00  0.00    +0.000 F 
ATOM     22  F   UNL     1      12.097  11.847  19.059  0.00  0.00    +0.000 F 
ATOM     23  F   UNL     1      10.002  11.758  19.650  0.00  0.00    +0.000 F 
ENDBRANCH  15  20
ENDBRANCH   6   8
BRANCH   1  24
ATOM     24  C   UNL     1       2.066  14.961  19.842  0.00  0.00    +0.000 C 
BRANCH  24  27
ATOM     25  C   UNL     1       0.237  12.871  21.074  0.00  0.00    +0.000 C 
ATOM     26  C   UNL     1       1.068  12.538  19.871  0.00  0.00    +0.000 A 
ATOM     27  C   UNL     1       1.864  13.607  19.167  0.00  0.00    +0.000 A 
ATOM     28  N   UNL     1       2.511  13.406  18.058  0.00  0.00    +0.000 NA
ATOM     29  N   UNL     1       2.480  12.146  17.538  0.00  0.00    +0.000 N 
ATOM     30  C   UNL     1       1.926  11.045  18.130  0.00  0.00    +0.000 A 
ATOM     31  O   UNL     1       2.045   9.924  17.639  0.00  0.00    +0.000 OA
ATOM     32  C   UNL     1       1.153  11.288  19.373  0.00  0.00    +0.000 A 
ATOM     33  C   UNL     1       0.510  10.088  20.015  0.00  0.00    +0.000 C 
ATOM     34  H   UNL     1       3.027  11.979  16.701  0.00  0.00    +0.000 HD
ENDBRANCH  24  27
ENDBRANCH   1  24
TORSDOF 4
ENDMDL
MODEL 8
REMARK VINA RESULT:      -8.9      6.926     10.095
REMARK  Name = 
REMARK  7 active torsions:
REMARK  status: ('A' for Active; 'I' for Inactive)
REMARK    1  A    between atoms: C_1  and  C_2
REMARK    2  A    between atoms: C_3  and  C_4
REMARK    3  A    between atoms: C_4  and  C_5
REMARK    4  A    between atoms: C_10  and  C_11
REMARK    5  A    between atoms: C_18  and  C_19
REMARK    6  A    between atoms: C_24  and  C_25
REMARK    7  A    between atoms: C_32  and  C_33
REMARK                            x       y       z     vdW  Elec       q    Type
REMARK                         _______ _______ _______ _____ _____    ______ ____
ROOT
ATOM      1  C   UNL     1       1.614   9.238  17.868  0.00  0.00    +0.000 A 
ATOM      2  C   UNL     1       0.282   9.010  17.498  0.00  0.00    +0.000 A 
ATOM      3  C   UNL     1      -0.703   9.961  17.790  0.00  0.00    +0.000 A 
ATOM      4  C   UNL     1      -0.369  11.147  18.446  0.00  0.00    +0.000 A 
ATOM      5  F   UNL     1      -1.351  12.011  18.736  0.00  0.00    +0.000 F 
ATOM      6  C   UNL     1       0.953  11.409  18.795  0.00  0.00    +0.000 A 
ATOM      7  C   UNL     1       1.936  10.450  18.503  0.00  0.00    +0.000 A 
ENDROOT
BRANCH   6   8
ATOM      8  C   UNL     1       1.287  12.577  19.649  0.00  0.00    +0.000 C 
ATOM      9  O   UNL     1       2.006  13.457  19.187  0.00  0.00    +0.000 OA
ATOM     10  N   UNL     1       0.667  12.703  20.890  0.00  0.00    +0.000 N 
ATOM     11  C   UNL     1       0.668  14.010  21.544  0.00  0.00    +0.000 C 
ATOM     12  C   UNL     1      -0.631  14.174  22.263  0.00  0.00    +0.000 A 
ATOM     13  N   UNL     1      -1.194  15.295  22.647  0.00  0.00    +0.000 NA
ATOM     14  N   UNL     1      -2.460  15.003  23.084  0.00  0.00    +0.000 NA
ATOM     15  C   UNL     1      -2.659  13.701  22.956  0.00  0.00    +0.000 A 
ATOM     16  N   UNL     1      -1.473  13.123  22.563  0.00  0.00    +0.000 N 
ATOM     17  C   UNL     1      -1.167  11.729  22.249  0.00  0.00    +0.000 C 
ATOM     18  C   UNL     1      -1.361  10.762  23.415  0.00  0.00    +0.000 C 
ATOM     19  C   UNL     1       0.289  11.589  21.752  0.00  0.00    +0.000 C 
BRANCH  15  20
ATOM     20  C   UNL     1      -3.945  12.983  23.130  0.00  0.00    +0.000 C 
ATOM     21  F   UNL     1      -4.999  13.812  23.347  0.00  0.00    +0.000 F 
ATOM     22  F   UNL     1      -4.253  12.244  22.029  0.00  0.00    +0.000 F 
ATOM     23  F   UNL     1      -3.913  12.119  24.178  0.00  0.00    +0.000 F 
ENDBRANCH  15  20
ENDBRANCH   6   8
BRANCH   1  24
ATOM     24  C   UNL     1       2.670   8.159  17.737  0.00  0.00    +0.000 C 
BRANCH  24  27
ATOM     25  C   UNL     1       4.069   5.506  17.250  0.00  0.00    +0.000 C 
ATOM     26  C   UNL     1       3.256   5.719  18.492  0.00  0.00    +0.000 A 
ATOM     27  C   UNL     1       2.682   7.076  18.813  0.00  0.00    +0.000 A 
ATOM     28  N   UNL     1       2.068   7.350  19.924  0.00  0.00    +0.000 NA
ATOM     29  N   UNL     1       1.920   6.334  20.821  0.00  0.00    +0.000 N 
ATOM     30  C   UNL     1       2.256   5.025  20.616  0.00  0.00    +0.000 A 
ATOM     31  O   UNL     1       1.980   4.154  21.440  0.00  0.00    +0.000 OA
ATOM     32  C   UNL     1       2.994   4.725  19.364  0.00  0.00    +0.000 A 
ATOM     33  C   UNL     1       3.399   3.292  19.144  0.00  0.00    +0.000 C 
ATOM     34  H   UNL     1       1.396   6.537  21.665  0.00  0.00    +0.000 HD
ENDBRANCH  24  27
ENDBRANCH   1  24
TORSDOF 4
ENDMDL
MODEL 9
REMARK VINA RESULT:      -8.8      1.139      1.453
REMARK  Name = 
REMARK  7 active torsions:
REMARK  status: ('A' for Active; 'I' for Inactive)
REMARK    1  A    between atoms: C_1  and  C_2
REMARK    2  A    between atoms: C_3  and  C_4
REMARK    3  A    between atoms: C_4  and  C_5
REMARK    4  A    between atoms: C_10  and  C_11
REMARK    5  A    between atoms: C_18  and  C_19
REMARK    6  A    between atoms: C_24  and  C_25
REMARK    7  A    between atoms: C_32  and  C_33
REMARK                            x       y       z     vdW  Elec       q    Type
REMARK                         _______ _______ _______ _____ _____    ______ ____
ROOT
ATOM      1  C   UNL     1       8.104   8.897  18.164  0.00  0.00    +0.000 A 
ATOM      2  C   UNL     1       8.653   8.314  19.314  0.00  0.00    +0.000 A 
ATOM      3  C   UNL     1       8.567   6.931  19.513  0.00  0.00    +0.000 A 
ATOM      4  C   UNL     1       7.940   6.118  18.567  0.00  0.00    +0.000 A 
ATOM      5  F   UNL     1       7.850   4.804  18.816  0.00  0.00    +0.000 F 
ATOM      6  C   UNL     1       7.416   6.671  17.401  0.00  0.00    +0.000 A 
ATOM      7  C   UNL     1       7.501   8.060  17.210  0.00  0.00    +0.000 A 
ENDROOT
BRANCH   6   8
ATOM      8  C   UNL     1       6.592   5.845  16.482  0.00  0.00    +0.000 C 
ATOM      9  O   UNL     1       7.155   5.223  15.587  0.00  0.00    +0.000 OA
ATOM     10  N   UNL     1       5.233   5.694  16.747  0.00  0.00    +0.000 N 
ATOM     11  C   UNL     1       4.515   4.590  16.114  0.00  0.00    +0.000 C 
ATOM     12  C   UNL     1       3.495   4.080  17.080  0.00  0.00    +0.000 A 
ATOM     13  N   UNL     1       2.915   2.904  17.081  0.00  0.00    +0.000 NA
ATOM     14  N   UNL     1       2.207   2.784  18.248  0.00  0.00    +0.000 NA
ATOM     15  C   UNL     1       2.368   3.892  18.953  0.00  0.00    +0.000 A 
ATOM     16  N   UNL     1       3.072   4.791  18.184  0.00  0.00    +0.000 N 
ATOM     17  C   UNL     1       3.539   6.137  18.506  0.00  0.00    +0.000 C 
ATOM     18  C   UNL     1       2.427   7.134  18.823  0.00  0.00    +0.000 C 
ATOM     19  C   UNL     1       4.381   6.715  17.345  0.00  0.00    +0.000 C 
BRANCH  15  20
ATOM     20  C   UNL     1       1.937   4.117  20.354  0.00  0.00    +0.000 C 
ATOM     21  F   UNL     1       1.570   2.977  20.994  0.00  0.00    +0.000 F 
ATOM     22  F   UNL     1       2.933   4.674  21.096  0.00  0.00    +0.000 F 
ATOM     23  F   UNL     1       0.877   4.962  20.436  0.00  0.00    +0.000 F 
ENDBRANCH  15  20
ENDBRANCH   6   8
BRANCH   1  24
ATOM     24  C   UNL     1       8.013  10.400  18.004  0.00  0.00    +0.000 C 
BRANCH  24  27
ATOM     25  C   UNL     1       8.624  11.692  20.686  0.00  0.00    +0.000 C 
ATOM     26  C   UNL     1       9.511  11.942  19.503  0.00  0.00    +0.000 A 
ATOM     27  C   UNL     1       9.302  11.192  18.212  0.00  0.00    +0.000 A 
ATOM     28  N   UNL     1      10.103  11.281  17.193  0.00  0.00    +0.000 NA
ATOM     29  N   UNL     1      11.166  12.126  17.309  0.00  0.00    +0.000 N 
ATOM     30  C   UNL     1      11.409  12.976  18.352  0.00  0.00    +0.000 A 
ATOM     31  O   UNL     1      12.333  13.787  18.319  0.00  0.00    +0.000 OA
ATOM     32  C   UNL     1      10.516  12.840  19.530  0.00  0.00    +0.000 A 
ATOM     33  C   UNL     1      10.796  13.747  20.698  0.00  0.00    +0.000 C 
ATOM     34  H   UNL     1      11.761  12.233  16.495  0.00  0.00    +0.000 HD
ENDBRANCH  24  27
ENDBRANCH   1  24
TORSDOF 4
ENDMDL
