MODEL 1
REMARK VINA RESULT:      -7.0      0.000      0.000
REMARK  Name = 
REMARK  3 active torsions:
REMARK  status: ('A' for Active; 'I' for Inactive)
REMARK    1  A    between atoms: C_2  and  N_3
REMARK    2  A    between atoms: C_2  and  C_11
REMARK    3  A    between atoms: N_3  and  C_4
REMARK                            x       y       z     vdW  Elec       q    Type
REMARK                         _______ _______ _______ _____ _____    ______ ____
ROOT
ATOM      1  N   UNL     1       5.195   3.374  17.506  0.00  0.00    +0.000 N 
ATOM      2  H   UNL     1       5.715   2.603  17.906  0.00  0.00    +0.000 HD
ENDROOT
BRANCH   1   3
ATOM      3  C   UNL     1       3.885   3.551  18.014  0.00  0.00    +0.000 A 
ATOM      4  C   UNL     1       2.852   4.101  17.247  0.00  0.00    +0.000 A 
ATOM      5  C   UNL     1       1.579   4.286  17.790  0.00  0.00    +0.000 A 
ATOM      6  C   UNL     1       1.323   3.904  19.101  0.00  0.00    +0.000 A 
ATOM      7  C   UNL     1       2.332   3.304  19.851  0.00  0.00    +0.000 A 
ATOM      8 BR   UNL     1       1.980   2.778  21.633  0.00  0.00    +0.000 Br
ATOM      9  C   UNL     1       3.605   3.105  19.308  0.00  0.00    +0.000 A 
ENDBRANCH   1   3
BRANCH   1  11
ATOM     10  S   UNL     1       5.892   4.082  14.949  0.00  0.00    +0.000 S 
ATOM     11  C   UNL     1       5.904   4.204  16.635  0.00  0.00    +0.000 C 
BRANCH  11  12
ATOM     12  C   UNL     1       6.644   5.314  17.330  0.00  0.00    +0.000 A 
ATOM     13  C   UNL     1       6.724   6.602  16.777  0.00  0.00    +0.000 A 
ATOM     14  C   UNL     1       7.477   7.596  17.407  0.00  0.00    +0.000 A 
ATOM     15  C   UNL     1       8.147   7.317  18.594  0.00  0.00    +0.000 A 
ATOM     16  C   UNL     1       8.070   6.044  19.157  0.00  0.00    +0.000 A 
ATOM     17  C   UNL     1       7.325   5.044  18.526  0.00  0.00    +0.000 A 
ENDBRANCH  11  12
ENDBRANCH   1  11
TORSDOF 3
ENDMDL
MODEL 2
REMARK VINA RESULT:      -6.9      0.780      1.434
REMARK  Name = 
REMARK  3 active torsions:
REMARK  status: ('A' for Active; 'I' for Inactive)
REMARK    1  A    between atoms: C_2  and  N_3
REMARK    2  A    between atoms: C_2  and  C_11
REMARK    3  A    between atoms: N_3  and  C_4
REMARK                            x       y       z     vdW  Elec       q    Type
REMARK                         _______ _______ _______ _____ _____    ______ ____
ROOT
ATOM      1  N   UNL     1       4.945   3.438  16.931  0.00  0.00    +0.000 N 
ATOM      2  H   UNL     1       4.964   2.427  16.870  0.00  0.00    +0.000 HD
ENDROOT
BRANCH   1   3
ATOM      3  C   UNL     1       4.005   3.973  17.844  0.00  0.00    +0.000 A 
ATOM      4  C   UNL     1       3.349   5.188  17.619  0.00  0.00    +0.000 A 
ATOM      5  C   UNL     1       2.448   5.699  18.555  0.00  0.00    +0.000 A 
ATOM      6  C   UNL     1       2.180   4.988  19.718  0.00  0.00    +0.000 A 
ATOM      7  C   UNL     1       2.787   3.750  19.922  0.00  0.00    +0.000 A 
ATOM      8 BR   UNL     1       2.415   2.780  21.502  0.00  0.00    +0.000 Br
ATOM      9  C   UNL     1       3.680   3.229  18.981  0.00  0.00    +0.000 A 
ENDBRANCH   1   3
BRANCH   1  11
ATOM     10  S   UNL     1       6.218   3.949  14.555  0.00  0.00    +0.000 S 
ATOM     11  C   UNL     1       5.935   4.113  16.214  0.00  0.00    +0.000 C 
BRANCH  11  12
ATOM     12  C   UNL     1       6.710   5.102  17.042  0.00  0.00    +0.000 A 
ATOM     13  C   UNL     1       7.391   4.711  18.205  0.00  0.00    +0.000 A 
ATOM     14  C   UNL     1       8.043   5.661  18.995  0.00  0.00    +0.000 A 
ATOM     15  C   UNL     1       8.030   7.003  18.627  0.00  0.00    +0.000 A 
ATOM     16  C   UNL     1       7.362   7.403  17.469  0.00  0.00    +0.000 A 
ATOM     17  C   UNL     1       6.701   6.458  16.681  0.00  0.00    +0.000 A 
ENDBRANCH  11  12
ENDBRANCH   1  11
TORSDOF 3
ENDMDL
MODEL 3
REMARK VINA RESULT:      -6.8      2.994      6.071
REMARK  Name = 
REMARK  3 active torsions:
REMARK  status: ('A' for Active; 'I' for Inactive)
REMARK    1  A    between atoms: C_2  and  N_3
REMARK    2  A    between atoms: C_2  and  C_11
REMARK    3  A    between atoms: N_3  and  C_4
REMARK                            x       y       z     vdW  Elec       q    Type
REMARK                         _______ _______ _______ _____ _____    ______ ____
ROOT
ATOM      1  N   UNL     1       4.361   5.840  19.602  0.00  0.00    +0.000 N 
ATOM      2  H   UNL     1       4.528   5.887  20.600  0.00  0.00    +0.000 HD
ENDROOT
BRANCH   1   3
ATOM      3  C   UNL     1       5.469   5.437  18.818  0.00  0.00    +0.000 A 
ATOM      4  C   UNL     1       6.781   5.469  19.303  0.00  0.00    +0.000 A 
ATOM      5  C   UNL     1       7.852   5.090  18.492  0.00  0.00    +0.000 A 
ATOM      6  C   UNL     1       7.619   4.658  17.193  0.00  0.00    +0.000 A 
ATOM      7  C   UNL     1       6.309   4.570  16.723  0.00  0.00    +0.000 A 
ATOM      8 BR   UNL     1       5.993   3.974  14.957  0.00  0.00    +0.000 Br
ATOM      9  C   UNL     1       5.232   4.936  17.536  0.00  0.00    +0.000 A 
ENDBRANCH   1   3
BRANCH   1  11
ATOM     10  S   UNL     1       2.450   7.457  18.478  0.00  0.00    +0.000 S 
ATOM     11  C   UNL     1       3.041   6.043  19.193  0.00  0.00    +0.000 C 
BRANCH  11  12
ATOM     12  C   UNL     1       2.164   4.833  19.365  0.00  0.00    +0.000 A 
ATOM     13  C   UNL     1       1.799   4.366  20.637  0.00  0.00    +0.000 A 
ATOM     14  C   UNL     1       1.043   3.198  20.771  0.00  0.00    +0.000 A 
ATOM     15  C   UNL     1       0.638   2.495  19.640  0.00  0.00    +0.000 A 
ATOM     16  C   UNL     1       0.988   2.953  18.370  0.00  0.00    +0.000 A 
ATOM     17  C   UNL     1       1.752   4.116  18.232  0.00  0.00    +0.000 A 
ENDBRANCH  11  12
ENDBRANCH   1  11
TORSDOF 3
ENDMDL
MODEL 4
REMARK VINA RESULT:      -6.7      3.391      6.102
REMARK  Name = 
REMARK  3 active torsions:
REMARK  status: ('A' for Active; 'I' for Inactive)
REMARK    1  A    between atoms: C_2  and  N_3
REMARK    2  A    between atoms: C_2  and  C_11
REMARK    3  A    between atoms: N_3  and  C_4
REMARK                            x       y       z     vdW  Elec       q    Type
REMARK                         _______ _______ _______ _____ _____    ______ ____
ROOT
ATOM      1  N   UNL     1       3.143   6.004  17.848  0.00  0.00    +0.000 N 
ATOM      2  H   UNL     1       2.640   6.278  17.013  0.00  0.00    +0.000 HD
ENDROOT
BRANCH   1   3
ATOM      3  C   UNL     1       4.483   5.595  17.643  0.00  0.00    +0.000 A 
ATOM      4  C   UNL     1       5.392   5.452  18.696  0.00  0.00    +0.000 A 
ATOM      5  C   UNL     1       6.714   5.073  18.453  0.00  0.00    +0.000 A 
ATOM      6  C   UNL     1       7.133   4.816  17.154  0.00  0.00    +0.000 A 
ATOM      7  C   UNL     1       6.218   4.903  16.107  0.00  0.00    +0.000 A 
ATOM      8 BR   UNL     1       6.788   4.545  14.339  0.00  0.00    +0.000 Br
ATOM      9  C   UNL     1       4.890   5.269  16.347  0.00  0.00    +0.000 A 
ENDBRANCH   1   3
BRANCH   1  11
ATOM     10  S   UNL     1       2.072   7.718  19.703  0.00  0.00    +0.000 S 
ATOM     11  C   UNL     1       2.477   6.209  19.059  0.00  0.00    +0.000 C 
BRANCH  11  12
ATOM     12  C   UNL     1       2.054   4.934  19.737  0.00  0.00    +0.000 A 
ATOM     13  C   UNL     1       2.386   4.668  21.074  0.00  0.00    +0.000 A 
ATOM     14  C   UNL     1       2.043   3.446  21.658  0.00  0.00    +0.000 A 
ATOM     15  C   UNL     1       1.359   2.487  20.918  0.00  0.00    +0.000 A 
ATOM     16  C   UNL     1       1.017   2.741  19.590  0.00  0.00    +0.000 A 
ATOM     17  C   UNL     1       1.366   3.958  18.999  0.00  0.00    +0.000 A 
ENDBRANCH  11  12
ENDBRANCH   1  11
TORSDOF 3
ENDMDL
MODEL 5
REMARK VINA RESULT:      -6.6      3.397      6.033
REMARK  Name = 
REMARK  3 active torsions:
REMARK  status: ('A' for Active; 'I' for Inactive)
REMARK    1  A    between atoms: C_2  and  N_3
REMARK    2  A    between atoms: C_2  and  C_11
REMARK    3  A    between atoms: N_3  and  C_4
REMARK                            x       y       z     vdW  Elec       q    Type
REMARK                         _______ _______ _______ _____ _____    ______ ____
ROOT
ATOM      1  N   UNL     1       3.355   6.530  17.904  0.00  0.00    +0.000 N 
ATOM      2  H   UNL     1       3.086   7.217  17.210  0.00  0.00    +0.000 HD
ENDROOT
BRANCH   1   3
ATOM      3  C   UNL     1       4.603   5.899  17.681  0.00  0.00    +0.000 A 
ATOM      4  C   UNL     1       5.513   5.652  18.714  0.00  0.00    +0.000 A 
ATOM      5  C   UNL     1       6.746   5.051  18.453  0.00  0.00    +0.000 A 
ATOM      6  C   UNL     1       7.072   4.674  17.156  0.00  0.00    +0.000 A 
ATOM      7  C   UNL     1       6.146   4.867  16.132  0.00  0.00    +0.000 A 
ATOM      8 BR   UNL     1       6.588   4.346  14.368  0.00  0.00    +0.000 Br
ATOM      9  C   UNL     1       4.905   5.456  16.391  0.00  0.00    +0.000 A 
ENDBRANCH   1   3
BRANCH   1  11
ATOM     10  S   UNL     1       1.999   7.731  19.965  0.00  0.00    +0.000 S 
ATOM     11  C   UNL     1       2.523   6.430  19.022  0.00  0.00    +0.000 C 
BRANCH  11  12
ATOM     12  C   UNL     1       2.036   5.031  19.286  0.00  0.00    +0.000 A 
ATOM     13  C   UNL     1       1.651   4.178  18.240  0.00  0.00    +0.000 A 
ATOM     14  C   UNL     1       1.135   2.909  18.517  0.00  0.00    +0.000 A 
ATOM     15  C   UNL     1       1.008   2.479  19.834  0.00  0.00    +0.000 A 
ATOM     16  C   UNL     1       1.394   3.315  20.882  0.00  0.00    +0.000 A 
ATOM     17  C   UNL     1       1.902   4.588  20.611  0.00  0.00    +0.000 A 
ENDBRANCH  11  12
ENDBRANCH   1  11
TORSDOF 3
ENDMDL
MODEL 6
REMARK VINA RESULT:      -6.6      1.242      1.329
REMARK  Name = 
REMARK  3 active torsions:
REMARK  status: ('A' for Active; 'I' for Inactive)
REMARK    1  A    between atoms: C_2  and  N_3
REMARK    2  A    between atoms: C_2  and  C_11
REMARK    3  A    between atoms: N_3  and  C_4
REMARK                            x       y       z     vdW  Elec       q    Type
REMARK                         _______ _______ _______ _____ _____    ______ ____
ROOT
ATOM      1  N   UNL     1       5.086   3.242  17.054  0.00  0.00    +0.000 N 
ATOM      2  H   UNL     1       5.579   2.382  17.261  0.00  0.00    +0.000 HD
ENDROOT
BRANCH   1   3
ATOM      3  C   UNL     1       3.839   3.399  17.706  0.00  0.00    +0.000 A 
ATOM      4  C   UNL     1       2.845   2.416  17.669  0.00  0.00    +0.000 A 
ATOM      5  C   UNL     1       1.616   2.617  18.302  0.00  0.00    +0.000 A 
ATOM      6  C   UNL     1       1.379   3.797  18.995  0.00  0.00    +0.000 A 
ATOM      7  C   UNL     1       2.386   4.756  19.083  0.00  0.00    +0.000 A 
ATOM      8 BR   UNL     1       2.064   6.359  20.033  0.00  0.00    +0.000 Br
ATOM      9  C   UNL     1       3.623   4.554  18.462  0.00  0.00    +0.000 A 
ENDBRANCH   1   3
BRANCH   1  11
ATOM     10  S   UNL     1       5.736   4.262  14.591  0.00  0.00    +0.000 S 
ATOM     11  C   UNL     1       5.780   4.174  16.279  0.00  0.00    +0.000 C 
BRANCH  11  12
ATOM     12  C   UNL     1       6.535   5.190  17.092  0.00  0.00    +0.000 A 
ATOM     13  C   UNL     1       6.585   6.541  16.715  0.00  0.00    +0.000 A 
ATOM     14  C   UNL     1       7.352   7.451  17.448  0.00  0.00    +0.000 A 
ATOM     15  C   UNL     1       8.064   7.024  18.564  0.00  0.00    +0.000 A 
ATOM     16  C   UNL     1       8.017   5.686  18.953  0.00  0.00    +0.000 A 
ATOM     17  C   UNL     1       7.258   4.770  18.218  0.00  0.00    +0.000 A 
ENDBRANCH  11  12
ENDBRANCH   1  11
TORSDOF 3
ENDMDL
MODEL 7
REMARK VINA RESULT:      -6.6      2.992      5.759
REMARK  Name = 
REMARK  3 active torsions:
REMARK  status: ('A' for Active; 'I' for Inactive)
REMARK    1  A    between atoms: C_2  and  N_3
REMARK    2  A    between atoms: C_2  and  C_11
REMARK    3  A    between atoms: N_3  and  C_4
REMARK                            x       y       z     vdW  Elec       q    Type
REMARK                         _______ _______ _______ _____ _____    ______ ____
ROOT
ATOM      1  N   UNL     1       3.229   5.823  17.392  0.00  0.00    +0.000 N 
ATOM      2  H   UNL     1       2.737   6.030  16.531  0.00  0.00    +0.000 HD
ENDROOT
BRANCH   1   3
ATOM      3  C   UNL     1       4.561   5.371  17.238  0.00  0.00    +0.000 A 
ATOM      4  C   UNL     1       4.966   4.589  16.152  0.00  0.00    +0.000 A 
ATOM      5  C   UNL     1       6.284   4.139  16.046  0.00  0.00    +0.000 A 
ATOM      6  C   UNL     1       7.214   4.484  17.018  0.00  0.00    +0.000 A 
ATOM      7  C   UNL     1       6.830   5.310  18.073  0.00  0.00    +0.000 A 
ATOM      8 BR   UNL     1       8.099   5.786  19.392  0.00  0.00    +0.000 Br
ATOM      9  C   UNL     1       5.515   5.774  18.176  0.00  0.00    +0.000 A 
ENDBRANCH   1   3
BRANCH   1  11
ATOM     10  S   UNL     1       2.172   7.716  19.073  0.00  0.00    +0.000 S 
ATOM     11  C   UNL     1       2.557   6.148  18.573  0.00  0.00    +0.000 C 
BRANCH  11  12
ATOM     12  C   UNL     1       2.107   4.947  19.361  0.00  0.00    +0.000 A 
ATOM     13  C   UNL     1       2.395   4.817  20.728  0.00  0.00    +0.000 A 
ATOM     14  C   UNL     1       2.029   3.659  21.420  0.00  0.00    +0.000 A 
ATOM     15  C   UNL     1       1.366   2.631  20.758  0.00  0.00    +0.000 A 
ATOM     16  C   UNL     1       1.068   2.752  19.400  0.00  0.00    +0.000 A 
ATOM     17  C   UNL     1       1.440   3.903  18.702  0.00  0.00    +0.000 A 
ENDBRANCH  11  12
ENDBRANCH   1  11
TORSDOF 3
ENDMDL
MODEL 8
REMARK VINA RESULT:      -6.5      4.037      5.984
REMARK  Name = 
REMARK  3 active torsions:
REMARK  status: ('A' for Active; 'I' for Inactive)
REMARK    1  A    between atoms: C_2  and  N_3
REMARK    2  A    between atoms: C_2  and  C_11
REMARK    3  A    between atoms: N_3  and  C_4
REMARK                            x       y       z     vdW  Elec       q    Type
REMARK                         _______ _______ _______ _____ _____    ______ ____
ROOT
ATOM      1  N   UNL     1       2.961   6.479  20.180  0.00  0.00    +0.000 N 
ATOM      2  H   UNL     1       3.085   6.509  21.185  0.00  0.00    +0.000 HD
ENDROOT
BRANCH   1   3
ATOM      3  C   UNL     1       2.271   7.581  19.620  0.00  0.00    +0.000 A 
ATOM      4  C   UNL     1       2.338   7.894  18.259  0.00  0.00    +0.000 A 
ATOM      5  C   UNL     1       1.665   9.005  17.746  0.00  0.00    +0.000 A 
ATOM      6  C   UNL     1       0.903   9.803  18.590  0.00  0.00    +0.000 A 
ATOM      7  C   UNL     1       0.786   9.463  19.936  0.00  0.00    +0.000 A 
ATOM      8 BR   UNL     1      -0.259  10.547  21.082  0.00  0.00    +0.000 Br
ATOM      9  C   UNL     1       1.447   8.344  20.452  0.00  0.00    +0.000 A 
ENDBRANCH   1   3
BRANCH   1  11
ATOM     10  S   UNL     1       5.248   5.412  19.105  0.00  0.00    +0.000 S 
ATOM     11  C   UNL     1       3.609   5.435  19.515  0.00  0.00    +0.000 C 
BRANCH  11  12
ATOM     12  C   UNL     1       2.724   4.247  19.253  0.00  0.00    +0.000 A 
ATOM     13  C   UNL     1       2.978   3.362  18.193  0.00  0.00    +0.000 A 
ATOM     14  C   UNL     1       2.100   2.307  17.928  0.00  0.00    +0.000 A 
ATOM     15  C   UNL     1       0.972   2.122  18.720  0.00  0.00    +0.000 A 
ATOM     16  C   UNL     1       0.712   2.991  19.780  0.00  0.00    +0.000 A 
ATOM     17  C   UNL     1       1.582   4.052  20.044  0.00  0.00    +0.000 A 
ENDBRANCH  11  12
ENDBRANCH   1  11
TORSDOF 3
ENDMDL
MODEL 9
REMARK VINA RESULT:      -6.4      2.974      5.757
REMARK  Name = 
REMARK  3 active torsions:
REMARK  status: ('A' for Active; 'I' for Inactive)
REMARK    1  A    between atoms: C_2  and  N_3
REMARK    2  A    between atoms: C_2  and  C_11
REMARK    3  A    between atoms: N_3  and  C_4
REMARK                            x       y       z     vdW  Elec       q    Type
REMARK                         _______ _______ _______ _____ _____    ______ ____
ROOT
ATOM      1  N   UNL     1       3.428   6.126  17.216  0.00  0.00    +0.000 N 
ATOM      2  H   UNL     1       3.071   6.524  16.356  0.00  0.00    +0.000 HD
ENDROOT
BRANCH   1   3
ATOM      3  C   UNL     1       4.736   5.591  17.141  0.00  0.00    +0.000 A 
ATOM      4  C   UNL     1       5.168   4.816  16.060  0.00  0.00    +0.000 A 
ATOM      5  C   UNL     1       6.458   4.282  16.032  0.00  0.00    +0.000 A 
ATOM      6  C   UNL     1       7.335   4.535  17.080  0.00  0.00    +0.000 A 
ATOM      7  C   UNL     1       6.929   5.352  18.133  0.00  0.00    +0.000 A 
ATOM      8 BR   UNL     1       8.126   5.701  19.555  0.00  0.00    +0.000 Br
ATOM      9  C   UNL     1       5.643   5.900  18.159  0.00  0.00    +0.000 A 
ENDBRANCH   1   3
BRANCH   1  11
ATOM     10  S   UNL     1       2.212   7.790  19.028  0.00  0.00    +0.000 S 
ATOM     11  C   UNL     1       2.628   6.299  18.349  0.00  0.00    +0.000 C 
BRANCH  11  12
ATOM     12  C   UNL     1       2.070   5.012  18.894  0.00  0.00    +0.000 A 
ATOM     13  C   UNL     1       1.684   3.962  18.046  0.00  0.00    +0.000 A 
ATOM     14  C   UNL     1       1.102   2.806  18.573  0.00  0.00    +0.000 A 
ATOM     15  C   UNL     1       0.911   2.685  19.946  0.00  0.00    +0.000 A 
ATOM     16  C   UNL     1       1.296   3.718  20.800  0.00  0.00    +0.000 A 
ATOM     17  C   UNL     1       1.870   4.880  20.276  0.00  0.00    +0.000 A 
ENDBRANCH  11  12
ENDBRANCH   1  11
TORSDOF 3
ENDMDL
