MODEL 1
REMARK VINA RESULT:      -8.6      0.000      0.000
REMARK  Name = 
REMARK  5 active torsions:
REMARK  status: ('A' for Active; 'I' for Inactive)
REMARK    1  A    between atoms: C_2  and  C_19
REMARK    2  A    between atoms: N_3  and  C_4
REMARK    3  A    between atoms: C_4  and  C_5
REMARK    4  A    between atoms: C_5  and  C_6
REMARK    5  A    between atoms: C_5  and  N_13
REMARK                            x       y       z     vdW  Elec       q    Type
REMARK                         _______ _______ _______ _____ _____    ______ ____
ROOT
ATOM      1  C   UNL     1       2.898   7.567  17.880  0.00  0.00    +0.000 C 
ENDROOT
BRANCH   1   4
ATOM      2  O   UNL     1       0.835   9.466  17.698  0.00  0.00    +0.000 OA
ATOM      3  C   UNL     1       1.227   9.123  18.808  0.00  0.00    +0.000 C 
ATOM      4  N   UNL     1       2.215   8.195  18.997  0.00  0.00    +0.000 N 
ATOM      5  H   UNL     1       2.484   7.918  19.939  0.00  0.00    +0.000 HD
BRANCH   3   6
ATOM      6  C   UNL     1       0.624   9.730  20.022  0.00  0.00    +0.000 A 
ATOM      7  C   UNL     1       0.072  11.016  19.921  0.00  0.00    +0.000 A 
ATOM      8  C   UNL     1      -0.485  11.619  21.045  0.00  0.00    +0.000 A 
ATOM      9  F   UNL     1      -1.006  12.848  20.938  0.00  0.00    +0.000 F 
ATOM     10  C   UNL     1      -0.497  10.963  22.269  0.00  0.00    +0.000 A 
ATOM     11  F   UNL     1      -1.029  11.556  23.345  0.00  0.00    +0.000 F 
ATOM     12  C   UNL     1       0.049   9.693  22.375  0.00  0.00    +0.000 A 
ATOM     13  F   UNL     1       0.045   9.055  23.553  0.00  0.00    +0.000 F 
ATOM     14  C   UNL     1       0.607   9.078  21.260  0.00  0.00    +0.000 A 
ATOM     15  F   UNL     1       1.134   7.852  21.405  0.00  0.00    +0.000 F 
ENDBRANCH   3   6
ENDBRANCH   1   4
BRANCH   1  16
ATOM     16  C   UNL     1       3.715   6.285  18.270  0.00  0.00    +0.000 C 
BRANCH  16  17
ATOM     17  C   UNL     1       2.823   5.300  19.064  0.00  0.00    +0.000 A 
ATOM     18  C   UNL     1       1.844   4.493  18.452  0.00  0.00    +0.000 A 
ATOM     19  C   UNL     1       1.077   3.593  19.201  0.00  0.00    +0.000 A 
ATOM     20  C   UNL     1       1.299   3.468  20.563  0.00  0.00    +0.000 A 
ATOM     21  F   UNL     1       0.598   2.572  21.271  0.00  0.00    +0.000 F 
ATOM     22  C   UNL     1       2.244   4.258  21.202  0.00  0.00    +0.000 A 
ATOM     23  C   UNL     1       2.986   5.183  20.461  0.00  0.00    +0.000 A 
ENDBRANCH  16  17
BRANCH  16  24
ATOM     24  N   UNL     1       4.355   5.656  17.076  0.00  0.00    +0.000 NA
ATOM     25  C   UNL     1       5.165   4.444  17.366  0.00  0.00    +0.000 C 
ATOM     26  C   UNL     1       6.516   4.722  18.054  0.00  0.00    +0.000 C 
ATOM     27  O   UNL     1       7.312   5.650  17.306  0.00  0.00    +0.000 OA
ATOM     28  C   UNL     1       6.591   6.862  17.064  0.00  0.00    +0.000 C 
ATOM     29  C   UNL     1       5.266   6.573  16.335  0.00  0.00    +0.000 C 
ENDBRANCH  16  24
ENDBRANCH   1  16
TORSDOF 5
ENDMDL
MODEL 2
REMARK VINA RESULT:      -8.5      0.636      1.798
REMARK  Name = 
REMARK  5 active torsions:
REMARK  status: ('A' for Active; 'I' for Inactive)
REMARK    1  A    between atoms: C_2  and  C_19
REMARK    2  A    between atoms: N_3  and  C_4
REMARK    3  A    between atoms: C_4  and  C_5
REMARK    4  A    between atoms: C_5  and  C_6
REMARK    5  A    between atoms: C_5  and  N_13
REMARK                            x       y       z     vdW  Elec       q    Type
REMARK                         _______ _______ _______ _____ _____    ______ ____
ROOT
ATOM      1  C   UNL     1       2.815   7.498  17.841  0.00  0.00    +0.000 C 
ENDROOT
BRANCH   1   4
ATOM      2  O   UNL     1       1.637  10.050  17.842  0.00  0.00    +0.000 OA
ATOM      3  C   UNL     1       1.498   9.334  18.827  0.00  0.00    +0.000 C 
ATOM      4  N   UNL     1       2.021   8.072  18.914  0.00  0.00    +0.000 N 
ATOM      5  H   UNL     1       1.852   7.502  19.740  0.00  0.00    +0.000 HD
BRANCH   3   6
ATOM      6  C   UNL     1       0.736   9.834  20.000  0.00  0.00    +0.000 A 
ATOM      7  C   UNL     1       1.003   9.274  21.258  0.00  0.00    +0.000 A 
ATOM      8  C   UNL     1       0.294   9.709  22.373  0.00  0.00    +0.000 A 
ATOM      9  F   UNL     1       0.555   9.165  23.569  0.00  0.00    +0.000 F 
ATOM     10  C   UNL     1      -0.682  10.689  22.254  0.00  0.00    +0.000 A 
ATOM     11  F   UNL     1      -1.363  11.095  23.333  0.00  0.00    +0.000 F 
ATOM     12  C   UNL     1      -0.953  11.245  21.013  0.00  0.00    +0.000 A 
ATOM     13  F   UNL     1      -1.895  12.190  20.889  0.00  0.00    +0.000 F 
ATOM     14  C   UNL     1      -0.249  10.822  19.891  0.00  0.00    +0.000 A 
ATOM     15  F   UNL     1      -0.547  11.377  18.705  0.00  0.00    +0.000 F 
ENDBRANCH   3   6
ENDBRANCH   1   4
BRANCH   1  16
ATOM     16  C   UNL     1       3.657   6.245  18.271  0.00  0.00    +0.000 C 
BRANCH  16  17
ATOM     17  C   UNL     1       2.784   5.262  19.087  0.00  0.00    +0.000 A 
ATOM     18  C   UNL     1       1.805   4.439  18.495  0.00  0.00    +0.000 A 
ATOM     19  C   UNL     1       1.054   3.542  19.263  0.00  0.00    +0.000 A 
ATOM     20  C   UNL     1       1.292   3.436  20.624  0.00  0.00    +0.000 A 
ATOM     21  F   UNL     1       0.607   2.543  21.351  0.00  0.00    +0.000 F 
ATOM     22  C   UNL     1       2.237   4.242  21.243  0.00  0.00    +0.000 A 
ATOM     23  C   UNL     1       2.962   5.165  20.483  0.00  0.00    +0.000 A 
ENDBRANCH  16  17
BRANCH  16  24
ATOM     24  N   UNL     1       4.319   5.598  17.097  0.00  0.00    +0.000 NA
ATOM     25  C   UNL     1       5.153   4.413  17.424  0.00  0.00    +0.000 C 
ATOM     26  C   UNL     1       6.493   4.739  18.111  0.00  0.00    +0.000 C 
ATOM     27  O   UNL     1       7.273   5.663  17.343  0.00  0.00    +0.000 OA
ATOM     28  C   UNL     1       6.527   6.852  17.065  0.00  0.00    +0.000 C 
ATOM     29  C   UNL     1       5.213   6.515  16.336  0.00  0.00    +0.000 C 
ENDBRANCH  16  24
ENDBRANCH   1  16
TORSDOF 5
ENDMDL
MODEL 3
REMARK VINA RESULT:      -8.4      0.629      1.104
REMARK  Name = 
REMARK  5 active torsions:
REMARK  status: ('A' for Active; 'I' for Inactive)
REMARK    1  A    between atoms: C_2  and  C_19
REMARK    2  A    between atoms: N_3  and  C_4
REMARK    3  A    between atoms: C_4  and  C_5
REMARK    4  A    between atoms: C_5  and  C_6
REMARK    5  A    between atoms: C_5  and  N_13
REMARK                            x       y       z     vdW  Elec       q    Type
REMARK                         _______ _______ _______ _____ _____    ______ ____
ROOT
ATOM      1  C   UNL     1       3.290   7.462  17.635  0.00  0.00    +0.000 C 
ENDROOT
BRANCH   1   4
ATOM      2  O   UNL     1       1.847   9.867  17.458  0.00  0.00    +0.000 OA
ATOM      3  C   UNL     1       1.754   9.195  18.479  0.00  0.00    +0.000 C 
ATOM      4  N   UNL     1       2.406   8.004  18.652  0.00  0.00    +0.000 N 
ATOM      5  H   UNL     1       2.273   7.465  19.505  0.00  0.00    +0.000 HD
BRANCH   3   6
ATOM      6  C   UNL     1       0.906   9.674  19.601  0.00  0.00    +0.000 A 
ATOM      7  C   UNL     1       0.082  10.789  19.385  0.00  0.00    +0.000 A 
ATOM      8  C   UNL     1      -0.712  11.272  20.421  0.00  0.00    +0.000 A 
ATOM      9  F   UNL     1      -1.492  12.338  20.205  0.00  0.00    +0.000 F 
ATOM     10  C   UNL     1      -0.693  10.666  21.670  0.00  0.00    +0.000 A 
ATOM     11  F   UNL     1      -1.456  11.144  22.661  0.00  0.00    +0.000 F 
ATOM     12  C   UNL     1       0.121   9.565  21.890  0.00  0.00    +0.000 A 
ATOM     13  F   UNL     1       0.147   8.977  23.093  0.00  0.00    +0.000 F 
ATOM     14  C   UNL     1       0.917   9.070  20.863  0.00  0.00    +0.000 A 
ATOM     15  F   UNL     1       1.699   8.009  21.117  0.00  0.00    +0.000 F 
ENDBRANCH   3   6
ENDBRANCH   1   4
BRANCH   1  16
ATOM     16  C   UNL     1       4.032   6.149  18.068  0.00  0.00    +0.000 C 
BRANCH  16  17
ATOM     17  C   UNL     1       3.037   5.158  18.719  0.00  0.00    +0.000 A 
ATOM     18  C   UNL     1       3.011   4.900  20.104  0.00  0.00    +0.000 A 
ATOM     19  C   UNL     1       2.076   4.019  20.659  0.00  0.00    +0.000 A 
ATOM     20  C   UNL     1       1.140   3.406  19.841  0.00  0.00    +0.000 A 
ATOM     21  F   UNL     1       0.216   2.599  20.379  0.00  0.00    +0.000 F 
ATOM     22  C   UNL     1       1.146   3.623  18.471  0.00  0.00    +0.000 A 
ATOM     23  C   UNL     1       2.102   4.477  17.911  0.00  0.00    +0.000 A 
ENDBRANCH  16  17
BRANCH  16  24
ATOM     24  N   UNL     1       4.793   5.546  16.932  0.00  0.00    +0.000 NA
ATOM     25  C   UNL     1       5.635   4.376  17.294  0.00  0.00    +0.000 C 
ATOM     26  C   UNL     1       6.914   4.723  18.083  0.00  0.00    +0.000 C 
ATOM     27  O   UNL     1       7.720   5.684  17.391  0.00  0.00    +0.000 OA
ATOM     28  C   UNL     1       6.962   6.859  17.084  0.00  0.00    +0.000 C 
ATOM     29  C   UNL     1       5.714   6.503  16.257  0.00  0.00    +0.000 C 
ENDBRANCH  16  24
ENDBRANCH   1  16
TORSDOF 5
ENDMDL
MODEL 4
REMARK VINA RESULT:      -8.4      0.847      2.001
REMARK  Name = 
REMARK  5 active torsions:
REMARK  status: ('A' for Active; 'I' for Inactive)
REMARK    1  A    between atoms: C_2  and  C_19
REMARK    2  A    between atoms: N_3  and  C_4
REMARK    3  A    between atoms: C_4  and  C_5
REMARK    4  A    between atoms: C_5  and  C_6
REMARK    5  A    between atoms: C_5  and  N_13
REMARK                            x       y       z     vdW  Elec       q    Type
REMARK                         _______ _______ _______ _____ _____    ______ ____
ROOT
ATOM      1  C   UNL     1       3.139   7.474  17.684  0.00  0.00    +0.000 C 
ENDROOT
BRANCH   1   4
ATOM      2  O   UNL     1       1.506   9.755  17.512  0.00  0.00    +0.000 OA
ATOM      3  C   UNL     1       1.658   9.217  18.603  0.00  0.00    +0.000 C 
ATOM      4  N   UNL     1       2.422   8.095  18.783  0.00  0.00    +0.000 N 
ATOM      5  H   UNL     1       2.492   7.665  19.703  0.00  0.00    +0.000 HD
BRANCH   3   6
ATOM      6  C   UNL     1       1.000   9.791  19.806  0.00  0.00    +0.000 A 
ATOM      7  C   UNL     1       0.360   8.916  20.697  0.00  0.00    +0.000 A 
ATOM      8  C   UNL     1      -0.280   9.423  21.823  0.00  0.00    +0.000 A 
ATOM      9  F   UNL     1      -0.890   8.581  22.665  0.00  0.00    +0.000 F 
ATOM     10  C   UNL     1      -0.298  10.789  22.073  0.00  0.00    +0.000 A 
ATOM     11  F   UNL     1      -0.923  11.267  23.156  0.00  0.00    +0.000 F 
ATOM     12  C   UNL     1       0.331  11.659  21.195  0.00  0.00    +0.000 A 
ATOM     13  F   UNL     1       0.315  12.978  21.427  0.00  0.00    +0.000 F 
ATOM     14  C   UNL     1       0.976  11.165  20.067  0.00  0.00    +0.000 A 
ATOM     15  F   UNL     1       1.565  12.039  19.235  0.00  0.00    +0.000 F 
ENDBRANCH   3   6
ENDBRANCH   1   4
BRANCH   1  16
ATOM     16  C   UNL     1       3.949   6.193  18.093  0.00  0.00    +0.000 C 
BRANCH  16  17
ATOM     17  C   UNL     1       3.028   5.183  18.819  0.00  0.00    +0.000 A 
ATOM     18  C   UNL     1       3.113   4.932  20.203  0.00  0.00    +0.000 A 
ATOM     19  C   UNL     1       2.243   4.031  20.829  0.00  0.00    +0.000 A 
ATOM     20  C   UNL     1       1.262   3.395  20.086  0.00  0.00    +0.000 A 
ATOM     21  F   UNL     1       0.399   2.569  20.694  0.00  0.00    +0.000 F 
ATOM     22  C   UNL     1       1.159   3.606  18.719  0.00  0.00    +0.000 A 
ATOM     23  C   UNL     1       2.051   4.478  18.086  0.00  0.00    +0.000 A 
ENDBRANCH  16  17
BRANCH  16  24
ATOM     24  N   UNL     1       4.659   5.594  16.922  0.00  0.00    +0.000 NA
ATOM     25  C   UNL     1       5.492   4.405  17.238  0.00  0.00    +0.000 C 
ATOM     26  C   UNL     1       6.804   4.719  17.985  0.00  0.00    +0.000 C 
ATOM     27  O   UNL     1       7.602   5.677  17.279  0.00  0.00    +0.000 OA
ATOM     28  C   UNL     1       6.855   6.868  17.015  0.00  0.00    +0.000 C 
ATOM     29  C   UNL     1       5.571   6.546  16.228  0.00  0.00    +0.000 C 
ENDBRANCH  16  24
ENDBRANCH   1  16
TORSDOF 5
ENDMDL
MODEL 5
REMARK VINA RESULT:      -8.4      3.129      4.923
REMARK  Name = 
REMARK  5 active torsions:
REMARK  status: ('A' for Active; 'I' for Inactive)
REMARK    1  A    between atoms: C_2  and  C_19
REMARK    2  A    between atoms: N_3  and  C_4
REMARK    3  A    between atoms: C_4  and  C_5
REMARK    4  A    between atoms: C_5  and  C_6
REMARK    5  A    between atoms: C_5  and  N_13
REMARK                            x       y       z     vdW  Elec       q    Type
REMARK                         _______ _______ _______ _____ _____    ______ ____
ROOT
ATOM      1  C   UNL     1       4.264   5.175  19.642  0.00  0.00    +0.000 C 
ENDROOT
BRANCH   1   4
ATOM      2  O   UNL     1       3.540   7.342  18.006  0.00  0.00    +0.000 OA
ATOM      3  C   UNL     1       2.951   7.180  19.069  0.00  0.00    +0.000 C 
ATOM      4  N   UNL     1       3.223   6.147  19.924  0.00  0.00    +0.000 N 
ATOM      5  H   UNL     1       2.684   6.034  20.780  0.00  0.00    +0.000 HD
BRANCH   3   6
ATOM      6  C   UNL     1       1.892   8.139  19.478  0.00  0.00    +0.000 A 
ATOM      7  C   UNL     1       1.347   8.021  20.765  0.00  0.00    +0.000 A 
ATOM      8  C   UNL     1       0.341   8.892  21.172  0.00  0.00    +0.000 A 
ATOM      9  F   UNL     1      -0.174   8.770  22.401  0.00  0.00    +0.000 F 
ATOM     10  C   UNL     1      -0.135   9.875  20.314  0.00  0.00    +0.000 A 
ATOM     11  F   UNL     1      -1.109  10.703  20.713  0.00  0.00    +0.000 F 
ATOM     12  C   UNL     1       0.397   9.994  19.039  0.00  0.00    +0.000 A 
ATOM     13  F   UNL     1      -0.059  10.937  18.204  0.00  0.00    +0.000 F 
ATOM     14  C   UNL     1       1.405   9.132  18.621  0.00  0.00    +0.000 A 
ATOM     15  F   UNL     1       1.889   9.272  17.376  0.00  0.00    +0.000 F 
ENDBRANCH   3   6
ENDBRANCH   1   4
BRANCH   1  16
ATOM     16  C   UNL     1       3.940   4.224  18.436  0.00  0.00    +0.000 C 
BRANCH  16  17
ATOM     17  C   UNL     1       4.974   4.420  17.301  0.00  0.00    +0.000 A 
ATOM     18  C   UNL     1       6.346   4.627  17.546  0.00  0.00    +0.000 A 
ATOM     19  C   UNL     1       7.255   4.771  16.492  0.00  0.00    +0.000 A 
ATOM     20  C   UNL     1       6.809   4.682  15.183  0.00  0.00    +0.000 A 
ATOM     21  F   UNL     1       7.687   4.774  14.175  0.00  0.00    +0.000 F 
ATOM     22  C   UNL     1       5.463   4.496  14.904  0.00  0.00    +0.000 A 
ATOM     23  C   UNL     1       4.548   4.387  15.957  0.00  0.00    +0.000 A 
ENDBRANCH  16  17
BRANCH  16  24
ATOM     24  N   UNL     1       3.821   2.800  18.874  0.00  0.00    +0.000 NA
ATOM     25  C   UNL     1       2.787   2.009  18.158  0.00  0.00    +0.000 C 
ATOM     26  C   UNL     1       1.334   2.344  18.552  0.00  0.00    +0.000 C 
ATOM     27  O   UNL     1       1.124   2.221  19.964  0.00  0.00    +0.000 OA
ATOM     28  C   UNL     1       2.059   3.023  20.691  0.00  0.00    +0.000 C 
ATOM     29  C   UNL     1       3.506   2.646  20.322  0.00  0.00    +0.000 C 
ENDBRANCH  16  24
ENDBRANCH   1  16
TORSDOF 5
ENDMDL
MODEL 6
REMARK VINA RESULT:      -8.2      3.283      5.053
REMARK  Name = 
REMARK  5 active torsions:
REMARK  status: ('A' for Active; 'I' for Inactive)
REMARK    1  A    between atoms: C_2  and  C_19
REMARK    2  A    between atoms: N_3  and  C_4
REMARK    3  A    between atoms: C_4  and  C_5
REMARK    4  A    between atoms: C_5  and  C_6
REMARK    5  A    between atoms: C_5  and  N_13
REMARK                            x       y       z     vdW  Elec       q    Type
REMARK                         _______ _______ _______ _____ _____    ______ ____
ROOT
ATOM      1  C   UNL     1       4.457   4.920  19.546  0.00  0.00    +0.000 C 
ENDROOT
BRANCH   1   4
ATOM      2  O   UNL     1       1.754   5.395  20.152  0.00  0.00    +0.000 OA
ATOM      3  C   UNL     1       2.478   6.349  19.888  0.00  0.00    +0.000 C 
ATOM      4  N   UNL     1       3.809   6.218  19.595  0.00  0.00    +0.000 N 
ATOM      5  H   UNL     1       4.377   7.043  19.414  0.00  0.00    +0.000 HD
BRANCH   3   6
ATOM      6  C   UNL     1       1.911   7.722  19.871  0.00  0.00    +0.000 A 
ATOM      7  C   UNL     1       1.381   8.239  21.063  0.00  0.00    +0.000 A 
ATOM      8  C   UNL     1       0.827   9.515  21.076  0.00  0.00    +0.000 A 
ATOM      9  F   UNL     1       0.320   9.997  22.218  0.00  0.00    +0.000 F 
ATOM     10  C   UNL     1       0.787  10.282  19.920  0.00  0.00    +0.000 A 
ATOM     11  F   UNL     1       0.244  11.507  19.943  0.00  0.00    +0.000 F 
ATOM     12  C   UNL     1       1.307   9.776  18.738  0.00  0.00    +0.000 A 
ATOM     13  F   UNL     1       1.270  10.509  17.618  0.00  0.00    +0.000 F 
ATOM     14  C   UNL     1       1.866   8.504  18.712  0.00  0.00    +0.000 A 
ATOM     15  F   UNL     1       2.351   8.044  17.546  0.00  0.00    +0.000 F 
ENDBRANCH   3   6
ENDBRANCH   1   4
BRANCH   1  16
ATOM     16  C   UNL     1       4.112   4.082  18.265  0.00  0.00    +0.000 C 
BRANCH  16  17
ATOM     17  C   UNL     1       5.111   4.402  17.127  0.00  0.00    +0.000 A 
ATOM     18  C   UNL     1       6.478   4.654  17.359  0.00  0.00    +0.000 A 
ATOM     19  C   UNL     1       7.356   4.911  16.300  0.00  0.00    +0.000 A 
ATOM     20  C   UNL     1       6.885   4.892  14.996  0.00  0.00    +0.000 A 
ATOM     21  F   UNL     1       7.735   5.092  13.980  0.00  0.00    +0.000 F 
ATOM     22  C   UNL     1       5.542   4.664  14.731  0.00  0.00    +0.000 A 
ATOM     23  C   UNL     1       4.657   4.442  15.791  0.00  0.00    +0.000 A 
ENDBRANCH  16  17
BRANCH  16  24
ATOM     24  N   UNL     1       4.026   2.621  18.569  0.00  0.00    +0.000 NA
ATOM     25  C   UNL     1       2.824   1.939  18.025  0.00  0.00    +0.000 C 
ATOM     26  C   UNL     1       1.511   2.260  18.767  0.00  0.00    +0.000 C 
ATOM     27  O   UNL     1       1.612   1.985  20.169  0.00  0.00    +0.000 OA
ATOM     28  C   UNL     1       2.721   2.681  20.747  0.00  0.00    +0.000 C 
ATOM     29  C   UNL     1       4.031   2.314  20.027  0.00  0.00    +0.000 C 
ENDBRANCH  16  24
ENDBRANCH   1  16
TORSDOF 5
ENDMDL
MODEL 7
REMARK VINA RESULT:      -8.2      4.558      8.427
REMARK  Name = 
REMARK  5 active torsions:
REMARK  status: ('A' for Active; 'I' for Inactive)
REMARK    1  A    between atoms: C_2  and  C_19
REMARK    2  A    between atoms: N_3  and  C_4
REMARK    3  A    between atoms: C_4  and  C_5
REMARK    4  A    between atoms: C_5  and  C_6
REMARK    5  A    between atoms: C_5  and  N_13
REMARK                            x       y       z     vdW  Elec       q    Type
REMARK                         _______ _______ _______ _____ _____    ______ ____
ROOT
ATOM      1  C   UNL     1       5.070   5.414  19.187  0.00  0.00    +0.000 C 
ENDROOT
BRANCH   1   4
ATOM      2  O   UNL     1       7.396   4.423  17.959  0.00  0.00    +0.000 OA
ATOM      3  C   UNL     1       6.452   4.760  17.253  0.00  0.00    +0.000 C 
ATOM      4  N   UNL     1       5.274   5.240  17.760  0.00  0.00    +0.000 N 
ATOM      5  H   UNL     1       4.506   5.477  17.135  0.00  0.00    +0.000 HD
BRANCH   3   6
ATOM      6  C   UNL     1       6.564   4.660  15.775  0.00  0.00    +0.000 A 
ATOM      7  C   UNL     1       7.703   5.196  15.155  0.00  0.00    +0.000 A 
ATOM      8  C   UNL     1       7.830   5.133  13.771  0.00  0.00    +0.000 A 
ATOM      9  F   UNL     1       8.919   5.650  13.189  0.00  0.00    +0.000 F 
ATOM     10  C   UNL     1       6.838   4.550  12.994  0.00  0.00    +0.000 A 
ATOM     11  F   UNL     1       6.968   4.502  11.662  0.00  0.00    +0.000 F 
ATOM     12  C   UNL     1       5.709   4.021  13.600  0.00  0.00    +0.000 A 
ATOM     13  F   UNL     1       4.746   3.460  12.858  0.00  0.00    +0.000 F 
ATOM     14  C   UNL     1       5.571   4.075  14.983  0.00  0.00    +0.000 A 
ATOM     15  F   UNL     1       4.459   3.560  15.533  0.00  0.00    +0.000 F 
ENDBRANCH   3   6
ENDBRANCH   1   4
BRANCH   1  16
ATOM     16  C   UNL     1       3.572   5.290  19.638  0.00  0.00    +0.000 C 
BRANCH  16  17
ATOM     17  C   UNL     1       2.812   6.608  19.353  0.00  0.00    +0.000 A 
ATOM     18  C   UNL     1       2.046   7.274  20.330  0.00  0.00    +0.000 A 
ATOM     19  C   UNL     1       1.396   8.479  20.041  0.00  0.00    +0.000 A 
ATOM     20  C   UNL     1       1.528   9.047  18.784  0.00  0.00    +0.000 A 
ATOM     21  F   UNL     1       0.945  10.225  18.523  0.00  0.00    +0.000 F 
ATOM     22  C   UNL     1       2.261   8.411  17.793  0.00  0.00    +0.000 A 
ATOM     23  C   UNL     1       2.881   7.189  18.069  0.00  0.00    +0.000 A 
ENDBRANCH  16  17
BRANCH  16  24
ATOM     24  N   UNL     1       2.912   4.095  19.030  0.00  0.00    +0.000 NA
ATOM     25  C   UNL     1       1.432   4.063  19.162  0.00  0.00    +0.000 C 
ATOM     26  C   UNL     1       0.920   3.735  20.578  0.00  0.00    +0.000 C 
ATOM     27  O   UNL     1       1.460   2.502  21.067  0.00  0.00    +0.000 OA
ATOM     28  C   UNL     1       2.890   2.518  21.021  0.00  0.00    +0.000 C 
ATOM     29  C   UNL     1       3.388   2.800  19.591  0.00  0.00    +0.000 C 
ENDBRANCH  16  24
ENDBRANCH   1  16
TORSDOF 5
ENDMDL
MODEL 8
REMARK VINA RESULT:      -8.2      4.661      8.490
REMARK  Name = 
REMARK  5 active torsions:
REMARK  status: ('A' for Active; 'I' for Inactive)
REMARK    1  A    between atoms: C_2  and  C_19
REMARK    2  A    between atoms: N_3  and  C_4
REMARK    3  A    between atoms: C_4  and  C_5
REMARK    4  A    between atoms: C_5  and  C_6
REMARK    5  A    between atoms: C_5  and  N_13
REMARK                            x       y       z     vdW  Elec       q    Type
REMARK                         _______ _______ _______ _____ _____    ______ ____
ROOT
ATOM      1  C   UNL     1       5.091   5.678  18.798  0.00  0.00    +0.000 C 
ENDROOT
BRANCH   1   4
ATOM      2  O   UNL     1       7.385   4.474  17.708  0.00  0.00    +0.000 OA
ATOM      3  C   UNL     1       6.506   4.868  16.949  0.00  0.00    +0.000 C 
ATOM      4  N   UNL     1       5.348   5.453  17.386  0.00  0.00    +0.000 N 
ATOM      5  H   UNL     1       4.632   5.734  16.720  0.00  0.00    +0.000 HD
BRANCH   3   6
ATOM      6  C   UNL     1       6.681   4.723  15.481  0.00  0.00    +0.000 A 
ATOM      7  C   UNL     1       7.768   5.367  14.872  0.00  0.00    +0.000 A 
ATOM      8  C   UNL     1       7.950   5.265  13.497  0.00  0.00    +0.000 A 
ATOM      9  F   UNL     1       8.989   5.886  12.925  0.00  0.00    +0.000 F 
ATOM     10  C   UNL     1       7.062   4.536  12.716  0.00  0.00    +0.000 A 
ATOM     11  F   UNL     1       7.243   4.450  11.392  0.00  0.00    +0.000 F 
ATOM     12  C   UNL     1       5.984   3.899  13.312  0.00  0.00    +0.000 A 
ATOM     13  F   UNL     1       5.121   3.196  12.567  0.00  0.00    +0.000 F 
ATOM     14  C   UNL     1       5.792   3.991  14.686  0.00  0.00    +0.000 A 
ATOM     15  F   UNL     1       4.731   3.369  15.225  0.00  0.00    +0.000 F 
ENDBRANCH   3   6
ENDBRANCH   1   4
BRANCH   1  16
ATOM     16  C   UNL     1       3.588   5.494  19.210  0.00  0.00    +0.000 C 
BRANCH  16  17
ATOM     17  C   UNL     1       2.822   6.831  19.067  0.00  0.00    +0.000 A 
ATOM     18  C   UNL     1       2.780   7.562  17.863  0.00  0.00    +0.000 A 
ATOM     19  C   UNL     1       2.052   8.753  17.765  0.00  0.00    +0.000 A 
ATOM     20  C   UNL     1       1.335   9.212  18.859  0.00  0.00    +0.000 A 
ATOM     21  F   UNL     1       0.600  10.328  18.750  0.00  0.00    +0.000 F 
ATOM     22  C   UNL     1       1.366   8.527  20.065  0.00  0.00    +0.000 A 
ATOM     23  C   UNL     1       2.122   7.356  20.174  0.00  0.00    +0.000 A 
ENDBRANCH  16  17
BRANCH  16  24
ATOM     24  N   UNL     1       2.945   4.372  18.460  0.00  0.00    +0.000 NA
ATOM     25  C   UNL     1       1.480   4.238  18.671  0.00  0.00    +0.000 C 
ATOM     26  C   UNL     1       1.077   3.667  20.045  0.00  0.00    +0.000 C 
ATOM     27  O   UNL     1       1.705   2.405  20.301  0.00  0.00    +0.000 OA
ATOM     28  C   UNL     1       3.127   2.507  20.176  0.00  0.00    +0.000 C 
ATOM     29  C   UNL     1       3.516   3.034  18.782  0.00  0.00    +0.000 C 
ENDBRANCH  16  24
ENDBRANCH   1  16
TORSDOF 5
ENDMDL
MODEL 9
REMARK VINA RESULT:      -8.2      1.341      2.280
REMARK  Name = 
REMARK  5 active torsions:
REMARK  status: ('A' for Active; 'I' for Inactive)
REMARK    1  A    between atoms: C_2  and  C_19
REMARK    2  A    between atoms: N_3  and  C_4
REMARK    3  A    between atoms: C_4  and  C_5
REMARK    4  A    between atoms: C_5  and  C_6
REMARK    5  A    between atoms: C_5  and  N_13
REMARK                            x       y       z     vdW  Elec       q    Type
REMARK                         _______ _______ _______ _____ _____    ______ ____
ROOT
ATOM      1  C   UNL     1       3.466   7.129  17.768  0.00  0.00    +0.000 C 
ENDROOT
BRANCH   1   4
ATOM      2  O   UNL     1       1.996   9.496  17.402  0.00  0.00    +0.000 OA
ATOM      3  C   UNL     1       1.902   8.900  18.469  0.00  0.00    +0.000 C 
ATOM      4  N   UNL     1       2.567   7.733  18.734  0.00  0.00    +0.000 N 
ATOM      5  H   UNL     1       2.431   7.257  19.624  0.00  0.00    +0.000 HD
BRANCH   3   6
ATOM      6  C   UNL     1       1.037   9.449  19.545  0.00  0.00    +0.000 A 
ATOM      7  C   UNL     1       1.278   9.042  20.866  0.00  0.00    +0.000 A 
ATOM      8  C   UNL     1       0.475   9.525  21.895  0.00  0.00    +0.000 A 
ATOM      9  F   UNL     1       0.711   9.128  23.152  0.00  0.00    +0.000 F 
ATOM     10  C   UNL     1      -0.568  10.401  21.628  0.00  0.00    +0.000 A 
ATOM     11  F   UNL     1      -1.339  10.854  22.625  0.00  0.00    +0.000 F 
ATOM     12  C   UNL     1      -0.812  10.805  20.324  0.00  0.00    +0.000 A 
ATOM     13  F   UNL     1      -1.818  11.648  20.057  0.00  0.00    +0.000 F 
ATOM     14  C   UNL     1      -0.016  10.333  19.287  0.00  0.00    +0.000 A 
ATOM     15  F   UNL     1      -0.290  10.739  18.037  0.00  0.00    +0.000 F 
ENDBRANCH   3   6
ENDBRANCH   1   4
BRANCH   1  16
ATOM     16  C   UNL     1       4.173   5.825  18.282  0.00  0.00    +0.000 C 
BRANCH  16  17
ATOM     17  C   UNL     1       3.139   4.688  18.466  0.00  0.00    +0.000 A 
ATOM     18  C   UNL     1       2.242   4.640  19.552  0.00  0.00    +0.000 A 
ATOM     19  C   UNL     1       1.302   3.610  19.668  0.00  0.00    +0.000 A 
ATOM     20  C   UNL     1       1.228   2.633  18.688  0.00  0.00    +0.000 A 
ATOM     21  F   UNL     1       0.296   1.674  18.775  0.00  0.00    +0.000 F 
ATOM     22  C   UNL     1       2.105   2.640  17.613  0.00  0.00    +0.000 A 
ATOM     23  C   UNL     1       3.069   3.649  17.515  0.00  0.00    +0.000 A 
ENDBRANCH  16  17
BRANCH  16  24
ATOM     24  N   UNL     1       5.315   5.434  17.401  0.00  0.00    +0.000 NA
ATOM     25  C   UNL     1       6.435   4.747  18.096  0.00  0.00    +0.000 C 
ATOM     26  C   UNL     1       7.310   5.667  18.971  0.00  0.00    +0.000 C 
ATOM     27  O   UNL     1       7.830   6.774  18.225  0.00  0.00    +0.000 OA
ATOM     28  C   UNL     1       6.774   7.505  17.594  0.00  0.00    +0.000 C 
ATOM     29  C   UNL     1       5.938   6.584  16.686  0.00  0.00    +0.000 C 
ENDBRANCH  16  24
ENDBRANCH   1  16
TORSDOF 5
ENDMDL
