MODEL 1
REMARK VINA RESULT:      -8.2      0.000      0.000
REMARK  Name = 
REMARK  11 active torsions:
REMARK  status: ('A' for Active; 'I' for Inactive)
REMARK    1  A    between atoms: C_1  and  C_2
REMARK    2  A    between atoms: C_2  and  C_3
REMARK    3  A    between atoms: C_3  and  N_4
REMARK    4  A    between atoms: C_3  and  C_24
REMARK    5  A    between atoms: N_4  and  C_5
REMARK    6  A    between atoms: C_6  and  N_7
REMARK    7  A    between atoms: N_7  and  C_8
REMARK    8  A    between atoms: C_12  and  C_13
REMARK    9  A    between atoms: N_15  and  C_16
REMARK   10  A    between atoms: N_15  and  C_17
REMARK   11  A    between atoms: C_18  and  O_19
REMARK                            x       y       z     vdW  Elec       q    Type
REMARK                         _______ _______ _______ _____ _____    ______ ____
ROOT
ATOM      1  C   UNL     1       3.103   4.238  18.347  0.00  0.00    +0.000 C 
ATOM      2  C   UNL     1       2.499   5.017  19.316  0.00  0.00    +0.000 C 
ATOM      3  C   UNL     1       1.446   3.997  19.538  0.00  0.00    +0.000 C 
ATOM      4  O   UNL     1       0.549   3.787  20.311  0.00  0.00    +0.000 OA
ATOM      5  C   UNL     1       1.968   3.285  18.358  0.00  0.00    +0.000 C 
ATOM      6  O   UNL     1       1.618   2.275  17.791  0.00  0.00    +0.000 OA
ENDROOT
BRANCH   1   7
ATOM      7  N   UNL     1       4.181   4.197  17.579  0.00  0.00    +0.000 N 
ATOM      8  H   UNL     1       4.904   3.523  17.857  0.00  0.00    +0.000 HD
BRANCH   7   9
ATOM      9  C   UNL     1       4.874   5.433  17.140  0.00  0.00    +0.000 C 
BRANCH   9  10
ATOM     10  C   UNL     1       6.095   5.733  17.989  0.00  0.00    +0.000 A 
ATOM     11  N   UNL     1       6.532   5.071  19.049  0.00  0.00    +0.000 NA
ATOM     12  C   UNL     1       7.699   5.710  19.377  0.00  0.00    +0.000 A 
ATOM     13  C   UNL     1       7.930   6.738  18.497  0.00  0.00    +0.000 A 
ATOM     14  O   UNL     1       6.905   6.767  17.598  0.00  0.00    +0.000 OA
ENDBRANCH   9  10
BRANCH   9  16
ATOM     15  C   UNL     1       6.089   3.941  15.439  0.00  0.00    +0.000 C 
ATOM     16  C   UNL     1       5.362   5.253  15.686  0.00  0.00    +0.000 C 
ENDBRANCH   9  16
ENDBRANCH   7   9
ENDBRANCH   1   7
BRANCH   2  17
ATOM     17  N   UNL     1       2.640   6.151  19.972  0.00  0.00    +0.000 N 
ATOM     18  H   UNL     1       2.542   6.124  20.989  0.00  0.00    +0.000 HD
BRANCH  17  19
ATOM     19  C   UNL     1       2.261   7.452  19.524  0.00  0.00    +0.000 A 
ATOM     20  C   UNL     1       2.482   7.756  18.172  0.00  0.00    +0.000 A 
ATOM     21  C   UNL     1       2.118   8.998  17.649  0.00  0.00    +0.000 A 
ATOM     22  C   UNL     1       1.440   9.926  18.440  0.00  0.00    +0.000 A 
ATOM     23  C   UNL     1       1.115   9.631  19.763  0.00  0.00    +0.000 A 
ATOM     24  C   UNL     1       1.658   8.447  20.324  0.00  0.00    +0.000 A 
BRANCH  23  25
ATOM     25  C   UNL     1       0.312  10.570  20.608  0.00  0.00    +0.000 C 
ATOM     26  O   UNL     1       0.798  10.820  21.717  0.00  0.00    +0.000 OA
ATOM     27  N   UNL     1      -0.923  11.118  20.207  0.00  0.00    +0.000 N 
ATOM     28  C   UNL     1      -1.725  10.804  19.026  0.00  0.00    +0.000 C 
ATOM     29  C   UNL     1      -1.649  11.923  21.186  0.00  0.00    +0.000 C 
ENDBRANCH  23  25
BRANCH  24  30
ATOM     30  O   UNL     1       1.770   8.313  21.694  0.00  0.00    +0.000 OA
ATOM     31  H   UNL     1       2.493   8.911  21.992  0.00  0.00    +0.000 HD
ENDBRANCH  24  30
ENDBRANCH  17  19
ENDBRANCH   2  17
TORSDOF 8
ENDMDL
MODEL 2
REMARK VINA RESULT:      -8.2      1.071      1.242
REMARK  Name = 
REMARK  11 active torsions:
REMARK  status: ('A' for Active; 'I' for Inactive)
REMARK    1  A    between atoms: C_1  and  C_2
REMARK    2  A    between atoms: C_2  and  C_3
REMARK    3  A    between atoms: C_3  and  N_4
REMARK    4  A    between atoms: C_3  and  C_24
REMARK    5  A    between atoms: N_4  and  C_5
REMARK    6  A    between atoms: C_6  and  N_7
REMARK    7  A    between atoms: N_7  and  C_8
REMARK    8  A    between atoms: C_12  and  C_13
REMARK    9  A    between atoms: N_15  and  C_16
REMARK   10  A    between atoms: N_15  and  C_17
REMARK   11  A    between atoms: C_18  and  O_19
REMARK                            x       y       z     vdW  Elec       q    Type
REMARK                         _______ _______ _______ _____ _____    ______ ____
ROOT
ATOM      1  C   UNL     1       3.402   3.800  18.436  0.00  0.00    +0.000 C 
ATOM      2  C   UNL     1       2.843   4.772  19.245  0.00  0.00    +0.000 C 
ATOM      3  C   UNL     1       1.627   3.951  19.460  0.00  0.00    +0.000 C 
ATOM      4  O   UNL     1       0.642   3.971  20.150  0.00  0.00    +0.000 OA
ATOM      5  C   UNL     1       2.135   3.032  18.427  0.00  0.00    +0.000 C 
ATOM      6  O   UNL     1       1.683   2.021  17.938  0.00  0.00    +0.000 OA
ENDROOT
BRANCH   1   7
ATOM      7  N   UNL     1       4.525   3.509  17.798  0.00  0.00    +0.000 N 
ATOM      8  H   UNL     1       5.247   3.036  18.355  0.00  0.00    +0.000 HD
BRANCH   7   9
ATOM      9  C   UNL     1       5.211   4.499  16.933  0.00  0.00    +0.000 C 
BRANCH   9  10
ATOM     10  C   UNL     1       6.300   5.248  17.678  0.00  0.00    +0.000 A 
ATOM     11  N   UNL     1       6.936   6.346  17.302  0.00  0.00    +0.000 NA
ATOM     12  C   UNL     1       7.747   6.637  18.366  0.00  0.00    +0.000 A 
ATOM     13  C   UNL     1       7.569   5.703  19.356  0.00  0.00    +0.000 A 
ATOM     14  O   UNL     1       6.641   4.801  18.927  0.00  0.00    +0.000 OA
ENDBRANCH   9  10
BRANCH   9  16
ATOM     15  C   UNL     1       5.631   4.406  14.401  0.00  0.00    +0.000 C 
ATOM     16  C   UNL     1       5.887   3.764  15.755  0.00  0.00    +0.000 C 
ENDBRANCH   9  16
ENDBRANCH   7   9
ENDBRANCH   1   7
BRANCH   2  17
ATOM     17  N   UNL     1       3.100   5.946  19.787  0.00  0.00    +0.000 N 
ATOM     18  H   UNL     1       3.273   5.974  20.793  0.00  0.00    +0.000 HD
BRANCH  17  19
ATOM     19  C   UNL     1       2.560   7.207  19.392  0.00  0.00    +0.000 A 
ATOM     20  C   UNL     1       2.789   7.620  18.072  0.00  0.00    +0.000 A 
ATOM     21  C   UNL     1       2.276   8.830  17.600  0.00  0.00    +0.000 A 
ATOM     22  C   UNL     1       1.445   9.605  18.408  0.00  0.00    +0.000 A 
ATOM     23  C   UNL     1       1.112   9.188  19.696  0.00  0.00    +0.000 A 
ATOM     24  C   UNL     1       1.794   8.059  20.217  0.00  0.00    +0.000 A 
BRANCH  23  25
ATOM     25  C   UNL     1       0.153   9.956  20.553  0.00  0.00    +0.000 C 
ATOM     26  O   UNL     1      -0.786   9.292  21.007  0.00  0.00    +0.000 OA
ATOM     27  N   UNL     1       0.272  11.336  20.811  0.00  0.00    +0.000 N 
ATOM     28  C   UNL     1       1.200  12.301  20.228  0.00  0.00    +0.000 C 
ATOM     29  C   UNL     1      -0.806  11.971  21.566  0.00  0.00    +0.000 C 
ENDBRANCH  23  25
BRANCH  24  30
ATOM     30  O   UNL     1       1.870   7.859  21.581  0.00  0.00    +0.000 OA
ATOM     31  H   UNL     1       2.468   8.548  21.948  0.00  0.00    +0.000 HD
ENDBRANCH  24  30
ENDBRANCH  17  19
ENDBRANCH   2  17
TORSDOF 8
ENDMDL
MODEL 3
REMARK VINA RESULT:      -8.1      0.999      1.113
REMARK  Name = 
REMARK  11 active torsions:
REMARK  status: ('A' for Active; 'I' for Inactive)
REMARK    1  A    between atoms: C_1  and  C_2
REMARK    2  A    between atoms: C_2  and  C_3
REMARK    3  A    between atoms: C_3  and  N_4
REMARK    4  A    between atoms: C_3  and  C_24
REMARK    5  A    between atoms: N_4  and  C_5
REMARK    6  A    between atoms: C_6  and  N_7
REMARK    7  A    between atoms: N_7  and  C_8
REMARK    8  A    between atoms: C_12  and  C_13
REMARK    9  A    between atoms: N_15  and  C_16
REMARK   10  A    between atoms: N_15  and  C_17
REMARK   11  A    between atoms: C_18  and  O_19
REMARK                            x       y       z     vdW  Elec       q    Type
REMARK                         _______ _______ _______ _____ _____    ______ ____
ROOT
ATOM      1  C   UNL     1       3.741   4.070  19.210  0.00  0.00    +0.000 C 
ATOM      2  C   UNL     1       2.726   4.683  19.921  0.00  0.00    +0.000 C 
ATOM      3  C   UNL     1       1.930   3.433  19.942  0.00  0.00    +0.000 C 
ATOM      4  O   UNL     1       0.933   3.013  20.467  0.00  0.00    +0.000 OA
ATOM      5  C   UNL     1       2.910   2.861  19.002  0.00  0.00    +0.000 C 
ATOM      6  O   UNL     1       2.982   1.787  18.448  0.00  0.00    +0.000 OA
ENDROOT
BRANCH   1   7
ATOM      7  N   UNL     1       4.965   4.293  18.758  0.00  0.00    +0.000 N 
ATOM      8  H   UNL     1       5.633   4.674  19.440  0.00  0.00    +0.000 HD
BRANCH   7   9
ATOM      9  C   UNL     1       5.207   4.986  17.469  0.00  0.00    +0.000 C 
BRANCH   9  10
ATOM     10  C   UNL     1       6.305   6.027  17.579  0.00  0.00    +0.000 A 
ATOM     11  N   UNL     1       6.407   7.173  16.927  0.00  0.00    +0.000 NA
ATOM     12  C   UNL     1       7.530   7.754  17.456  0.00  0.00    +0.000 A 
ATOM     13  C   UNL     1       8.067   6.935  18.418  0.00  0.00    +0.000 A 
ATOM     14  O   UNL     1       7.290   5.818  18.508  0.00  0.00    +0.000 OA
ENDBRANCH   9  10
BRANCH   9  16
ATOM     15  C   UNL     1       5.700   4.499  14.996  0.00  0.00    +0.000 C 
ATOM     16  C   UNL     1       5.660   3.953  16.414  0.00  0.00    +0.000 C 
ENDBRANCH   9  16
ENDBRANCH   7   9
ENDBRANCH   1   7
BRANCH   2  17
ATOM     17  N   UNL     1       2.405   5.825  20.495  0.00  0.00    +0.000 N 
ATOM     18  H   UNL     1       1.824   5.784  21.335  0.00  0.00    +0.000 HD
BRANCH  17  19
ATOM     19  C   UNL     1       2.158   7.071  19.845  0.00  0.00    +0.000 A 
ATOM     20  C   UNL     1       2.470   7.157  18.480  0.00  0.00    +0.000 A 
ATOM     21  C   UNL     1       2.238   8.333  17.764  0.00  0.00    +0.000 A 
ATOM     22  C   UNL     1       1.603   9.415  18.373  0.00  0.00    +0.000 A 
ATOM     23  C   UNL     1       1.189   9.342  19.702  0.00  0.00    +0.000 A 
ATOM     24  C   UNL     1       1.603   8.216  20.458  0.00  0.00    +0.000 A 
BRANCH  23  25
ATOM     25  C   UNL     1       0.427  10.453  20.356  0.00  0.00    +0.000 C 
ATOM     26  O   UNL     1       0.906  10.858  21.421  0.00  0.00    +0.000 OA
ATOM     27  N   UNL     1      -0.765  10.993  19.833  0.00  0.00    +0.000 N 
ATOM     28  C   UNL     1      -1.560  10.530  18.698  0.00  0.00    +0.000 C 
ATOM     29  C   UNL     1      -1.460  11.991  20.643  0.00  0.00    +0.000 C 
ENDBRANCH  23  25
BRANCH  24  30
ATOM     30  O   UNL     1       1.636   8.275  21.837  0.00  0.00    +0.000 OA
ATOM     31  H   UNL     1       0.775   8.643  22.138  0.00  0.00    +0.000 HD
ENDBRANCH  24  30
ENDBRANCH  17  19
ENDBRANCH   2  17
TORSDOF 8
ENDMDL
MODEL 4
REMARK VINA RESULT:      -8.1      0.872      1.059
REMARK  Name = 
REMARK  11 active torsions:
REMARK  status: ('A' for Active; 'I' for Inactive)
REMARK    1  A    between atoms: C_1  and  C_2
REMARK    2  A    between atoms: C_2  and  C_3
REMARK    3  A    between atoms: C_3  and  N_4
REMARK    4  A    between atoms: C_3  and  C_24
REMARK    5  A    between atoms: N_4  and  C_5
REMARK    6  A    between atoms: C_6  and  N_7
REMARK    7  A    between atoms: N_7  and  C_8
REMARK    8  A    between atoms: C_12  and  C_13
REMARK    9  A    between atoms: N_15  and  C_16
REMARK   10  A    between atoms: N_15  and  C_17
REMARK   11  A    between atoms: C_18  and  O_19
REMARK                            x       y       z     vdW  Elec       q    Type
REMARK                         _______ _______ _______ _____ _____    ______ ____
ROOT
ATOM      1  C   UNL     1       3.375   4.230  18.501  0.00  0.00    +0.000 C 
ATOM      2  C   UNL     1       2.673   4.958  19.444  0.00  0.00    +0.000 C 
ATOM      3  C   UNL     1       1.683   3.867  19.608  0.00  0.00    +0.000 C 
ATOM      4  O   UNL     1       0.765   3.590  20.335  0.00  0.00    +0.000 OA
ATOM      5  C   UNL     1       2.309   3.202  18.452  0.00  0.00    +0.000 C 
ATOM      6  O   UNL     1       2.057   2.175  17.863  0.00  0.00    +0.000 OA
ENDROOT
BRANCH   1   7
ATOM      7  N   UNL     1       4.490   4.269  17.788  0.00  0.00    +0.000 N 
ATOM      8  H   UNL     1       5.337   3.932  18.261  0.00  0.00    +0.000 HD
BRANCH   7   9
ATOM      9  C   UNL     1       4.870   5.465  16.998  0.00  0.00    +0.000 C 
BRANCH   9  10
ATOM     10  C   UNL     1       6.107   6.145  17.554  0.00  0.00    +0.000 A 
ATOM     11  N   UNL     1       6.851   5.768  18.581  0.00  0.00    +0.000 NA
ATOM     12  C   UNL     1       7.872   6.680  18.600  0.00  0.00    +0.000 A 
ATOM     13  C   UNL     1       7.712   7.579  17.576  0.00  0.00    +0.000 A 
ATOM     14  O   UNL     1       6.578   7.250  16.894  0.00  0.00    +0.000 OA
ENDBRANCH   9  10
BRANCH   9  16
ATOM     15  C   UNL     1       6.201   3.899  15.458  0.00  0.00    +0.000 C 
ATOM     16  C   UNL     1       5.197   5.036  15.551  0.00  0.00    +0.000 C 
ENDBRANCH   9  16
ENDBRANCH   7   9
ENDBRANCH   1   7
BRANCH   2  17
ATOM     17  N   UNL     1       2.704   6.094  20.112  0.00  0.00    +0.000 N 
ATOM     18  H   UNL     1       2.578   6.050  21.124  0.00  0.00    +0.000 HD
BRANCH  17  19
ATOM     19  C   UNL     1       2.236   7.365  19.661  0.00  0.00    +0.000 A 
ATOM     20  C   UNL     1       2.340   7.639  18.289  0.00  0.00    +0.000 A 
ATOM     21  C   UNL     1       1.885   8.849  17.764  0.00  0.00    +0.000 A 
ATOM     22  C   UNL     1       1.230   9.770  18.581  0.00  0.00    +0.000 A 
ATOM     23  C   UNL     1       1.019   9.500  19.932  0.00  0.00    +0.000 A 
ATOM     24  C   UNL     1       1.654   8.357  20.480  0.00  0.00    +0.000 A 
BRANCH  23  25
ATOM     25  C   UNL     1       0.243  10.430  20.813  0.00  0.00    +0.000 C 
ATOM     26  O   UNL     1      -0.743   9.927  21.362  0.00  0.00    +0.000 OA
ATOM     27  N   UNL     1       0.572  11.788  20.993  0.00  0.00    +0.000 N 
ATOM     28  C   UNL     1       1.580  12.587  20.300  0.00  0.00    +0.000 C 
ATOM     29  C   UNL     1      -0.347  12.601  21.787  0.00  0.00    +0.000 C 
ENDBRANCH  23  25
BRANCH  24  30
ATOM     30  O   UNL     1       1.876   8.267  21.840  0.00  0.00    +0.000 OA
ATOM     31  H   UNL     1       1.157   8.766  22.290  0.00  0.00    +0.000 HD
ENDBRANCH  24  30
ENDBRANCH  17  19
ENDBRANCH   2  17
TORSDOF 8
ENDMDL
MODEL 5
REMARK VINA RESULT:      -8.1      1.816      2.068
REMARK  Name = 
REMARK  11 active torsions:
REMARK  status: ('A' for Active; 'I' for Inactive)
REMARK    1  A    between atoms: C_1  and  C_2
REMARK    2  A    between atoms: C_2  and  C_3
REMARK    3  A    between atoms: C_3  and  N_4
REMARK    4  A    between atoms: C_3  and  C_24
REMARK    5  A    between atoms: N_4  and  C_5
REMARK    6  A    between atoms: C_6  and  N_7
REMARK    7  A    between atoms: N_7  and  C_8
REMARK    8  A    between atoms: C_12  and  C_13
REMARK    9  A    between atoms: N_15  and  C_16
REMARK   10  A    between atoms: N_15  and  C_17
REMARK   11  A    between atoms: C_18  and  O_19
REMARK                            x       y       z     vdW  Elec       q    Type
REMARK                         _______ _______ _______ _____ _____    ______ ____
ROOT
ATOM      1  C   UNL     1       4.656   3.362  19.321  0.00  0.00    +0.000 C 
ATOM      2  C   UNL     1       3.331   3.707  19.510  0.00  0.00    +0.000 C 
ATOM      3  C   UNL     1       3.242   2.863  20.725  0.00  0.00    +0.000 C 
ATOM      4  O   UNL     1       2.466   2.658  21.621  0.00  0.00    +0.000 OA
ATOM      5  C   UNL     1       4.576   2.336  20.387  0.00  0.00    +0.000 C 
ATOM      6  O   UNL     1       5.282   1.501  20.906  0.00  0.00    +0.000 OA
ENDROOT
BRANCH   1   7
ATOM      7  N   UNL     1       5.699   3.650  18.557  0.00  0.00    +0.000 N 
ATOM      8  H   UNL     1       6.575   3.853  19.054  0.00  0.00    +0.000 HD
BRANCH   7   9
ATOM      9  C   UNL     1       5.599   4.605  17.427  0.00  0.00    +0.000 C 
BRANCH   9  10
ATOM     10  C   UNL     1       6.536   5.786  17.596  0.00  0.00    +0.000 A 
ATOM     11  N   UNL     1       6.552   6.916  16.908  0.00  0.00    +0.000 NA
ATOM     12  C   UNL     1       7.531   7.657  17.516  0.00  0.00    +0.000 A 
ATOM     13  C   UNL     1       8.071   6.948  18.558  0.00  0.00    +0.000 A 
ATOM     14  O   UNL     1       7.442   5.740  18.622  0.00  0.00    +0.000 OA
ENDBRANCH   9  10
BRANCH   9  16
ATOM     15  C   UNL     1       5.412   4.520  14.867  0.00  0.00    +0.000 C 
ATOM     16  C   UNL     1       5.999   3.888  16.119  0.00  0.00    +0.000 C 
ENDBRANCH   9  16
ENDBRANCH   7   9
ENDBRANCH   1   7
BRANCH   2  17
ATOM     17  N   UNL     1       2.377   4.471  19.017  0.00  0.00    +0.000 N 
ATOM     18  H   UNL     1       1.860   4.119  18.210  0.00  0.00    +0.000 HD
BRANCH  17  19
ATOM     19  C   UNL     1       2.363   5.897  18.966  0.00  0.00    +0.000 A 
ATOM     20  C   UNL     1       2.781   6.502  17.771  0.00  0.00    +0.000 A 
ATOM     21  C   UNL     1       2.775   7.891  17.631  0.00  0.00    +0.000 A 
ATOM     22  C   UNL     1       2.264   8.700  18.645  0.00  0.00    +0.000 A 
ATOM     23  C   UNL     1       1.750   8.138  19.813  0.00  0.00    +0.000 A 
ATOM     24  C   UNL     1       1.939   6.747  20.011  0.00  0.00    +0.000 A 
BRANCH  23  25
ATOM     25  C   UNL     1       1.114   8.975  20.880  0.00  0.00    +0.000 C 
ATOM     26  O   UNL     1       1.570   8.806  22.016  0.00  0.00    +0.000 OA
ATOM     27  N   UNL     1       0.054   9.872  20.638  0.00  0.00    +0.000 N 
ATOM     28  C   UNL     1      -0.718  10.071  19.413  0.00  0.00    +0.000 C 
ATOM     29  C   UNL     1      -0.544  10.531  21.797  0.00  0.00    +0.000 C 
ENDBRANCH  23  25
BRANCH  24  30
ATOM     30  O   UNL     1       1.882   6.209  21.282  0.00  0.00    +0.000 OA
ATOM     31  H   UNL     1       2.802   5.996  21.554  0.00  0.00    +0.000 HD
ENDBRANCH  24  30
ENDBRANCH  17  19
ENDBRANCH   2  17
TORSDOF 8
ENDMDL
MODEL 6
REMARK VINA RESULT:      -8.0      1.289      2.267
REMARK  Name = 
REMARK  11 active torsions:
REMARK  status: ('A' for Active; 'I' for Inactive)
REMARK    1  A    between atoms: C_1  and  C_2
REMARK    2  A    between atoms: C_2  and  C_3
REMARK    3  A    between atoms: C_3  and  N_4
REMARK    4  A    between atoms: C_3  and  C_24
REMARK    5  A    between atoms: N_4  and  C_5
REMARK    6  A    between atoms: C_6  and  N_7
REMARK    7  A    between atoms: N_7  and  C_8
REMARK    8  A    between atoms: C_12  and  C_13
REMARK    9  A    between atoms: N_15  and  C_16
REMARK   10  A    between atoms: N_15  and  C_17
REMARK   11  A    between atoms: C_18  and  O_19
REMARK                            x       y       z     vdW  Elec       q    Type
REMARK                         _______ _______ _______ _____ _____    ______ ____
ROOT
ATOM      1  C   UNL     1       4.275   3.814  18.999  0.00  0.00    +0.000 C 
ATOM      2  C   UNL     1       3.274   4.683  19.393  0.00  0.00    +0.000 C 
ATOM      3  C   UNL     1       2.226   3.788  18.845  0.00  0.00    +0.000 C 
ATOM      4  O   UNL     1       1.027   3.699  18.856  0.00  0.00    +0.000 OA
ATOM      5  C   UNL     1       3.306   2.989  18.240  0.00  0.00    +0.000 C 
ATOM      6  O   UNL     1       3.300   2.005  17.536  0.00  0.00    +0.000 OA
ENDROOT
BRANCH   1   7
ATOM      7  N   UNL     1       5.583   3.635  19.097  0.00  0.00    +0.000 N 
ATOM      8  H   UNL     1       5.954   3.552  20.051  0.00  0.00    +0.000 HD
BRANCH   7   9
ATOM      9  C   UNL     1       6.544   4.454  18.318  0.00  0.00    +0.000 C 
BRANCH   9  10
ATOM     10  C   UNL     1       6.103   4.631  16.877  0.00  0.00    +0.000 A 
ATOM     11  N   UNL     1       6.070   3.720  15.918  0.00  0.00    +0.000 NA
ATOM     12  C   UNL     1       5.523   4.384  14.852  0.00  0.00    +0.000 A 
ATOM     13  C   UNL     1       5.238   5.678  15.207  0.00  0.00    +0.000 A 
ATOM     14  O   UNL     1       5.607   5.854  16.508  0.00  0.00    +0.000 OA
ENDBRANCH   9  10
BRANCH   9  16
ATOM     15  C   UNL     1       8.033   6.459  18.912  0.00  0.00    +0.000 C 
ATOM     16  C   UNL     1       6.636   5.862  18.944  0.00  0.00    +0.000 C 
ENDBRANCH   9  16
ENDBRANCH   7   9
ENDBRANCH   1   7
BRANCH   2  17
ATOM     17  N   UNL     1       3.076   5.815  20.037  0.00  0.00    +0.000 N 
ATOM     18  H   UNL     1       2.768   5.758  21.009  0.00  0.00    +0.000 HD
BRANCH  17  19
ATOM     19  C   UNL     1       2.590   7.039  19.487  0.00  0.00    +0.000 A 
ATOM     20  C   UNL     1       2.852   7.285  18.131  0.00  0.00    +0.000 A 
ATOM     21  C   UNL     1       2.391   8.447  17.511  0.00  0.00    +0.000 A 
ATOM     22  C   UNL     1       1.578   9.342  18.207  0.00  0.00    +0.000 A 
ATOM     23  C   UNL     1       1.212   9.093  19.528  0.00  0.00    +0.000 A 
ATOM     24  C   UNL     1       1.843   8.010  20.191  0.00  0.00    +0.000 A 
BRANCH  23  25
ATOM     25  C   UNL     1       0.270   9.989  20.271  0.00  0.00    +0.000 C 
ATOM     26  O   UNL     1      -0.727   9.426  20.737  0.00  0.00    +0.000 OA
ATOM     27  N   UNL     1       0.466  11.377  20.415  0.00  0.00    +0.000 N 
ATOM     28  C   UNL     1       1.477  12.229  19.793  0.00  0.00    +0.000 C 
ATOM     29  C   UNL     1      -0.599  12.141  21.062  0.00  0.00    +0.000 C 
ENDBRANCH  23  25
BRANCH  24  30
ATOM     30  O   UNL     1       1.892   7.970  21.571  0.00  0.00    +0.000 OA
ATOM     31  H   UNL     1       1.927   7.023  21.838  0.00  0.00    +0.000 HD
ENDBRANCH  24  30
ENDBRANCH  17  19
ENDBRANCH   2  17
TORSDOF 8
ENDMDL
MODEL 7
REMARK VINA RESULT:      -8.0      1.612      2.508
REMARK  Name = 
REMARK  11 active torsions:
REMARK  status: ('A' for Active; 'I' for Inactive)
REMARK    1  A    between atoms: C_1  and  C_2
REMARK    2  A    between atoms: C_2  and  C_3
REMARK    3  A    between atoms: C_3  and  N_4
REMARK    4  A    between atoms: C_3  and  C_24
REMARK    5  A    between atoms: N_4  and  C_5
REMARK    6  A    between atoms: C_6  and  N_7
REMARK    7  A    between atoms: N_7  and  C_8
REMARK    8  A    between atoms: C_12  and  C_13
REMARK    9  A    between atoms: N_15  and  C_16
REMARK   10  A    between atoms: N_15  and  C_17
REMARK   11  A    between atoms: C_18  and  O_19
REMARK                            x       y       z     vdW  Elec       q    Type
REMARK                         _______ _______ _______ _____ _____    ______ ____
ROOT
ATOM      1  C   UNL     1       4.055   5.009  18.519  0.00  0.00    +0.000 C 
ATOM      2  C   UNL     1       3.145   5.245  19.533  0.00  0.00    +0.000 C 
ATOM      3  C   UNL     1       2.876   3.795  19.684  0.00  0.00    +0.000 C 
ATOM      4  O   UNL     1       2.287   3.065  20.437  0.00  0.00    +0.000 OA
ATOM      5  C   UNL     1       3.674   3.578  18.464  0.00  0.00    +0.000 C 
ATOM      6  O   UNL     1       3.950   2.584  17.833  0.00  0.00    +0.000 OA
ENDROOT
BRANCH   1   7
ATOM      7  N   UNL     1       4.936   5.638  17.757  0.00  0.00    +0.000 N 
ATOM      8  H   UNL     1       4.571   6.030  16.880  0.00  0.00    +0.000 HD
BRANCH   7   9
ATOM      9  C   UNL     1       6.268   5.057  17.461  0.00  0.00    +0.000 C 
BRANCH   9  10
ATOM     10  C   UNL     1       6.478   4.844  15.974  0.00  0.00    +0.000 A 
ATOM     11  N   UNL     1       7.413   5.373  15.200  0.00  0.00    +0.000 NA
ATOM     12  C   UNL     1       7.196   4.791  13.979  0.00  0.00    +0.000 A 
ATOM     13  C   UNL     1       6.136   3.924  14.058  0.00  0.00    +0.000 A 
ATOM     14  O   UNL     1       5.661   3.947  15.336  0.00  0.00    +0.000 OA
ENDBRANCH   9  10
BRANCH   9  16
ATOM     15  C   UNL     1       7.870   5.742  19.347  0.00  0.00    +0.000 C 
ATOM     16  C   UNL     1       7.366   6.030  17.942  0.00  0.00    +0.000 C 
ENDBRANCH   9  16
ENDBRANCH   7   9
ENDBRANCH   1   7
BRANCH   2  17
ATOM     17  N   UNL     1       2.629   6.216  20.260  0.00  0.00    +0.000 N 
ATOM     18  H   UNL     1       2.092   5.951  21.087  0.00  0.00    +0.000 HD
BRANCH  17  19
ATOM     19  C   UNL     1       2.131   7.467  19.787  0.00  0.00    +0.000 A 
ATOM     20  C   UNL     1       2.179   7.697  18.405  0.00  0.00    +0.000 A 
ATOM     21  C   UNL     1       1.690   8.886  17.859  0.00  0.00    +0.000 A 
ATOM     22  C   UNL     1       1.059   9.827  18.672  0.00  0.00    +0.000 A 
ATOM     23  C   UNL     1       0.903   9.599  20.038  0.00  0.00    +0.000 A 
ATOM     24  C   UNL     1       1.571   8.480  20.597  0.00  0.00    +0.000 A 
BRANCH  23  25
ATOM     25  C   UNL     1       0.152  10.550  20.919  0.00  0.00    +0.000 C 
ATOM     26  O   UNL     1      -0.859  10.079  21.452  0.00  0.00    +0.000 OA
ATOM     27  N   UNL     1       0.531  11.892  21.117  0.00  0.00    +0.000 N 
ATOM     28  C   UNL     1       1.577  12.659  20.444  0.00  0.00    +0.000 C 
ATOM     29  C   UNL     1      -0.366  12.732  21.908  0.00  0.00    +0.000 C 
ENDBRANCH  23  25
BRANCH  24  30
ATOM     30  O   UNL     1       1.846   8.435  21.950  0.00  0.00    +0.000 OA
ATOM     31  H   UNL     1       1.762   7.498  22.237  0.00  0.00    +0.000 HD
ENDBRANCH  24  30
ENDBRANCH  17  19
ENDBRANCH   2  17
TORSDOF 8
ENDMDL
MODEL 8
REMARK VINA RESULT:      -7.9      1.398      2.329
REMARK  Name = 
REMARK  11 active torsions:
REMARK  status: ('A' for Active; 'I' for Inactive)
REMARK    1  A    between atoms: C_1  and  C_2
REMARK    2  A    between atoms: C_2  and  C_3
REMARK    3  A    between atoms: C_3  and  N_4
REMARK    4  A    between atoms: C_3  and  C_24
REMARK    5  A    between atoms: N_4  and  C_5
REMARK    6  A    between atoms: C_6  and  N_7
REMARK    7  A    between atoms: N_7  and  C_8
REMARK    8  A    between atoms: C_12  and  C_13
REMARK    9  A    between atoms: N_15  and  C_16
REMARK   10  A    between atoms: N_15  and  C_17
REMARK   11  A    between atoms: C_18  and  O_19
REMARK                            x       y       z     vdW  Elec       q    Type
REMARK                         _______ _______ _______ _____ _____    ______ ____
ROOT
ATOM      1  C   UNL     1       4.266   4.855  19.378  0.00  0.00    +0.000 C 
ATOM      2  C   UNL     1       3.080   5.040  20.064  0.00  0.00    +0.000 C 
ATOM      3  C   UNL     1       3.073   3.628  20.515  0.00  0.00    +0.000 C 
ATOM      4  O   UNL     1       2.453   2.932  21.276  0.00  0.00    +0.000 OA
ATOM      5  C   UNL     1       4.207   3.391  19.606  0.00  0.00    +0.000 C 
ATOM      6  O   UNL     1       4.841   2.398  19.329  0.00  0.00    +0.000 OA
ENDROOT
BRANCH   1   7
ATOM      7  N   UNL     1       5.183   5.528  18.701  0.00  0.00    +0.000 N 
ATOM      8  H   UNL     1       4.827   6.173  17.984  0.00  0.00    +0.000 HD
BRANCH   7   9
ATOM      9  C   UNL     1       6.385   4.864  18.141  0.00  0.00    +0.000 C 
BRANCH   9  10
ATOM     10  C   UNL     1       6.271   4.648  16.644  0.00  0.00    +0.000 A 
ATOM     11  N   UNL     1       5.185   4.365  15.943  0.00  0.00    +0.000 NA
ATOM     12  C   UNL     1       5.624   4.355  14.646  0.00  0.00    +0.000 A 
ATOM     13  C   UNL     1       6.966   4.639  14.607  0.00  0.00    +0.000 A 
ATOM     14  O   UNL     1       7.398   4.828  15.886  0.00  0.00    +0.000 OA
ENDBRANCH   9  10
BRANCH   9  16
ATOM     15  C   UNL     1       8.166   5.690  19.796  0.00  0.00    +0.000 C 
ATOM     16  C   UNL     1       7.619   5.761  18.380  0.00  0.00    +0.000 C 
ENDBRANCH   9  16
ENDBRANCH   7   9
ENDBRANCH   1   7
BRANCH   2  17
ATOM     17  N   UNL     1       2.199   5.967  20.382  0.00  0.00    +0.000 N 
ATOM     18  H   UNL     1       1.286   5.656  20.717  0.00  0.00    +0.000 HD
BRANCH  17  19
ATOM     19  C   UNL     1       2.033   7.240  19.758  0.00  0.00    +0.000 A 
ATOM     20  C   UNL     1       2.337   7.331  18.391  0.00  0.00    +0.000 A 
ATOM     21  C   UNL     1       2.179   8.534  17.701  0.00  0.00    +0.000 A 
ATOM     22  C   UNL     1       1.625   9.645  18.337  0.00  0.00    +0.000 A 
ATOM     23  C   UNL     1       1.219   9.574  19.669  0.00  0.00    +0.000 A 
ATOM     24  C   UNL     1       1.563   8.407  20.399  0.00  0.00    +0.000 A 
BRANCH  23  25
ATOM     25  C   UNL     1       0.541  10.722  20.351  0.00  0.00    +0.000 C 
ATOM     26  O   UNL     1       1.140  11.172  21.334  0.00  0.00    +0.000 OA
ATOM     27  N   UNL     1      -0.701  11.247  19.943  0.00  0.00    +0.000 N 
ATOM     28  C   UNL     1      -1.622  10.739  18.929  0.00  0.00    +0.000 C 
ATOM     29  C   UNL     1      -1.296  12.288  20.778  0.00  0.00    +0.000 C 
ENDBRANCH  23  25
BRANCH  24  30
ATOM     30  O   UNL     1       1.612   8.437  21.778  0.00  0.00    +0.000 OA
ATOM     31  H   UNL     1       0.903   7.842  22.112  0.00  0.00    +0.000 HD
ENDBRANCH  24  30
ENDBRANCH  17  19
ENDBRANCH   2  17
TORSDOF 8
ENDMDL
MODEL 9
REMARK VINA RESULT:      -7.8      1.479      2.408
REMARK  Name = 
REMARK  11 active torsions:
REMARK  status: ('A' for Active; 'I' for Inactive)
REMARK    1  A    between atoms: C_1  and  C_2
REMARK    2  A    between atoms: C_2  and  C_3
REMARK    3  A    between atoms: C_3  and  N_4
REMARK    4  A    between atoms: C_3  and  C_24
REMARK    5  A    between atoms: N_4  and  C_5
REMARK    6  A    between atoms: C_6  and  N_7
REMARK    7  A    between atoms: N_7  and  C_8
REMARK    8  A    between atoms: C_12  and  C_13
REMARK    9  A    between atoms: N_15  and  C_16
REMARK   10  A    between atoms: N_15  and  C_17
REMARK   11  A    between atoms: C_18  and  O_19
REMARK                            x       y       z     vdW  Elec       q    Type
REMARK                         _______ _______ _______ _____ _____    ______ ____
ROOT
ATOM      1  C   UNL     1       4.215   4.809  19.382  0.00  0.00    +0.000 C 
ATOM      2  C   UNL     1       3.054   5.085  20.080  0.00  0.00    +0.000 C 
ATOM      3  C   UNL     1       2.783   3.641  20.279  0.00  0.00    +0.000 C 
ATOM      4  O   UNL     1       2.023   2.948  20.903  0.00  0.00    +0.000 OA
ATOM      5  C   UNL     1       3.894   3.363  19.352  0.00  0.00    +0.000 C 
ATOM      6  O   UNL     1       4.355   2.334  18.912  0.00  0.00    +0.000 OA
ENDROOT
BRANCH   1   7
ATOM      7  N   UNL     1       5.261   5.414  18.839  0.00  0.00    +0.000 N 
ATOM      8  H   UNL     1       5.049   6.206  18.220  0.00  0.00    +0.000 HD
BRANCH   7   9
ATOM      9  C   UNL     1       6.369   4.649  18.217  0.00  0.00    +0.000 C 
BRANCH   9  10
ATOM     10  C   UNL     1       6.242   4.591  16.706  0.00  0.00    +0.000 A 
ATOM     11  N   UNL     1       5.135   4.614  15.981  0.00  0.00    +0.000 NA
ATOM     12  C   UNL     1       5.589   4.619  14.688  0.00  0.00    +0.000 A 
ATOM     13  C   UNL     1       6.961   4.603  14.677  0.00  0.00    +0.000 A 
ATOM     14  O   UNL     1       7.397   4.584  15.969  0.00  0.00    +0.000 OA
ENDBRANCH   9  10
BRANCH   9  16
ATOM     15  C   UNL     1       7.701   6.843  18.282  0.00  0.00    +0.000 C 
ATOM     16  C   UNL     1       7.709   5.344  18.536  0.00  0.00    +0.000 C 
ENDBRANCH   9  16
ENDBRANCH   7   9
ENDBRANCH   1   7
BRANCH   2  17
ATOM     17  N   UNL     1       2.337   6.087  20.547  0.00  0.00    +0.000 N 
ATOM     18  H   UNL     1       1.540   5.859  21.144  0.00  0.00    +0.000 HD
BRANCH  17  19
ATOM     19  C   UNL     1       2.060   7.322  19.888  0.00  0.00    +0.000 A 
ATOM     20  C   UNL     1       2.311   7.385  18.509  0.00  0.00    +0.000 A 
ATOM     21  C   UNL     1       2.046   8.550  17.786  0.00  0.00    +0.000 A 
ATOM     22  C   UNL     1       1.436   9.640  18.404  0.00  0.00    +0.000 A 
ATOM     23  C   UNL     1       1.080   9.589  19.751  0.00  0.00    +0.000 A 
ATOM     24  C   UNL     1       1.530   8.475  20.506  0.00  0.00    +0.000 A 
BRANCH  23  25
ATOM     25  C   UNL     1       0.346  10.710  20.419  0.00  0.00    +0.000 C 
ATOM     26  O   UNL     1      -0.705  10.382  20.981  0.00  0.00    +0.000 OA
ATOM     27  N   UNL     1       0.782  12.049  20.396  0.00  0.00    +0.000 N 
ATOM     28  C   UNL     1       1.887  12.641  19.646  0.00  0.00    +0.000 C 
ATOM     29  C   UNL     1      -0.102  13.052  20.989  0.00  0.00    +0.000 C 
ENDBRANCH  23  25
BRANCH  24  30
ATOM     30  O   UNL     1       1.623   8.557  21.882  0.00  0.00    +0.000 OA
ATOM     31  H   UNL     1       0.707   8.624  22.236  0.00  0.00    +0.000 HD
ENDBRANCH  24  30
ENDBRANCH  17  19
ENDBRANCH   2  17
TORSDOF 8
ENDMDL
