MODEL 1
REMARK VINA RESULT:      -9.0      0.000      0.000
REMARK  Name = 
REMARK  6 active torsions:
REMARK  status: ('A' for Active; 'I' for Inactive)
REMARK    1  A    between atoms: N_1  and  C_2
REMARK    2  A    between atoms: C_5  and  C_6
REMARK    3  A    between atoms: C_9  and  C_10
REMARK    4  A    between atoms: N_12  and  C_13
REMARK    5  A    between atoms: C_21  and  O_22
REMARK    6  A    between atoms: O_22  and  C_23
REMARK                            x       y       z     vdW  Elec       q    Type
REMARK                         _______ _______ _______ _____ _____    ______ ____
ROOT
ATOM      1  C   UNL     1       4.308   3.401  19.749  0.00  0.00    +0.000 A 
ATOM      2  N   UNL     1       3.091   3.452  20.329  0.00  0.00    +0.000 NA
ATOM      3  C   UNL     1       2.445   4.638  20.267  0.00  0.00    +0.000 A 
ATOM      4  C   UNL     1       2.964   5.771  19.652  0.00  0.00    +0.000 A 
ATOM      5  N   UNL     1       4.171   5.721  19.048  0.00  0.00    +0.000 NA
ATOM      6  C   UNL     1       4.862   4.541  19.124  0.00  0.00    +0.000 A 
ENDROOT
BRANCH   4   7
ATOM      7  C   UNL     1       2.230   7.044  19.603  0.00  0.00    +0.000 A 
ATOM      8  C   UNL     1       2.222   7.830  18.438  0.00  0.00    +0.000 A 
ATOM      9  C   UNL     1       1.625   9.091  18.416  0.00  0.00    +0.000 A 
ATOM     10  C   UNL     1       0.986   9.604  19.551  0.00  0.00    +0.000 A 
ATOM     11  C   UNL     1       0.957   8.819  20.711  0.00  0.00    +0.000 A 
ATOM     12  C   UNL     1       1.558   7.549  20.727  0.00  0.00    +0.000 A 
BRANCH  10  13
ATOM     13  C   UNL     1       0.380  10.971  19.446  0.00  0.00    +0.000 C 
ATOM     14  O   UNL     1       1.024  11.878  18.919  0.00  0.00    +0.000 OA
ATOM     15  N   UNL     1      -0.888  11.168  19.952  0.00  0.00    +0.000 N 
ATOM     16  H   UNL     1      -1.461  10.373  20.191  0.00  0.00    +0.000 HD
BRANCH  15  17
ATOM     17  C   UNL     1      -1.557  12.464  19.828  0.00  0.00    +0.000 C 
ATOM     18  C   UNL     1      -1.533  13.236  21.139  0.00  0.00    +0.000 C 
ATOM     19  C   UNL     1      -2.781  12.750  21.845  0.00  0.00    +0.000 C 
ATOM     20  N   UNL     1      -3.790  12.660  20.786  0.00  0.00    +0.000 NA
ATOM     21  C   UNL     1      -3.063  12.319  19.543  0.00  0.00    +0.000 C 
ATOM     22  H   UNL     1      -4.211  13.585  20.664  0.00  0.00    +0.000 HD
ENDBRANCH  15  17
ENDBRANCH  10  13
ENDBRANCH   4   7
BRANCH   1  23
ATOM     23  N   UNL     1       4.869   2.132  19.814  0.00  0.00    +0.000 N 
ATOM     24  H   UNL     1       4.116   1.472  19.599  0.00  0.00    +0.000 HD
ATOM     25  H   UNL     1       5.319   1.939  20.705  0.00  0.00    +0.000 HD
ENDBRANCH   1  23
BRANCH   6  26
ATOM     26  O   UNL     1       6.142   4.506  18.568  0.00  0.00    +0.000 OA
BRANCH  26  27
ATOM     27  C   UNL     1       6.233   4.399  17.183  0.00  0.00    +0.000 A 
ATOM     28  C   UNL     1       5.252   3.656  16.508  0.00  0.00    +0.000 A 
ATOM     29  C   UNL     1       5.271   3.527  15.104  0.00  0.00    +0.000 A 
ATOM     30  C   UNL     1       6.274   4.193  14.364  0.00  0.00    +0.000 A 
ATOM     31  C   UNL     1       6.552   4.352  12.975  0.00  0.00    +0.000 A 
ATOM     32  C   UNL     1       7.650   5.173  12.858  0.00  0.00    +0.000 A 
ATOM     33  N   UNL     1       8.082   5.477  14.121  0.00  0.00    +0.000 N 
ATOM     34  C   UNL     1       7.251   4.899  15.057  0.00  0.00    +0.000 A 
ATOM     35  C   UNL     1       7.286   4.970  16.455  0.00  0.00    +0.000 A 
ATOM     36  H   UNL     1       8.862   6.080  14.345  0.00  0.00    +0.000 HD
ENDBRANCH  26  27
ENDBRANCH   6  26
TORSDOF 6
ENDMDL
MODEL 2
REMARK VINA RESULT:      -9.0      1.487      2.024
REMARK  Name = 
REMARK  6 active torsions:
REMARK  status: ('A' for Active; 'I' for Inactive)
REMARK    1  A    between atoms: N_1  and  C_2
REMARK    2  A    between atoms: C_5  and  C_6
REMARK    3  A    between atoms: C_9  and  C_10
REMARK    4  A    between atoms: N_12  and  C_13
REMARK    5  A    between atoms: C_21  and  O_22
REMARK    6  A    between atoms: O_22  and  C_23
REMARK                            x       y       z     vdW  Elec       q    Type
REMARK                         _______ _______ _______ _____ _____    ______ ____
ROOT
ATOM      1  C   UNL     1       4.278   3.159  19.691  0.00  0.00    +0.000 A 
ATOM      2  N   UNL     1       3.025   3.215  20.188  0.00  0.00    +0.000 NA
ATOM      3  C   UNL     1       2.415   4.422  20.149  0.00  0.00    +0.000 A 
ATOM      4  C   UNL     1       3.006   5.570  19.634  0.00  0.00    +0.000 A 
ATOM      5  N   UNL     1       4.251   5.517  19.113  0.00  0.00    +0.000 NA
ATOM      6  C   UNL     1       4.903   4.316  19.171  0.00  0.00    +0.000 A 
ENDROOT
BRANCH   4   7
ATOM      7  C   UNL     1       2.310   6.865  19.606  0.00  0.00    +0.000 A 
ATOM      8  C   UNL     1       2.307   7.659  18.447  0.00  0.00    +0.000 A 
ATOM      9  C   UNL     1       1.748   8.938  18.443  0.00  0.00    +0.000 A 
ATOM     10  C   UNL     1       1.143   9.462  19.593  0.00  0.00    +0.000 A 
ATOM     11  C   UNL     1       1.110   8.670  20.748  0.00  0.00    +0.000 A 
ATOM     12  C   UNL     1       1.673   7.382  20.745  0.00  0.00    +0.000 A 
BRANCH  10  13
ATOM     13  C   UNL     1       0.578  10.847  19.507  0.00  0.00    +0.000 C 
ATOM     14  O   UNL     1      -0.005  11.199  18.481  0.00  0.00    +0.000 OA
ATOM     15  N   UNL     1       0.734  11.689  20.589  0.00  0.00    +0.000 N 
ATOM     16  H   UNL     1       1.031  11.314  21.476  0.00  0.00    +0.000 HD
BRANCH  15  17
ATOM     17  C   UNL     1       0.154  13.033  20.589  0.00  0.00    +0.000 C 
ATOM     18  C   UNL     1       1.144  14.072  20.083  0.00  0.00    +0.000 C 
ATOM     19  C   UNL     1       1.884  14.478  21.340  0.00  0.00    +0.000 C 
ATOM     20  N   UNL     1       0.847  14.544  22.372  0.00  0.00    +0.000 NA
ATOM     21  C   UNL     1      -0.169  13.529  22.010  0.00  0.00    +0.000 C 
ATOM     22  H   UNL     1       0.404  15.466  22.327  0.00  0.00    +0.000 HD
ENDBRANCH  15  17
ENDBRANCH  10  13
ENDBRANCH   4   7
BRANCH   1  23
ATOM     23  N   UNL     1       4.800   1.873  19.723  0.00  0.00    +0.000 N 
ATOM     24  H   UNL     1       5.749   1.956  20.101  0.00  0.00    +0.000 HD
ATOM     25  H   UNL     1       4.776   1.409  18.819  0.00  0.00    +0.000 HD
ENDBRANCH   1  23
BRANCH   6  26
ATOM     26  O   UNL     1       6.218   4.273  18.703  0.00  0.00    +0.000 OA
BRANCH  26  27
ATOM     27  C   UNL     1       6.419   4.495  17.343  0.00  0.00    +0.000 A 
ATOM     28  C   UNL     1       7.197   5.598  16.958  0.00  0.00    +0.000 A 
ATOM     29  C   UNL     1       7.461   5.868  15.599  0.00  0.00    +0.000 A 
ATOM     30  C   UNL     1       6.964   4.986  14.613  0.00  0.00    +0.000 A 
ATOM     31  C   UNL     1       7.092   4.897  13.197  0.00  0.00    +0.000 A 
ATOM     32  C   UNL     1       6.419   3.769  12.784  0.00  0.00    +0.000 A 
ATOM     33  N   UNL     1       5.844   3.198  13.888  0.00  0.00    +0.000 N 
ATOM     34  C   UNL     1       6.172   3.917  15.017  0.00  0.00    +0.000 A 
ATOM     35  C   UNL     1       5.840   3.683  16.358  0.00  0.00    +0.000 A 
ATOM     36  H   UNL     1       5.302   2.344  13.892  0.00  0.00    +0.000 HD
ENDBRANCH  26  27
ENDBRANCH   6  26
TORSDOF 6
ENDMDL
MODEL 3
REMARK VINA RESULT:      -8.9      1.102      1.570
REMARK  Name = 
REMARK  6 active torsions:
REMARK  status: ('A' for Active; 'I' for Inactive)
REMARK    1  A    between atoms: N_1  and  C_2
REMARK    2  A    between atoms: C_5  and  C_6
REMARK    3  A    between atoms: C_9  and  C_10
REMARK    4  A    between atoms: N_12  and  C_13
REMARK    5  A    between atoms: C_21  and  O_22
REMARK    6  A    between atoms: O_22  and  C_23
REMARK                            x       y       z     vdW  Elec       q    Type
REMARK                         _______ _______ _______ _____ _____    ______ ____
ROOT
ATOM      1  C   UNL     1       4.276   3.532  19.657  0.00  0.00    +0.000 A 
ATOM      2  N   UNL     1       3.058   3.655  20.225  0.00  0.00    +0.000 NA
ATOM      3  C   UNL     1       2.468   4.867  20.125  0.00  0.00    +0.000 A 
ATOM      4  C   UNL     1       3.045   5.958  19.485  0.00  0.00    +0.000 A 
ATOM      5  N   UNL     1       4.253   5.836  18.893  0.00  0.00    +0.000 NA
ATOM      6  C   UNL     1       4.887   4.628  19.008  0.00  0.00    +0.000 A 
ENDROOT
BRANCH   4   7
ATOM      7  C   UNL     1       2.371   7.262  19.395  0.00  0.00    +0.000 A 
ATOM      8  C   UNL     1       1.718   7.816  20.508  0.00  0.00    +0.000 A 
ATOM      9  C   UNL     1       0.979   8.996  20.405  0.00  0.00    +0.000 A 
ATOM     10  C   UNL     1       0.890   9.684  19.189  0.00  0.00    +0.000 A 
ATOM     11  C   UNL     1       1.562   9.162  18.077  0.00  0.00    +0.000 A 
ATOM     12  C   UNL     1       2.306   7.974  18.187  0.00  0.00    +0.000 A 
BRANCH  10  13
ATOM     13  C   UNL     1       0.068  10.937  19.162  0.00  0.00    +0.000 C 
ATOM     14  O   UNL     1      -0.831  11.052  18.328  0.00  0.00    +0.000 OA
ATOM     15  N   UNL     1       0.352  11.929  20.077  0.00  0.00    +0.000 N 
ATOM     16  H   UNL     1       0.949  11.728  20.864  0.00  0.00    +0.000 HD
BRANCH  15  17
ATOM     17  C   UNL     1      -0.451  13.151  20.139  0.00  0.00    +0.000 C 
ATOM     18  C   UNL     1       0.424  14.395  20.206  0.00  0.00    +0.000 C 
ATOM     19  C   UNL     1       0.657  14.569  21.691  0.00  0.00    +0.000 C 
ATOM     20  N   UNL     1      -0.635  14.253  22.305  0.00  0.00    +0.000 NA
ATOM     21  C   UNL     1      -1.277  13.242  21.435  0.00  0.00    +0.000 C 
ATOM     22  H   UNL     1      -1.214  15.097  22.291  0.00  0.00    +0.000 HD
ENDBRANCH  15  17
ENDBRANCH  10  13
ENDBRANCH   4   7
BRANCH   1  23
ATOM     23  N   UNL     1       4.777   2.241  19.761  0.00  0.00    +0.000 N 
ATOM     24  H   UNL     1       4.317   1.817  20.572  0.00  0.00    +0.000 HD
ATOM     25  H   UNL     1       5.792   2.209  19.823  0.00  0.00    +0.000 HD
ENDBRANCH   1  23
BRANCH   6  26
ATOM     26  O   UNL     1       6.169   4.519  18.464  0.00  0.00    +0.000 OA
BRANCH  26  27
ATOM     27  C   UNL     1       6.268   4.413  17.080  0.00  0.00    +0.000 A 
ATOM     28  C   UNL     1       5.297   3.663  16.399  0.00  0.00    +0.000 A 
ATOM     29  C   UNL     1       5.323   3.535  14.995  0.00  0.00    +0.000 A 
ATOM     30  C   UNL     1       6.325   4.209  14.261  0.00  0.00    +0.000 A 
ATOM     31  C   UNL     1       6.609   4.371  12.873  0.00  0.00    +0.000 A 
ATOM     32  C   UNL     1       7.702   5.201  12.763  0.00  0.00    +0.000 A 
ATOM     33  N   UNL     1       8.124   5.508  14.028  0.00  0.00    +0.000 N 
ATOM     34  C   UNL     1       7.293   4.922  14.959  0.00  0.00    +0.000 A 
ATOM     35  C   UNL     1       7.321   4.993  16.358  0.00  0.00    +0.000 A 
ATOM     36  H   UNL     1       8.899   6.116  14.257  0.00  0.00    +0.000 HD
ENDBRANCH  26  27
ENDBRANCH   6  26
TORSDOF 6
ENDMDL
MODEL 4
REMARK VINA RESULT:      -8.9      1.603      2.068
REMARK  Name = 
REMARK  6 active torsions:
REMARK  status: ('A' for Active; 'I' for Inactive)
REMARK    1  A    between atoms: N_1  and  C_2
REMARK    2  A    between atoms: C_5  and  C_6
REMARK    3  A    between atoms: C_9  and  C_10
REMARK    4  A    between atoms: N_12  and  C_13
REMARK    5  A    between atoms: C_21  and  O_22
REMARK    6  A    between atoms: O_22  and  C_23
REMARK                            x       y       z     vdW  Elec       q    Type
REMARK                         _______ _______ _______ _____ _____    ______ ____
ROOT
ATOM      1  C   UNL     1       4.287   3.372  19.725  0.00  0.00    +0.000 A 
ATOM      2  N   UNL     1       3.070   3.395  20.307  0.00  0.00    +0.000 NA
ATOM      3  C   UNL     1       2.421   4.582  20.297  0.00  0.00    +0.000 A 
ATOM      4  C   UNL     1       2.938   5.741  19.732  0.00  0.00    +0.000 A 
ATOM      5  N   UNL     1       4.145   5.721  19.127  0.00  0.00    +0.000 NA
ATOM      6  C   UNL     1       4.838   4.541  19.151  0.00  0.00    +0.000 A 
ENDROOT
BRANCH   4   7
ATOM      7  C   UNL     1       2.201   7.014  19.739  0.00  0.00    +0.000 A 
ATOM      8  C   UNL     1       2.241   7.879  18.633  0.00  0.00    +0.000 A 
ATOM      9  C   UNL     1       1.640   9.138  18.672  0.00  0.00    +0.000 A 
ATOM     10  C   UNL     1       0.949   9.570  19.811  0.00  0.00    +0.000 A 
ATOM     11  C   UNL     1       0.872   8.705  20.911  0.00  0.00    +0.000 A 
ATOM     12  C   UNL     1       1.478   7.438  20.865  0.00  0.00    +0.000 A 
BRANCH  10  13
ATOM     13  C   UNL     1       0.342  10.939  19.775  0.00  0.00    +0.000 C 
ATOM     14  O   UNL     1      -0.869  11.058  19.586  0.00  0.00    +0.000 OA
ATOM     15  N   UNL     1       1.168  12.029  19.950  0.00  0.00    +0.000 N 
ATOM     16  H   UNL     1       2.105  11.896  20.299  0.00  0.00    +0.000 HD
BRANCH  15  17
ATOM     17  C   UNL     1       0.628  13.389  19.983  0.00  0.00    +0.000 C 
ATOM     18  C   UNL     1       1.084  14.203  18.781  0.00  0.00    +0.000 C 
ATOM     19  C   UNL     1       2.394  14.799  19.249  0.00  0.00    +0.000 C 
ATOM     20  N   UNL     1       2.149  15.176  20.644  0.00  0.00    +0.000 NA
ATOM     21  C   UNL     1       1.166  14.203  21.173  0.00  0.00    +0.000 C 
ATOM     22  H   UNL     1       1.715  16.103  20.656  0.00  0.00    +0.000 HD
ENDBRANCH  15  17
ENDBRANCH  10  13
ENDBRANCH   4   7
BRANCH   1  23
ATOM     23  N   UNL     1       4.851   2.104  19.734  0.00  0.00    +0.000 N 
ATOM     24  H   UNL     1       4.091   1.448  19.530  0.00  0.00    +0.000 HD
ATOM     25  H   UNL     1       5.335   1.887  20.601  0.00  0.00    +0.000 HD
ENDBRANCH   1  23
BRANCH   6  26
ATOM     26  O   UNL     1       6.118   4.533  18.594  0.00  0.00    +0.000 OA
BRANCH  26  27
ATOM     27  C   UNL     1       6.211   4.412  17.210  0.00  0.00    +0.000 A 
ATOM     28  C   UNL     1       5.234   3.658  16.542  0.00  0.00    +0.000 A 
ATOM     29  C   UNL     1       5.254   3.515  15.139  0.00  0.00    +0.000 A 
ATOM     30  C   UNL     1       6.255   4.176  14.393  0.00  0.00    +0.000 A 
ATOM     31  C   UNL     1       6.535   4.321  13.003  0.00  0.00    +0.000 A 
ATOM     32  C   UNL     1       7.631   5.145  12.879  0.00  0.00    +0.000 A 
ATOM     33  N   UNL     1       8.060   5.464  14.139  0.00  0.00    +0.000 N 
ATOM     34  C   UNL     1       7.230   4.892  15.080  0.00  0.00    +0.000 A 
ATOM     35  C   UNL     1       7.264   4.978  16.478  0.00  0.00    +0.000 A 
ATOM     36  H   UNL     1       8.838   6.071  14.358  0.00  0.00    +0.000 HD
ENDBRANCH  26  27
ENDBRANCH   6  26
TORSDOF 6
ENDMDL
MODEL 5
REMARK VINA RESULT:      -8.8      0.827      1.503
REMARK  Name = 
REMARK  6 active torsions:
REMARK  status: ('A' for Active; 'I' for Inactive)
REMARK    1  A    between atoms: N_1  and  C_2
REMARK    2  A    between atoms: C_5  and  C_6
REMARK    3  A    between atoms: C_9  and  C_10
REMARK    4  A    between atoms: N_12  and  C_13
REMARK    5  A    between atoms: C_21  and  O_22
REMARK    6  A    between atoms: O_22  and  C_23
REMARK                            x       y       z     vdW  Elec       q    Type
REMARK                         _______ _______ _______ _____ _____    ______ ____
ROOT
ATOM      1  C   UNL     1       4.163   3.396  19.632  0.00  0.00    +0.000 A 
ATOM      2  N   UNL     1       2.922   3.589  20.126  0.00  0.00    +0.000 NA
ATOM      3  C   UNL     1       2.403   4.829  19.982  0.00  0.00    +0.000 A 
ATOM      4  C   UNL     1       3.072   5.881  19.366  0.00  0.00    +0.000 A 
ATOM      5  N   UNL     1       4.304   5.690  18.847  0.00  0.00    +0.000 NA
ATOM      6  C   UNL     1       4.867   4.453  19.009  0.00  0.00    +0.000 A 
ENDROOT
BRANCH   4   7
ATOM      7  C   UNL     1       2.473   7.217  19.226  0.00  0.00    +0.000 A 
ATOM      8  C   UNL     1       1.776   7.812  20.290  0.00  0.00    +0.000 A 
ATOM      9  C   UNL     1       1.108   9.027  20.133  0.00  0.00    +0.000 A 
ATOM     10  C   UNL     1       1.136   9.710  18.910  0.00  0.00    +0.000 A 
ATOM     11  C   UNL     1       1.854   9.145  17.848  0.00  0.00    +0.000 A 
ATOM     12  C   UNL     1       2.526   7.922  18.013  0.00  0.00    +0.000 A 
BRANCH  10  13
ATOM     13  C   UNL     1       0.383  11.003  18.822  0.00  0.00    +0.000 C 
ATOM     14  O   UNL     1       0.991  12.038  18.548  0.00  0.00    +0.000 OA
ATOM     15  N   UNL     1      -0.976  10.989  19.058  0.00  0.00    +0.000 N 
ATOM     16  H   UNL     1      -1.472  10.112  19.080  0.00  0.00    +0.000 HD
BRANCH  15  17
ATOM     17  C   UNL     1      -1.776  12.208  18.931  0.00  0.00    +0.000 C 
ATOM     18  C   UNL     1      -1.630  13.106  20.151  0.00  0.00    +0.000 C 
ATOM     19  C   UNL     1      -2.706  12.593  21.084  0.00  0.00    +0.000 C 
ATOM     20  N   UNL     1      -3.849  12.317  20.209  0.00  0.00    +0.000 NA
ATOM     21  C   UNL     1      -3.287  11.914  18.901  0.00  0.00    +0.000 C 
ATOM     22  H   UNL     1      -4.370  13.188  20.076  0.00  0.00    +0.000 HD
ENDBRANCH  15  17
ENDBRANCH  10  13
ENDBRANCH   4   7
BRANCH   1  23
ATOM     23  N   UNL     1       4.589   2.083  19.776  0.00  0.00    +0.000 N 
ATOM     24  H   UNL     1       5.368   2.103  20.441  0.00  0.00    +0.000 HD
ATOM     25  H   UNL     1       4.837   1.643  18.893  0.00  0.00    +0.000 HD
ENDBRANCH   1  23
BRANCH   6  26
ATOM     26  O   UNL     1       6.170   4.271  18.543  0.00  0.00    +0.000 OA
BRANCH  26  27
ATOM     27  C   UNL     1       6.398   4.485  17.186  0.00  0.00    +0.000 A 
ATOM     28  C   UNL     1       7.170   5.594  16.809  0.00  0.00    +0.000 A 
ATOM     29  C   UNL     1       7.459   5.857  15.454  0.00  0.00    +0.000 A 
ATOM     30  C   UNL     1       6.996   4.960  14.464  0.00  0.00    +0.000 A 
ATOM     31  C   UNL     1       7.156   4.861  13.052  0.00  0.00    +0.000 A 
ATOM     32  C   UNL     1       6.507   3.720  12.635  0.00  0.00    +0.000 A 
ATOM     33  N   UNL     1       5.916   3.151  13.730  0.00  0.00    +0.000 N 
ATOM     34  C   UNL     1       6.209   3.884  14.860  0.00  0.00    +0.000 A 
ATOM     35  C   UNL     1       5.851   3.657  16.195  0.00  0.00    +0.000 A 
ATOM     36  H   UNL     1       5.385   2.291  13.730  0.00  0.00    +0.000 HD
ENDBRANCH  26  27
ENDBRANCH   6  26
TORSDOF 6
ENDMDL
MODEL 6
REMARK VINA RESULT:      -8.8      0.938      1.337
REMARK  Name = 
REMARK  6 active torsions:
REMARK  status: ('A' for Active; 'I' for Inactive)
REMARK    1  A    between atoms: N_1  and  C_2
REMARK    2  A    between atoms: C_5  and  C_6
REMARK    3  A    between atoms: C_9  and  C_10
REMARK    4  A    between atoms: N_12  and  C_13
REMARK    5  A    between atoms: C_21  and  O_22
REMARK    6  A    between atoms: O_22  and  C_23
REMARK                            x       y       z     vdW  Elec       q    Type
REMARK                         _______ _______ _______ _____ _____    ______ ____
ROOT
ATOM      1  C   UNL     1       4.246   3.168  19.668  0.00  0.00    +0.000 A 
ATOM      2  N   UNL     1       2.987   3.215  20.151  0.00  0.00    +0.000 NA
ATOM      3  C   UNL     1       2.380   4.423  20.132  0.00  0.00    +0.000 A 
ATOM      4  C   UNL     1       2.979   5.582  19.651  0.00  0.00    +0.000 A 
ATOM      5  N   UNL     1       4.229   5.539  19.144  0.00  0.00    +0.000 NA
ATOM      6  C   UNL     1       4.879   4.335  19.182  0.00  0.00    +0.000 A 
ENDROOT
BRANCH   4   7
ATOM      7  C   UNL     1       2.285   6.879  19.644  0.00  0.00    +0.000 A 
ATOM      8  C   UNL     1       2.283   7.692  18.499  0.00  0.00    +0.000 A 
ATOM      9  C   UNL     1       1.727   8.972  18.516  0.00  0.00    +0.000 A 
ATOM     10  C   UNL     1       1.123   9.477  19.674  0.00  0.00    +0.000 A 
ATOM     11  C   UNL     1       1.088   8.666  20.816  0.00  0.00    +0.000 A 
ATOM     12  C   UNL     1       1.648   7.377  20.792  0.00  0.00    +0.000 A 
BRANCH  10  13
ATOM     13  C   UNL     1       0.559  10.865  19.611  0.00  0.00    +0.000 C 
ATOM     14  O   UNL     1       0.871  11.601  18.675  0.00  0.00    +0.000 OA
ATOM     15  N   UNL     1      -0.293  11.273  20.615  0.00  0.00    +0.000 N 
ATOM     16  H   UNL     1      -0.684  10.593  21.249  0.00  0.00    +0.000 HD
BRANCH  15  17
ATOM     17  C   UNL     1      -0.922  12.595  20.581  0.00  0.00    +0.000 C 
ATOM     18  C   UNL     1      -0.290  13.544  21.589  0.00  0.00    +0.000 C 
ATOM     19  C   UNL     1      -1.090  13.286  22.848  0.00  0.00    +0.000 C 
ATOM     20  N   UNL     1      -2.471  13.139  22.382  0.00  0.00    +0.000 NA
ATOM     21  C   UNL     1      -2.395  12.554  21.025  0.00  0.00    +0.000 C 
ATOM     22  H   UNL     1      -2.885  14.072  22.302  0.00  0.00    +0.000 HD
ENDBRANCH  15  17
ENDBRANCH  10  13
ENDBRANCH   4   7
BRANCH   1  23
ATOM     23  N   UNL     1       4.766   1.881  19.677  0.00  0.00    +0.000 N 
ATOM     24  H   UNL     1       5.759   1.972  19.913  0.00  0.00    +0.000 HD
ATOM     25  H   UNL     1       4.613   1.382  18.805  0.00  0.00    +0.000 HD
ENDBRANCH   1  23
BRANCH   6  26
ATOM     26  O   UNL     1       6.200   4.301  18.729  0.00  0.00    +0.000 OA
BRANCH  26  27
ATOM     27  C   UNL     1       6.415   4.523  17.371  0.00  0.00    +0.000 A 
ATOM     28  C   UNL     1       7.164   5.647  16.992  0.00  0.00    +0.000 A 
ATOM     29  C   UNL     1       7.439   5.919  15.636  0.00  0.00    +0.000 A 
ATOM     30  C   UNL     1       6.986   5.017  14.647  0.00  0.00    +0.000 A 
ATOM     31  C   UNL     1       7.138   4.925  13.233  0.00  0.00    +0.000 A 
ATOM     32  C   UNL     1       6.508   3.774  12.817  0.00  0.00    +0.000 A 
ATOM     33  N   UNL     1       5.934   3.191  13.915  0.00  0.00    +0.000 N 
ATOM     34  C   UNL     1       6.221   3.926  15.045  0.00  0.00    +0.000 A 
ATOM     35  C   UNL     1       5.876   3.688  16.382  0.00  0.00    +0.000 A 
ATOM     36  H   UNL     1       5.419   2.321  13.915  0.00  0.00    +0.000 HD
ENDBRANCH  26  27
ENDBRANCH   6  26
TORSDOF 6
ENDMDL
MODEL 7
REMARK VINA RESULT:      -8.7      2.739     11.189
REMARK  Name = 
REMARK  6 active torsions:
REMARK  status: ('A' for Active; 'I' for Inactive)
REMARK    1  A    between atoms: N_1  and  C_2
REMARK    2  A    between atoms: C_5  and  C_6
REMARK    3  A    between atoms: C_9  and  C_10
REMARK    4  A    between atoms: N_12  and  C_13
REMARK    5  A    between atoms: C_21  and  O_22
REMARK    6  A    between atoms: O_22  and  C_23
REMARK                            x       y       z     vdW  Elec       q    Type
REMARK                         _______ _______ _______ _____ _____    ______ ____
ROOT
ATOM      1  C   UNL     1      -1.206  12.562  21.981  0.00  0.00    +0.000 A 
ATOM      2  N   UNL     1      -0.310  11.820  22.665  0.00  0.00    +0.000 NA
ATOM      3  C   UNL     1       0.332  10.858  21.964  0.00  0.00    +0.000 A 
ATOM      4  C   UNL     1       0.115  10.609  20.614  0.00  0.00    +0.000 A 
ATOM      5  N   UNL     1      -0.762  11.363  19.918  0.00  0.00    +0.000 NA
ATOM      6  C   UNL     1      -1.451  12.322  20.610  0.00  0.00    +0.000 A 
ENDROOT
BRANCH   4   7
ATOM      7  C   UNL     1       0.836   9.554  19.886  0.00  0.00    +0.000 A 
ATOM      8  C   UNL     1       1.331   8.422  20.555  0.00  0.00    +0.000 A 
ATOM      9  C   UNL     1       2.113   7.472  19.896  0.00  0.00    +0.000 A 
ATOM     10  C   UNL     1       2.406   7.602  18.532  0.00  0.00    +0.000 A 
ATOM     11  C   UNL     1       1.892   8.709  17.844  0.00  0.00    +0.000 A 
ATOM     12  C   UNL     1       1.104   9.661  18.512  0.00  0.00    +0.000 A 
BRANCH  10  13
ATOM     13  C   UNL     1       3.261   6.544  17.904  0.00  0.00    +0.000 C 
ATOM     14  O   UNL     1       4.162   6.875  17.132  0.00  0.00    +0.000 OA
ATOM     15  N   UNL     1       3.005   5.225  18.212  0.00  0.00    +0.000 N 
ATOM     16  H   UNL     1       2.404   4.998  18.989  0.00  0.00    +0.000 HD
BRANCH  15  17
ATOM     17  C   UNL     1       3.841   4.149  17.676  0.00  0.00    +0.000 C 
ATOM     18  C   UNL     1       3.225   2.780  17.930  0.00  0.00    +0.000 C 
ATOM     19  C   UNL     1       3.765   2.410  19.295  0.00  0.00    +0.000 C 
ATOM     20  N   UNL     1       5.158   2.862  19.273  0.00  0.00    +0.000 NA
ATOM     21  C   UNL     1       5.199   4.052  18.394  0.00  0.00    +0.000 C 
ATOM     22  H   UNL     1       5.729   2.130  18.842  0.00  0.00    +0.000 HD
ENDBRANCH  15  17
ENDBRANCH  10  13
ENDBRANCH   4   7
BRANCH   1  23
ATOM     23  N   UNL     1      -1.773  13.557  22.766  0.00  0.00    +0.000 N 
ATOM     24  H   UNL     1      -1.403  13.425  23.713  0.00  0.00    +0.000 HD
ATOM     25  H   UNL     1      -2.790  13.559  22.738  0.00  0.00    +0.000 HD
ENDBRANCH   1  23
BRANCH   6  26
ATOM     26  O   UNL     1      -2.415  13.054  19.913  0.00  0.00    +0.000 OA
BRANCH  26  27
ATOM     27  C   UNL     1      -3.716  12.559  19.915  0.00  0.00    +0.000 A 
ATOM     28  C   UNL     1      -4.179  11.901  18.765  0.00  0.00    +0.000 A 
ATOM     29  C   UNL     1      -5.478  11.355  18.709  0.00  0.00    +0.000 A 
ATOM     30  C   UNL     1      -6.311  11.440  19.847  0.00  0.00    +0.000 A 
ATOM     31  C   UNL     1      -7.609  10.951  20.175  0.00  0.00    +0.000 A 
ATOM     32  C   UNL     1      -7.876  11.306  21.478  0.00  0.00    +0.000 A 
ATOM     33  N   UNL     1      -6.813  12.036  21.938  0.00  0.00    +0.000 N 
ATOM     34  C   UNL     1      -5.841  12.123  20.964  0.00  0.00    +0.000 A 
ATOM     35  C   UNL     1      -4.582  12.735  21.004  0.00  0.00    +0.000 A 
ATOM     36  H   UNL     1      -6.722  12.416  22.871  0.00  0.00    +0.000 HD
ENDBRANCH  26  27
ENDBRANCH   6  26
TORSDOF 6
ENDMDL
MODEL 8
REMARK VINA RESULT:      -8.7      0.687      1.101
REMARK  Name = 
REMARK  6 active torsions:
REMARK  status: ('A' for Active; 'I' for Inactive)
REMARK    1  A    between atoms: N_1  and  C_2
REMARK    2  A    between atoms: C_5  and  C_6
REMARK    3  A    between atoms: C_9  and  C_10
REMARK    4  A    between atoms: N_12  and  C_13
REMARK    5  A    between atoms: C_21  and  O_22
REMARK    6  A    between atoms: O_22  and  C_23
REMARK                            x       y       z     vdW  Elec       q    Type
REMARK                         _______ _______ _______ _____ _____    ______ ____
ROOT
ATOM      1  C   UNL     1       3.529   3.678  20.167  0.00  0.00    +0.000 A 
ATOM      2  N   UNL     1       2.291   3.904  20.653  0.00  0.00    +0.000 NA
ATOM      3  C   UNL     1       1.808   5.159  20.510  0.00  0.00    +0.000 A 
ATOM      4  C   UNL     1       2.511   6.193  19.902  0.00  0.00    +0.000 A 
ATOM      5  N   UNL     1       3.741   5.968  19.391  0.00  0.00    +0.000 NA
ATOM      6  C   UNL     1       4.267   4.715  19.553  0.00  0.00    +0.000 A 
ENDROOT
BRANCH   4   7
ATOM      7  C   UNL     1       1.952   7.546  19.762  0.00  0.00    +0.000 A 
ATOM      8  C   UNL     1       1.337   8.190  20.849  0.00  0.00    +0.000 A 
ATOM      9  C   UNL     1       0.703   9.425  20.699  0.00  0.00    +0.000 A 
ATOM     10  C   UNL     1       0.685  10.077  19.460  0.00  0.00    +0.000 A 
ATOM     11  C   UNL     1       1.322   9.463  18.374  0.00  0.00    +0.000 A 
ATOM     12  C   UNL     1       1.960   8.221  18.531  0.00  0.00    +0.000 A 
BRANCH  10  13
ATOM     13  C   UNL     1      -0.026  11.394  19.382  0.00  0.00    +0.000 C 
ATOM     14  O   UNL     1       0.415  12.276  18.645  0.00  0.00    +0.000 OA
ATOM     15  N   UNL     1      -1.158  11.575  20.149  0.00  0.00    +0.000 N 
ATOM     16  H   UNL     1      -1.604  10.780  20.580  0.00  0.00    +0.000 HD
BRANCH  15  17
ATOM     17  C   UNL     1      -1.930  12.817  20.074  0.00  0.00    +0.000 C 
ATOM     18  C   UNL     1      -1.892  13.582  21.388  0.00  0.00    +0.000 C 
ATOM     19  C   UNL     1      -3.059  12.998  22.157  0.00  0.00    +0.000 C 
ATOM     20  N   UNL     1      -4.115  12.837  21.154  0.00  0.00    +0.000 NA
ATOM     21  C   UNL     1      -3.434  12.558  19.870  0.00  0.00    +0.000 C 
ATOM     22  H   UNL     1      -4.612  13.727  21.063  0.00  0.00    +0.000 HD
ENDBRANCH  15  17
ENDBRANCH  10  13
ENDBRANCH   4   7
BRANCH   1  23
ATOM     23  N   UNL     1       3.916   2.352  20.310  0.00  0.00    +0.000 N 
ATOM     24  H   UNL     1       4.774   2.360  20.870  0.00  0.00    +0.000 HD
ATOM     25  H   UNL     1       4.031   1.871  19.421  0.00  0.00    +0.000 HD
ENDBRANCH   1  23
BRANCH   6  26
ATOM     26  O   UNL     1       5.568   4.498  19.095  0.00  0.00    +0.000 OA
BRANCH  26  27
ATOM     27  C   UNL     1       5.745   4.356  17.721  0.00  0.00    +0.000 A 
ATOM     28  C   UNL     1       4.818   3.580  17.008  0.00  0.00    +0.000 A 
ATOM     29  C   UNL     1       4.925   3.415  15.611  0.00  0.00    +0.000 A 
ATOM     30  C   UNL     1       5.962   4.077  14.916  0.00  0.00    +0.000 A 
ATOM     31  C   UNL     1       6.322   4.204  13.543  0.00  0.00    +0.000 A 
ATOM     32  C   UNL     1       7.415   5.039  13.471  0.00  0.00    +0.000 A 
ATOM     33  N   UNL     1       7.763   5.382  14.750  0.00  0.00    +0.000 N 
ATOM     34  C   UNL     1       6.885   4.816  15.648  0.00  0.00    +0.000 A 
ATOM     35  C   UNL     1       6.834   4.924  17.044  0.00  0.00    +0.000 A 
ATOM     36  H   UNL     1       8.520   6.002  15.005  0.00  0.00    +0.000 HD
ENDBRANCH  26  27
ENDBRANCH   6  26
TORSDOF 6
ENDMDL
MODEL 9
REMARK VINA RESULT:      -8.6      2.219      9.873
REMARK  Name = 
REMARK  6 active torsions:
REMARK  status: ('A' for Active; 'I' for Inactive)
REMARK    1  A    between atoms: N_1  and  C_2
REMARK    2  A    between atoms: C_5  and  C_6
REMARK    3  A    between atoms: C_9  and  C_10
REMARK    4  A    between atoms: N_12  and  C_13
REMARK    5  A    between atoms: C_21  and  O_22
REMARK    6  A    between atoms: O_22  and  C_23
REMARK                            x       y       z     vdW  Elec       q    Type
REMARK                         _______ _______ _______ _____ _____    ______ ____
ROOT
ATOM      1  C   UNL     1      -0.816  11.580  22.533  0.00  0.00    +0.000 A 
ATOM      2  N   UNL     1      -0.181  10.607  23.220  0.00  0.00    +0.000 NA
ATOM      3  C   UNL     1       0.441   9.658  22.484  0.00  0.00    +0.000 A 
ATOM      4  C   UNL     1       0.453   9.642  21.094  0.00  0.00    +0.000 A 
ATOM      5  N   UNL     1      -0.159  10.625  20.399  0.00  0.00    +0.000 NA
ATOM      6  C   UNL     1      -0.825  11.580  21.119  0.00  0.00    +0.000 A 
ENDROOT
BRANCH   4   7
ATOM      7  C   UNL     1       1.143   8.594  20.327  0.00  0.00    +0.000 A 
ATOM      8  C   UNL     1       1.387   7.330  20.889  0.00  0.00    +0.000 A 
ATOM      9  C   UNL     1       2.139   6.367  20.214  0.00  0.00    +0.000 A 
ATOM     10  C   UNL     1       2.652   6.621  18.936  0.00  0.00    +0.000 A 
ATOM     11  C   UNL     1       2.390   7.866  18.349  0.00  0.00    +0.000 A 
ATOM     12  C   UNL     1       1.630   8.830  19.032  0.00  0.00    +0.000 A 
BRANCH  10  13
ATOM     13  C   UNL     1       3.459   5.538  18.286  0.00  0.00    +0.000 C 
ATOM     14  O   UNL     1       3.340   4.378  18.681  0.00  0.00    +0.000 OA
ATOM     15  N   UNL     1       4.316   5.882  17.262  0.00  0.00    +0.000 N 
ATOM     16  H   UNL     1       4.244   6.791  16.832  0.00  0.00    +0.000 HD
BRANCH  15  17
ATOM     17  C   UNL     1       5.087   4.863  16.549  0.00  0.00    +0.000 C 
ATOM     18  C   UNL     1       6.296   4.407  17.353  0.00  0.00    +0.000 C 
ATOM     19  C   UNL     1       7.370   5.392  16.942  0.00  0.00    +0.000 C 
ATOM     20  N   UNL     1       7.171   5.572  15.502  0.00  0.00    +0.000 NA
ATOM     21  C   UNL     1       5.720   5.408  15.256  0.00  0.00    +0.000 C 
ATOM     22  H   UNL     1       7.663   4.821  15.012  0.00  0.00    +0.000 HD
ENDBRANCH  15  17
ENDBRANCH  10  13
ENDBRANCH   4   7
BRANCH   1  23
ATOM     23  N   UNL     1      -1.375  12.536  23.369  0.00  0.00    +0.000 N 
ATOM     24  H   UNL     1      -2.142  12.967  22.843  0.00  0.00    +0.000 HD
ATOM     25  H   UNL     1      -0.700  13.215  23.709  0.00  0.00    +0.000 HD
ENDBRANCH   1  23
BRANCH   6  26
ATOM     26  O   UNL     1      -1.524  12.556  20.405  0.00  0.00    +0.000 OA
BRANCH  26  27
ATOM     27  C   UNL     1      -2.291  12.129  19.325  0.00  0.00    +0.000 A 
ATOM     28  C   UNL     1      -3.689  12.196  19.435  0.00  0.00    +0.000 A 
ATOM     29  C   UNL     1      -4.526  11.803  18.370  0.00  0.00    +0.000 A 
ATOM     30  C   UNL     1      -3.941  11.372  17.158  0.00  0.00    +0.000 A 
ATOM     31  C   UNL     1      -4.451  10.987  15.884  0.00  0.00    +0.000 A 
ATOM     32  C   UNL     1      -3.377  10.721  15.064  0.00  0.00    +0.000 A 
ATOM     33  N   UNL     1      -2.236  10.879  15.805  0.00  0.00    +0.000 N 
ATOM     34  C   UNL     1      -2.555  11.286  17.083  0.00  0.00    +0.000 A 
ATOM     35  C   UNL     1      -1.717  11.601  18.160  0.00  0.00    +0.000 A 
ATOM     36  H   UNL     1      -1.293  10.767  15.460  0.00  0.00    +0.000 HD
ENDBRANCH  26  27
ENDBRANCH   6  26
TORSDOF 6
ENDMDL
