MODEL 1
REMARK VINA RESULT:      -6.9      0.000      0.000
REMARK  Name = 
REMARK  2 active torsions:
REMARK  status: ('A' for Active; 'I' for Inactive)
REMARK    1  A    between atoms: C_1  and  C_2
REMARK    2  A    between atoms: C_4  and  C_5
REMARK                            x       y       z     vdW  Elec       q    Type
REMARK                         _______ _______ _______ _____ _____    ______ ____
ROOT
ATOM      1  C   UNL     1       5.472   4.757  16.876  0.00  0.00    +0.000 A 
ATOM      2  C   UNL     1       4.067   4.636  16.858  0.00  0.00    +0.000 A 
ATOM      3  C   UNL     1       3.336   4.592  18.045  0.00  0.00    +0.000 A 
ATOM      4 CL   UNL     1       1.622   4.450  17.995  0.00  0.00    +0.000 Cl
ATOM      5  C   UNL     1       3.982   4.663  19.274  0.00  0.00    +0.000 A 
ATOM      6  C   UNL     1       5.371   4.790  19.313  0.00  0.00    +0.000 A 
ATOM      7  C   UNL     1       6.115   4.846  18.125  0.00  0.00    +0.000 A 
ATOM      8 CL   UNL     1       7.818   5.084  18.317  0.00  0.00    +0.000 Cl
ENDROOT
BRANCH   1  12
ATOM      9  C   UNL     1       7.197   4.112  12.117  0.00  0.00    +0.000 C 
ATOM     10  C   UNL     1       6.868   4.473  13.507  0.00  0.00    +0.000 A 
ATOM     11  C   UNL     1       5.893   4.087  14.388  0.00  0.00    +0.000 A 
ATOM     12  C   UNL     1       6.178   4.789  15.590  0.00  0.00    +0.000 A 
ATOM     13  N   UNL     1       7.243   5.590  15.404  0.00  0.00    +0.000 NA
ATOM     14  O   UNL     1       7.673   5.383  14.109  0.00  0.00    +0.000 OA
ENDBRANCH   1  12
TORSDOF 1
ENDMDL
MODEL 2
REMARK VINA RESULT:      -6.7      2.574      3.528
REMARK  Name = 
REMARK  2 active torsions:
REMARK  status: ('A' for Active; 'I' for Inactive)
REMARK    1  A    between atoms: C_1  and  C_2
REMARK    2  A    between atoms: C_4  and  C_5
REMARK                            x       y       z     vdW  Elec       q    Type
REMARK                         _______ _______ _______ _____ _____    ______ ____
ROOT
ATOM      1  C   UNL     1       3.543   4.354  18.915  0.00  0.00    +0.000 A 
ATOM      2  C   UNL     1       3.085   5.555  19.496  0.00  0.00    +0.000 A 
ATOM      3  C   UNL     1       1.943   5.573  20.299  0.00  0.00    +0.000 A 
ATOM      4 CL   UNL     1       1.410   7.049  21.002  0.00  0.00    +0.000 Cl
ATOM      5  C   UNL     1       1.231   4.403  20.538  0.00  0.00    +0.000 A 
ATOM      6  C   UNL     1       1.672   3.204  19.978  0.00  0.00    +0.000 A 
ATOM      7  C   UNL     1       2.825   3.172  19.178  0.00  0.00    +0.000 A 
ATOM      8 CL   UNL     1       3.303   1.609  18.613  0.00  0.00    +0.000 Cl
ENDROOT
BRANCH   1  12
ATOM      9  C   UNL     1       7.005   4.603  15.175  0.00  0.00    +0.000 C 
ATOM     10  C   UNL     1       6.197   4.537  16.405  0.00  0.00    +0.000 A 
ATOM     11  C   UNL     1       4.853   4.563  16.667  0.00  0.00    +0.000 A 
ATOM     12  C   UNL     1       4.745   4.409  18.076  0.00  0.00    +0.000 A 
ATOM     13  N   UNL     1       5.973   4.348  18.619  0.00  0.00    +0.000 NA
ATOM     14  O   UNL     1       6.873   4.419  17.575  0.00  0.00    +0.000 OA
ENDBRANCH   1  12
TORSDOF 1
ENDMDL
MODEL 3
REMARK VINA RESULT:      -6.7      3.271      5.298
REMARK  Name = 
REMARK  2 active torsions:
REMARK  status: ('A' for Active; 'I' for Inactive)
REMARK    1  A    between atoms: C_1  and  C_2
REMARK    2  A    between atoms: C_4  and  C_5
REMARK                            x       y       z     vdW  Elec       q    Type
REMARK                         _______ _______ _______ _____ _____    ______ ____
ROOT
ATOM      1  C   UNL     1       5.003   4.129  17.198  0.00  0.00    +0.000 A 
ATOM      2  C   UNL     1       4.999   3.775  15.833  0.00  0.00    +0.000 A 
ATOM      3  C   UNL     1       6.034   4.174  14.986  0.00  0.00    +0.000 A 
ATOM      4 CL   UNL     1       6.009   3.723  13.326  0.00  0.00    +0.000 Cl
ATOM      5  C   UNL     1       7.090   4.934  15.474  0.00  0.00    +0.000 A 
ATOM      6  C   UNL     1       7.116   5.288  16.823  0.00  0.00    +0.000 A 
ATOM      7  C   UNL     1       6.086   4.883  17.686  0.00  0.00    +0.000 A 
ATOM      8 CL   UNL     1       6.282   5.324  19.348  0.00  0.00    +0.000 Cl
ENDROOT
BRANCH   1  12
ATOM      9  C   UNL     1       0.868   3.644  20.150  0.00  0.00    +0.000 C 
ATOM     10  C   UNL     1       2.065   3.540  19.298  0.00  0.00    +0.000 A 
ATOM     11  C   UNL     1       2.837   4.448  18.621  0.00  0.00    +0.000 A 
ATOM     12  C   UNL     1       3.879   3.683  18.029  0.00  0.00    +0.000 A 
ATOM     13  N   UNL     1       3.694   2.380  18.304  0.00  0.00    +0.000 NA
ATOM     14  O   UNL     1       2.570   2.297  19.100  0.00  0.00    +0.000 OA
ENDBRANCH   1  12
TORSDOF 1
ENDMDL
MODEL 4
REMARK VINA RESULT:      -6.7      3.223      5.121
REMARK  Name = 
REMARK  2 active torsions:
REMARK  status: ('A' for Active; 'I' for Inactive)
REMARK    1  A    between atoms: C_1  and  C_2
REMARK    2  A    between atoms: C_4  and  C_5
REMARK                            x       y       z     vdW  Elec       q    Type
REMARK                         _______ _______ _______ _____ _____    ______ ____
ROOT
ATOM      1  C   UNL     1       4.866   4.307  16.853  0.00  0.00    +0.000 A 
ATOM      2  C   UNL     1       5.029   4.014  15.483  0.00  0.00    +0.000 A 
ATOM      3  C   UNL     1       6.243   4.252  14.838  0.00  0.00    +0.000 A 
ATOM      4 CL   UNL     1       6.418   3.879  13.168  0.00  0.00    +0.000 Cl
ATOM      5  C   UNL     1       7.318   4.790  15.537  0.00  0.00    +0.000 A 
ATOM      6  C   UNL     1       7.179   5.081  16.894  0.00  0.00    +0.000 A 
ATOM      7  C   UNL     1       5.966   4.835  17.555  0.00  0.00    +0.000 A 
ATOM      8 CL   UNL     1       5.956   5.167  19.253  0.00  0.00    +0.000 Cl
ENDROOT
BRANCH   1  12
ATOM      9  C   UNL     1       0.628   2.330  18.895  0.00  0.00    +0.000 C 
ATOM     10  C   UNL     1       1.752   3.117  18.359  0.00  0.00    +0.000 A 
ATOM     11  C   UNL     1       2.986   2.798  17.855  0.00  0.00    +0.000 A 
ATOM     12  C   UNL     1       3.560   4.039  17.465  0.00  0.00    +0.000 A 
ATOM     13  N   UNL     1       2.721   5.042  17.776  0.00  0.00    +0.000 NA
ATOM     14  O   UNL     1       1.594   4.463  18.323  0.00  0.00    +0.000 OA
ENDBRANCH   1  12
TORSDOF 1
ENDMDL
MODEL 5
REMARK VINA RESULT:      -6.7      3.712      5.935
REMARK  Name = 
REMARK  2 active torsions:
REMARK  status: ('A' for Active; 'I' for Inactive)
REMARK    1  A    between atoms: C_1  and  C_2
REMARK    2  A    between atoms: C_4  and  C_5
REMARK                            x       y       z     vdW  Elec       q    Type
REMARK                         _______ _______ _______ _____ _____    ______ ____
ROOT
ATOM      1  C   UNL     1       3.623   4.879  17.621  0.00  0.00    +0.000 A 
ATOM      2  C   UNL     1       4.412   4.092  16.756  0.00  0.00    +0.000 A 
ATOM      3  C   UNL     1       5.270   4.686  15.829  0.00  0.00    +0.000 A 
ATOM      4 CL   UNL     1       6.227   3.704  14.791  0.00  0.00    +0.000 Cl
ATOM      5  C   UNL     1       5.358   6.070  15.737  0.00  0.00    +0.000 A 
ATOM      6  C   UNL     1       4.590   6.865  16.588  0.00  0.00    +0.000 A 
ATOM      7  C   UNL     1       3.733   6.279  17.532  0.00  0.00    +0.000 A 
ATOM      8 CL   UNL     1       2.900   7.379  18.575  0.00  0.00    +0.000 Cl
ENDROOT
BRANCH   1  12
ATOM      9  C   UNL     1       1.362   2.637  21.609  0.00  0.00    +0.000 C 
ATOM     10  C   UNL     1       1.805   3.242  20.341  0.00  0.00    +0.000 A 
ATOM     11  C   UNL     1       2.928   3.921  19.948  0.00  0.00    +0.000 A 
ATOM     12  C   UNL     1       2.737   4.188  18.566  0.00  0.00    +0.000 A 
ATOM     13  N   UNL     1       1.532   3.733  18.180  0.00  0.00    +0.000 NA
ATOM     14  O   UNL     1       0.960   3.138  19.286  0.00  0.00    +0.000 OA
ENDBRANCH   1  12
TORSDOF 1
ENDMDL
MODEL 6
REMARK VINA RESULT:      -6.6      2.014      2.242
REMARK  Name = 
REMARK  2 active torsions:
REMARK  status: ('A' for Active; 'I' for Inactive)
REMARK    1  A    between atoms: C_1  and  C_2
REMARK    2  A    between atoms: C_4  and  C_5
REMARK                            x       y       z     vdW  Elec       q    Type
REMARK                         _______ _______ _______ _____ _____    ______ ____
ROOT
ATOM      1  C   UNL     1       4.198   4.652  17.178  0.00  0.00    +0.000 A 
ATOM      2  C   UNL     1       3.662   3.390  17.506  0.00  0.00    +0.000 A 
ATOM      3  C   UNL     1       2.536   3.280  18.324  0.00  0.00    +0.000 A 
ATOM      4 CL   UNL     1       1.897   1.728  18.702  0.00  0.00    +0.000 Cl
ATOM      5  C   UNL     1       1.924   4.417  18.837  0.00  0.00    +0.000 A 
ATOM      6  C   UNL     1       2.436   5.675  18.519  0.00  0.00    +0.000 A 
ATOM      7  C   UNL     1       3.560   5.798  17.689  0.00  0.00    +0.000 A 
ATOM      8 CL   UNL     1       4.042   7.417  17.312  0.00  0.00    +0.000 Cl
ENDROOT
BRANCH   1  12
ATOM      9  C   UNL     1       7.609   4.957  13.395  0.00  0.00    +0.000 C 
ATOM     10  C   UNL     1       6.819   4.852  14.633  0.00  0.00    +0.000 A 
ATOM     11  C   UNL     1       5.482   4.941  14.923  0.00  0.00    +0.000 A 
ATOM     12  C   UNL     1       5.388   4.694  16.320  0.00  0.00    +0.000 A 
ATOM     13  N   UNL     1       6.619   4.522  16.833  0.00  0.00    +0.000 NA
ATOM     14  O   UNL     1       7.504   4.612  15.778  0.00  0.00    +0.000 OA
ENDBRANCH   1  12
TORSDOF 1
ENDMDL
MODEL 7
REMARK VINA RESULT:      -6.6      2.251      2.455
REMARK  Name = 
REMARK  2 active torsions:
REMARK  status: ('A' for Active; 'I' for Inactive)
REMARK    1  A    between atoms: C_1  and  C_2
REMARK    2  A    between atoms: C_4  and  C_5
REMARK                            x       y       z     vdW  Elec       q    Type
REMARK                         _______ _______ _______ _____ _____    ______ ____
ROOT
ATOM      1  C   UNL     1       4.431   6.195  17.524  0.00  0.00    +0.000 A 
ATOM      2  C   UNL     1       3.662   7.363  17.336  0.00  0.00    +0.000 A 
ATOM      3  C   UNL     1       2.684   7.734  18.259  0.00  0.00    +0.000 A 
ATOM      4 CL   UNL     1       1.765   9.167  18.010  0.00  0.00    +0.000 Cl
ATOM      5  C   UNL     1       2.445   6.954  19.385  0.00  0.00    +0.000 A 
ATOM      6  C   UNL     1       3.200   5.799  19.592  0.00  0.00    +0.000 A 
ATOM      7  C   UNL     1       4.193   5.422  18.676  0.00  0.00    +0.000 A 
ATOM      8 CL   UNL     1       5.106   4.013  19.096  0.00  0.00    +0.000 Cl
ENDROOT
BRANCH   1  12
ATOM      9  C   UNL     1       7.116   4.455  13.549  0.00  0.00    +0.000 C 
ATOM     10  C   UNL     1       6.542   5.083  14.752  0.00  0.00    +0.000 A 
ATOM     11  C   UNL     1       5.297   5.091  15.322  0.00  0.00    +0.000 A 
ATOM     12  C   UNL     1       5.436   5.860  16.510  0.00  0.00    +0.000 A 
ATOM     13  N   UNL     1       6.695   6.325  16.601  0.00  0.00    +0.000 NA
ATOM     14  O   UNL     1       7.380   5.832  15.510  0.00  0.00    +0.000 OA
ENDBRANCH   1  12
TORSDOF 1
ENDMDL
MODEL 8
REMARK VINA RESULT:      -6.6      2.245      3.102
REMARK  Name = 
REMARK  2 active torsions:
REMARK  status: ('A' for Active; 'I' for Inactive)
REMARK    1  A    between atoms: C_1  and  C_2
REMARK    2  A    between atoms: C_4  and  C_5
REMARK                            x       y       z     vdW  Elec       q    Type
REMARK                         _______ _______ _______ _____ _____    ______ ____
ROOT
ATOM      1  C   UNL     1       3.859   4.880  18.695  0.00  0.00    +0.000 A 
ATOM      2  C   UNL     1       3.568   3.823  19.582  0.00  0.00    +0.000 A 
ATOM      3  C   UNL     1       2.623   3.980  20.598  0.00  0.00    +0.000 A 
ATOM      4 CL   UNL     1       2.282   2.672  21.663  0.00  0.00    +0.000 Cl
ATOM      5  C   UNL     1       1.953   5.187  20.757  0.00  0.00    +0.000 A 
ATOM      6  C   UNL     1       2.222   6.242  19.885  0.00  0.00    +0.000 A 
ATOM      7  C   UNL     1       3.161   6.092  18.854  0.00  0.00    +0.000 A 
ATOM      8 CL   UNL     1       3.341   7.452  17.798  0.00  0.00    +0.000 Cl
ENDROOT
BRANCH   1  12
ATOM      9  C   UNL     1       6.507   4.050  14.413  0.00  0.00    +0.000 C 
ATOM     10  C   UNL     1       5.961   4.304  15.757  0.00  0.00    +0.000 A 
ATOM     11  C   UNL     1       4.701   4.518  16.250  0.00  0.00    +0.000 A 
ATOM     12  C   UNL     1       4.868   4.650  17.656  0.00  0.00    +0.000 A 
ATOM     13  N   UNL     1       6.175   4.569  17.964  0.00  0.00    +0.000 NA
ATOM     14  O   UNL     1       6.849   4.346  16.781  0.00  0.00    +0.000 OA
ENDBRANCH   1  12
TORSDOF 1
ENDMDL
MODEL 9
REMARK VINA RESULT:      -6.4      3.394      5.665
REMARK  Name = 
REMARK  2 active torsions:
REMARK  status: ('A' for Active; 'I' for Inactive)
REMARK    1  A    between atoms: C_1  and  C_2
REMARK    2  A    between atoms: C_4  and  C_5
REMARK                            x       y       z     vdW  Elec       q    Type
REMARK                         _______ _______ _______ _____ _____    ______ ____
ROOT
ATOM      1  C   UNL     1       4.221   4.750  17.577  0.00  0.00    +0.000 A 
ATOM      2  C   UNL     1       4.925   4.013  16.601  0.00  0.00    +0.000 A 
ATOM      3  C   UNL     1       5.484   4.646  15.490  0.00  0.00    +0.000 A 
ATOM      4 CL   UNL     1       6.344   3.725  14.319  0.00  0.00    +0.000 Cl
ATOM      5  C   UNL     1       5.353   6.019  15.321  0.00  0.00    +0.000 A 
ATOM      6  C   UNL     1       4.666   6.766  16.278  0.00  0.00    +0.000 A 
ATOM      7  C   UNL     1       4.109   6.142  17.404  0.00  0.00    +0.000 A 
ATOM      8 CL   UNL     1       3.354   7.196  18.550  0.00  0.00    +0.000 Cl
ENDROOT
BRANCH   1  12
ATOM      9  C   UNL     1       1.323   2.726  21.257  0.00  0.00    +0.000 C 
ATOM     10  C   UNL     1       2.335   3.164  20.280  0.00  0.00    +0.000 A 
ATOM     11  C   UNL     1       2.313   3.991  19.188  0.00  0.00    +0.000 A 
ATOM     12  C   UNL     1       3.653   4.020  18.715  0.00  0.00    +0.000 A 
ATOM     13  N   UNL     1       4.414   3.204  19.466  0.00  0.00    +0.000 NA
ATOM     14  O   UNL     1       3.592   2.681  20.443  0.00  0.00    +0.000 OA
ENDBRANCH   1  12
TORSDOF 1
ENDMDL
