MODEL 1
REMARK VINA RESULT:      -6.6      0.000      0.000
REMARK  Name = 
REMARK  13 active torsions:
REMARK  status: ('A' for Active; 'I' for Inactive)
REMARK    1  A    between atoms: C_1  and  C_2
REMARK    2  A    between atoms: N_4  and  C_5
REMARK    3  A    between atoms: C_6  and  N_7
REMARK    4  A    between atoms: C_12  and  C_13
REMARK    5  A    between atoms: C_13  and  O_15
REMARK    6  A    between atoms: C_17  and  C_18
REMARK    7  A    between atoms: C_18  and  O_19
REMARK    8  A    between atoms: C_18  and  C_27
REMARK    9  A    between atoms: O_19  and  C_20
REMARK   10  A    between atoms: C_20  and  C_21
REMARK   11  A    between atoms: C_27  and  O_28
REMARK   12  A    between atoms: C_27  and  C_29
REMARK   13  A    between atoms: C_29  and  O_30
REMARK                            x       y       z     vdW  Elec       q    Type
REMARK                         _______ _______ _______ _____ _____    ______ ____
ROOT
ATOM      1  C   UNL     1       4.958   4.743  16.902  0.00  0.00    +0.000 C 
ATOM      2  C   UNL     1       6.499   4.466  16.883  0.00  0.00    +0.000 C 
ATOM      3  C   UNL     1       7.350   5.648  17.189  0.00  0.00    +0.000 C 
ATOM      4  C   UNL     1       6.833   6.831  17.539  0.00  0.00    +0.000 C 
ATOM      5  O   UNL     1       5.480   7.069  17.615  0.00  0.00    +0.000 OA
ATOM      6  C   UNL     1       4.643   5.914  17.883  0.00  0.00    +0.000 C 
ENDROOT
BRANCH   2   7
ATOM      7  N   UNL     1       6.923   3.847  15.626  0.00  0.00    +0.000 N 
ATOM      8  C   UNL     1       6.731   4.370  14.398  0.00  0.00    +0.000 C 
ATOM      9  N   UNL     1       6.662   5.598  14.046  0.00  0.00    +0.000 NA
ATOM     10  N   UNL     1       6.608   3.412  13.462  0.00  0.00    +0.000 N 
ATOM     11  H   UNL     1       6.668   2.863  15.640  0.00  0.00    +0.000 HD
ATOM     12  H   UNL     1       6.848   6.197  14.848  0.00  0.00    +0.000 HD
ATOM     13  H   UNL     1       7.389   2.767  13.474  0.00  0.00    +0.000 HD
ATOM     14  H   UNL     1       6.561   3.858  12.549  0.00  0.00    +0.000 HD
ENDBRANCH   2   7
BRANCH   1  18
ATOM     15  C   UNL     1       3.243   1.472  18.007  0.00  0.00    +0.000 C 
ATOM     16  C   UNL     1       4.191   2.637  18.134  0.00  0.00    +0.000 C 
ATOM     17  O   UNL     1       4.960   2.737  19.081  0.00  0.00    +0.000 OA
ATOM     18  N   UNL     1       4.140   3.517  17.076  0.00  0.00    +0.000 N 
ATOM     19  H   UNL     1       3.276   3.504  16.541  0.00  0.00    +0.000 HD
ENDBRANCH   1  18
BRANCH   4  20
ATOM     20  C   UNL     1       7.775   7.951  17.836  0.00  0.00    +0.000 C 
ATOM     21  O   UNL     1       7.816   9.006  17.229  0.00  0.00    +0.000 OA
BRANCH  20  22
ATOM     22  O   UNL     1       8.604   7.644  18.858  0.00  0.00    +0.000 OA
ATOM     23  H   UNL     1       8.197   7.827  19.725  0.00  0.00    +0.000 HD
ENDBRANCH  20  22
ENDBRANCH   4  20
BRANCH   6  24
ATOM     24  C   UNL     1       3.170   6.442  17.784  0.00  0.00    +0.000 C 
BRANCH  24  25
ATOM     25  O   UNL     1       2.342   5.645  18.656  0.00  0.00    +0.000 OA
BRANCH  25  26
ATOM     26  C   UNL     1       2.950   5.325  19.908  0.00  0.00    +0.000 C 
BRANCH  26  27
ATOM     27  C   UNL     1       1.880   5.098  20.985  0.00  0.00    +0.000 C 
ATOM     28  C   UNL     1       0.562   4.579  20.391  0.00  0.00    +0.000 C 
ATOM     29  C   UNL     1       0.711   3.187  19.782  0.00  0.00    +0.000 C 
ATOM     30  C   UNL     1       1.322   2.185  20.758  0.00  0.00    +0.000 C 
ATOM     31  C   UNL     1       2.575   2.696  21.468  0.00  0.00    +0.000 C 
ATOM     32  C   UNL     1       2.387   4.103  22.040  0.00  0.00    +0.000 C 
ENDBRANCH  26  27
ENDBRANCH  25  26
ENDBRANCH  24  25
BRANCH  24  33
ATOM     33  C   UNL     1       3.020   7.975  18.091  0.00  0.00    +0.000 C 
BRANCH  33  34
ATOM     34  O   UNL     1       2.955   8.780  16.903  0.00  0.00    +0.000 OA
ATOM     35  H   UNL     1       2.290   8.415  16.296  0.00  0.00    +0.000 HD
ENDBRANCH  33  34
BRANCH  33  36
ATOM     36  C   UNL     1       1.878   8.385  19.024  0.00  0.00    +0.000 C 
BRANCH  36  37
ATOM     37  O   UNL     1       1.521   9.743  18.761  0.00  0.00    +0.000 OA
ATOM     38  H   UNL     1       1.367   9.802  17.797  0.00  0.00    +0.000 HD
ENDBRANCH  36  37
ENDBRANCH  33  36
ENDBRANCH  24  33
ENDBRANCH   6  24
TORSDOF 12
ENDMDL
MODEL 2
REMARK VINA RESULT:      -6.5      2.106      6.450
REMARK  Name = 
REMARK  13 active torsions:
REMARK  status: ('A' for Active; 'I' for Inactive)
REMARK    1  A    between atoms: C_1  and  C_2
REMARK    2  A    between atoms: N_4  and  C_5
REMARK    3  A    between atoms: C_6  and  N_7
REMARK    4  A    between atoms: C_12  and  C_13
REMARK    5  A    between atoms: C_13  and  O_15
REMARK    6  A    between atoms: C_17  and  C_18
REMARK    7  A    between atoms: C_18  and  O_19
REMARK    8  A    between atoms: C_18  and  C_27
REMARK    9  A    between atoms: O_19  and  C_20
REMARK   10  A    between atoms: C_20  and  C_21
REMARK   11  A    between atoms: C_27  and  O_28
REMARK   12  A    between atoms: C_27  and  C_29
REMARK   13  A    between atoms: C_29  and  O_30
REMARK                            x       y       z     vdW  Elec       q    Type
REMARK                         _______ _______ _______ _____ _____    ______ ____
ROOT
ATOM      1  C   UNL     1       3.533   4.575  18.641  0.00  0.00    +0.000 C 
ATOM      2  C   UNL     1       2.131   4.842  19.285  0.00  0.00    +0.000 C 
ATOM      3  C   UNL     1       1.701   6.267  19.277  0.00  0.00    +0.000 C 
ATOM      4  C   UNL     1       2.419   7.228  18.686  0.00  0.00    +0.000 C 
ATOM      5  O   UNL     1       3.625   6.994  18.065  0.00  0.00    +0.000 OA
ATOM      6  C   UNL     1       3.829   5.651  17.552  0.00  0.00    +0.000 C 
ENDROOT
BRANCH   2   7
ATOM      7  N   UNL     1       2.043   4.294  20.640  0.00  0.00    +0.000 N 
ATOM      8  C   UNL     1       1.570   3.071  20.955  0.00  0.00    +0.000 C 
ATOM      9  N   UNL     1       1.594   1.994  20.266  0.00  0.00    +0.000 NA
ATOM     10  N   UNL     1       1.014   3.053  22.180  0.00  0.00    +0.000 N 
ATOM     11  H   UNL     1       1.650   5.001  21.256  0.00  0.00    +0.000 HD
ATOM     12  H   UNL     1       2.111   2.150  19.402  0.00  0.00    +0.000 HD
ATOM     13  H   UNL     1       1.646   3.402  22.890  0.00  0.00    +0.000 HD
ATOM     14  H   UNL     1       0.760   2.093  22.404  0.00  0.00    +0.000 HD
ENDBRANCH   2   7
BRANCH   1  18
ATOM     15  C   UNL     1       4.411   0.841  18.245  0.00  0.00    +0.000 C 
ATOM     16  C   UNL     1       4.349   2.171  18.953  0.00  0.00    +0.000 C 
ATOM     17  O   UNL     1       4.854   2.333  20.056  0.00  0.00    +0.000 OA
ATOM     18  N   UNL     1       3.732   3.163  18.225  0.00  0.00    +0.000 N 
ATOM     19  H   UNL     1       3.096   2.841  17.502  0.00  0.00    +0.000 HD
ENDBRANCH   1  18
BRANCH   4  20
ATOM     20  C   UNL     1       1.894   8.625  18.724  0.00  0.00    +0.000 C 
ATOM     21  O   UNL     1       1.336   9.133  19.680  0.00  0.00    +0.000 OA
BRANCH  20  22
ATOM     22  O   UNL     1       2.093   9.262  17.550  0.00  0.00    +0.000 OA
ATOM     23  H   UNL     1       2.654  10.053  17.654  0.00  0.00    +0.000 HD
ENDBRANCH  20  22
ENDBRANCH   4  20
BRANCH   6  24
ATOM     24  C   UNL     1       5.306   5.631  17.029  0.00  0.00    +0.000 C 
BRANCH  24  25
ATOM     25  O   UNL     1       5.410   6.548  15.920  0.00  0.00    +0.000 OA
BRANCH  25  26
ATOM     26  C   UNL     1       5.558   5.914  14.650  0.00  0.00    +0.000 C 
BRANCH  26  27
ATOM     27  C   UNL     1       6.554   4.749  14.741  0.00  0.00    +0.000 C 
ATOM     28  C   UNL     1       5.980   3.450  14.152  0.00  0.00    +0.000 C 
ATOM     29  C   UNL     1       5.739   3.556  12.649  0.00  0.00    +0.000 C 
ATOM     30  C   UNL     1       6.979   4.019  11.889  0.00  0.00    +0.000 C 
ATOM     31  C   UNL     1       7.660   5.242  12.501  0.00  0.00    +0.000 C 
ATOM     32  C   UNL     1       7.859   5.103  14.012  0.00  0.00    +0.000 C 
ENDBRANCH  26  27
ENDBRANCH  25  26
ENDBRANCH  24  25
BRANCH  24  33
ATOM     33  C   UNL     1       6.378   5.943  18.135  0.00  0.00    +0.000 C 
BRANCH  33  34
ATOM     34  O   UNL     1       6.738   4.786  18.907  0.00  0.00    +0.000 OA
ATOM     35  H   UNL     1       7.106   5.064  19.762  0.00  0.00    +0.000 HD
ENDBRANCH  33  34
BRANCH  33  36
ATOM     36  C   UNL     1       7.658   6.646  17.678  0.00  0.00    +0.000 C 
BRANCH  36  37
ATOM     37  O   UNL     1       7.333   7.955  17.206  0.00  0.00    +0.000 OA
ATOM     38  H   UNL     1       8.126   8.280  16.736  0.00  0.00    +0.000 HD
ENDBRANCH  36  37
ENDBRANCH  33  36
ENDBRANCH  24  33
ENDBRANCH   6  24
TORSDOF 12
ENDMDL
MODEL 3
REMARK VINA RESULT:      -6.5      8.866     11.543
REMARK  Name = 
REMARK  13 active torsions:
REMARK  status: ('A' for Active; 'I' for Inactive)
REMARK    1  A    between atoms: C_1  and  C_2
REMARK    2  A    between atoms: N_4  and  C_5
REMARK    3  A    between atoms: C_6  and  N_7
REMARK    4  A    between atoms: C_12  and  C_13
REMARK    5  A    between atoms: C_13  and  O_15
REMARK    6  A    between atoms: C_17  and  C_18
REMARK    7  A    between atoms: C_18  and  O_19
REMARK    8  A    between atoms: C_18  and  C_27
REMARK    9  A    between atoms: O_19  and  C_20
REMARK   10  A    between atoms: C_20  and  C_21
REMARK   11  A    between atoms: C_27  and  O_28
REMARK   12  A    between atoms: C_27  and  C_29
REMARK   13  A    between atoms: C_29  and  O_30
REMARK                            x       y       z     vdW  Elec       q    Type
REMARK                         _______ _______ _______ _____ _____    ______ ____
ROOT
ATOM      1  C   UNL     1      -1.954  13.078  21.707  0.00  0.00    +0.000 C 
ATOM      2  C   UNL     1      -2.206  12.371  23.082  0.00  0.00    +0.000 C 
ATOM      3  C   UNL     1      -1.388  11.149  23.314  0.00  0.00    +0.000 C 
ATOM      4  C   UNL     1      -0.451  10.740  22.453  0.00  0.00    +0.000 C 
ATOM      5  O   UNL     1      -0.181  11.388  21.269  0.00  0.00    +0.000 OA
ATOM      6  C   UNL     1      -0.494  12.805  21.231  0.00  0.00    +0.000 C 
ENDROOT
BRANCH   2   7
ATOM      7  N   UNL     1      -3.625  12.079  23.289  0.00  0.00    +0.000 N 
ATOM      8  C   UNL     1      -4.440  12.740  24.136  0.00  0.00    +0.000 C 
ATOM      9  N   UNL     1      -4.392  13.962  24.512  0.00  0.00    +0.000 NA
ATOM     10  N   UNL     1      -5.417  11.946  24.609  0.00  0.00    +0.000 N 
ATOM     11  H   UNL     1      -3.743  11.074  23.390  0.00  0.00    +0.000 HD
ATOM     12  H   UNL     1      -3.649  14.447  24.013  0.00  0.00    +0.000 HD
ATOM     13  H   UNL     1      -5.938  11.501  23.864  0.00  0.00    +0.000 HD
ATOM     14  H   UNL     1      -6.053  12.515  25.164  0.00  0.00    +0.000 HD
ENDBRANCH   2   7
BRANCH   1  18
ATOM     15  C   UNL     1      -3.695  16.492  21.278  0.00  0.00    +0.000 C 
ATOM     16  C   UNL     1      -3.557  14.995  21.161  0.00  0.00    +0.000 C 
ATOM     17  O   UNL     1      -4.407  14.315  20.601  0.00  0.00    +0.000 OA
ATOM     18  N   UNL     1      -2.385  14.498  21.687  0.00  0.00    +0.000 N 
ATOM     19  H   UNL     1      -1.936  15.088  22.382  0.00  0.00    +0.000 HD
ENDBRANCH   1  18
BRANCH   4  20
ATOM     20  C   UNL     1       0.322   9.506  22.785  0.00  0.00    +0.000 C 
ATOM     21  O   UNL     1       0.925   8.824  21.977  0.00  0.00    +0.000 OA
BRANCH  20  22
ATOM     22  O   UNL     1       0.254   9.220  24.104  0.00  0.00    +0.000 OA
ATOM     23  H   UNL     1      -0.439   9.737  24.554  0.00  0.00    +0.000 HD
ENDBRANCH  20  22
ENDBRANCH   4  20
BRANCH   6  24
ATOM     24  C   UNL     1      -0.220  13.247  19.752  0.00  0.00    +0.000 C 
BRANCH  24  25
ATOM     25  O   UNL     1      -1.459  13.171  19.017  0.00  0.00    +0.000 OA
BRANCH  25  26
ATOM     26  C   UNL     1      -1.442  12.235  17.939  0.00  0.00    +0.000 C 
BRANCH  26  27
ATOM     27  C   UNL     1      -2.275  10.994  18.288  0.00  0.00    +0.000 C 
ATOM     28  C   UNL     1      -3.779  11.306  18.349  0.00  0.00    +0.000 C 
ATOM     29  C   UNL     1      -4.342  11.704  16.987  0.00  0.00    +0.000 C 
ATOM     30  C   UNL     1      -4.022  10.680  15.901  0.00  0.00    +0.000 C 
ATOM     31  C   UNL     1      -2.558  10.244  15.871  0.00  0.00    +0.000 C 
ATOM     32  C   UNL     1      -2.031   9.879  17.260  0.00  0.00    +0.000 C 
ENDBRANCH  26  27
ENDBRANCH  25  26
ENDBRANCH  24  25
BRANCH  24  33
ATOM     33  C   UNL     1       0.439  14.668  19.624  0.00  0.00    +0.000 C 
BRANCH  33  34
ATOM     34  O   UNL     1       1.615  14.667  18.799  0.00  0.00    +0.000 OA
ATOM     35  H   UNL     1       1.951  15.573  18.708  0.00  0.00    +0.000 HD
ENDBRANCH  33  34
BRANCH  33  36
ATOM     36  C   UNL     1      -0.473  15.814  19.177  0.00  0.00    +0.000 C 
BRANCH  36  37
ATOM     37  O   UNL     1       0.240  16.653  18.265  0.00  0.00    +0.000 OA
ATOM     38  H   UNL     1       0.461  16.091  17.496  0.00  0.00    +0.000 HD
ENDBRANCH  36  37
ENDBRANCH  33  36
ENDBRANCH  24  33
ENDBRANCH   6  24
TORSDOF 12
ENDMDL
MODEL 4
REMARK VINA RESULT:      -6.5      8.827     11.650
REMARK  Name = 
REMARK  13 active torsions:
REMARK  status: ('A' for Active; 'I' for Inactive)
REMARK    1  A    between atoms: C_1  and  C_2
REMARK    2  A    between atoms: N_4  and  C_5
REMARK    3  A    between atoms: C_6  and  N_7
REMARK    4  A    between atoms: C_12  and  C_13
REMARK    5  A    between atoms: C_13  and  O_15
REMARK    6  A    between atoms: C_17  and  C_18
REMARK    7  A    between atoms: C_18  and  O_19
REMARK    8  A    between atoms: C_18  and  C_27
REMARK    9  A    between atoms: O_19  and  C_20
REMARK   10  A    between atoms: C_20  and  C_21
REMARK   11  A    between atoms: C_27  and  O_28
REMARK   12  A    between atoms: C_27  and  C_29
REMARK   13  A    between atoms: C_29  and  O_30
REMARK                            x       y       z     vdW  Elec       q    Type
REMARK                         _______ _______ _______ _____ _____    ______ ____
ROOT
ATOM      1  C   UNL     1      -2.869  12.617  20.928  0.00  0.00    +0.000 C 
ATOM      2  C   UNL     1      -2.608  12.491  22.467  0.00  0.00    +0.000 C 
ATOM      3  C   UNL     1      -1.517  11.550  22.840  0.00  0.00    +0.000 C 
ATOM      4  C   UNL     1      -0.763  10.930  21.927  0.00  0.00    +0.000 C 
ATOM      5  O   UNL     1      -0.945  11.080  20.571  0.00  0.00    +0.000 OA
ATOM      6  C   UNL     1      -1.553  12.326  20.142  0.00  0.00    +0.000 C 
ENDROOT
BRANCH   2   7
ATOM      7  N   UNL     1      -3.833  12.164  23.199  0.00  0.00    +0.000 N 
ATOM      8  C   UNL     1      -4.336  12.873  24.230  0.00  0.00    +0.000 C 
ATOM      9  N   UNL     1      -4.248  14.127  24.465  0.00  0.00    +0.000 NA
ATOM     10  N   UNL     1      -5.017  12.091  25.086  0.00  0.00    +0.000 N 
ATOM     11  H   UNL     1      -3.833  11.170  23.414  0.00  0.00    +0.000 HD
ATOM     12  H   UNL     1      -3.771  14.590  23.694  0.00  0.00    +0.000 HD
ATOM     13  H   UNL     1      -5.737  11.552  24.619  0.00  0.00    +0.000 HD
ATOM     14  H   UNL     1      -5.453  12.686  25.788  0.00  0.00    +0.000 HD
ENDBRANCH   2   7
BRANCH   1  18
ATOM     15  C   UNL     1      -5.363  15.452  20.146  0.00  0.00    +0.000 C 
ATOM     16  C   UNL     1      -4.941  14.085  20.623  0.00  0.00    +0.000 C 
ATOM     17  O   UNL     1      -5.761  13.254  20.991  0.00  0.00    +0.000 OA
ATOM     18  N   UNL     1      -3.584  13.862  20.550  0.00  0.00    +0.000 N 
ATOM     19  H   UNL     1      -3.006  14.697  20.541  0.00  0.00    +0.000 HD
ENDBRANCH   1  18
BRANCH   4  20
ATOM     20  C   UNL     1       0.314  10.013  22.407  0.00  0.00    +0.000 C 
ATOM     21  O   UNL     1       1.186   9.536  21.704  0.00  0.00    +0.000 OA
BRANCH  20  22
ATOM     22  O   UNL     1       0.192   9.755  23.727  0.00  0.00    +0.000 OA
ATOM     23  H   UNL     1       0.196  10.572  24.261  0.00  0.00    +0.000 HD
ENDBRANCH  20  22
ENDBRANCH   4  20
BRANCH   6  24
ATOM     24  C   UNL     1      -1.761  12.172  18.597  0.00  0.00    +0.000 C 
BRANCH  24  25
ATOM     25  O   UNL     1      -0.764  12.968  17.921  0.00  0.00    +0.000 OA
BRANCH  25  26
ATOM     26  C   UNL     1      -0.192  13.996  18.730  0.00  0.00    +0.000 C 
BRANCH  26  27
ATOM     27  C   UNL     1       1.313  14.123  18.457  0.00  0.00    +0.000 C 
ATOM     28  C   UNL     1       1.881  15.460  18.959  0.00  0.00    +0.000 C 
ATOM     29  C   UNL     1       1.814  15.583  20.478  0.00  0.00    +0.000 C 
ATOM     30  C   UNL     1       2.458  14.396  21.189  0.00  0.00    +0.000 C 
ATOM     31  C   UNL     1       2.016  13.036  20.651  0.00  0.00    +0.000 C 
ATOM     32  C   UNL     1       2.076  12.967  19.124  0.00  0.00    +0.000 C 
ENDBRANCH  26  27
ENDBRANCH  25  26
ENDBRANCH  24  25
BRANCH  24  33
ATOM     33  C   UNL     1      -1.743  10.683  18.096  0.00  0.00    +0.000 C 
BRANCH  33  34
ATOM     34  O   UNL     1      -2.625   9.831  18.844  0.00  0.00    +0.000 OA
ATOM     35  H   UNL     1      -3.333  10.362  19.244  0.00  0.00    +0.000 HD
ENDBRANCH  33  34
BRANCH  33  36
ATOM     36  C   UNL     1      -1.988  10.453  16.603  0.00  0.00    +0.000 C 
BRANCH  36  37
ATOM     37  O   UNL     1      -2.409  11.679  16.002  0.00  0.00    +0.000 OA
ATOM     38  H   UNL     1      -2.774  12.226  16.726  0.00  0.00    +0.000 HD
ENDBRANCH  36  37
ENDBRANCH  33  36
ENDBRANCH  24  33
ENDBRANCH   6  24
TORSDOF 12
ENDMDL
MODEL 5
REMARK VINA RESULT:      -6.4      8.865     11.803
REMARK  Name = 
REMARK  13 active torsions:
REMARK  status: ('A' for Active; 'I' for Inactive)
REMARK    1  A    between atoms: C_1  and  C_2
REMARK    2  A    between atoms: N_4  and  C_5
REMARK    3  A    between atoms: C_6  and  N_7
REMARK    4  A    between atoms: C_12  and  C_13
REMARK    5  A    between atoms: C_13  and  O_15
REMARK    6  A    between atoms: C_17  and  C_18
REMARK    7  A    between atoms: C_18  and  O_19
REMARK    8  A    between atoms: C_18  and  C_27
REMARK    9  A    between atoms: O_19  and  C_20
REMARK   10  A    between atoms: C_20  and  C_21
REMARK   11  A    between atoms: C_27  and  O_28
REMARK   12  A    between atoms: C_27  and  C_29
REMARK   13  A    between atoms: C_29  and  O_30
REMARK                            x       y       z     vdW  Elec       q    Type
REMARK                         _______ _______ _______ _____ _____    ______ ____
ROOT
ATOM      1  C   UNL     1      -2.672  12.695  21.349  0.00  0.00    +0.000 C 
ATOM      2  C   UNL     1      -2.529  12.359  22.872  0.00  0.00    +0.000 C 
ATOM      3  C   UNL     1      -1.527  11.305  23.187  0.00  0.00    +0.000 C 
ATOM      4  C   UNL     1      -0.749  10.754  22.250  0.00  0.00    +0.000 C 
ATOM      5  O   UNL     1      -0.825  11.084  20.917  0.00  0.00    +0.000 OA
ATOM      6  C   UNL     1      -1.323  12.414  20.616  0.00  0.00    +0.000 C 
ENDROOT
BRANCH   2   7
ATOM      7  N   UNL     1      -3.821  12.029  23.477  0.00  0.00    +0.000 N 
ATOM      8  C   UNL     1      -4.528  12.838  24.292  0.00  0.00    +0.000 C 
ATOM      9  N   UNL     1      -4.574  14.116  24.317  0.00  0.00    +0.000 NA
ATOM     10  N   UNL     1      -5.266  12.137  25.171  0.00  0.00    +0.000 N 
ATOM     11  H   UNL     1      -3.775  11.088  23.859  0.00  0.00    +0.000 HD
ATOM     12  H   UNL     1      -4.024  14.496  23.549  0.00  0.00    +0.000 HD
ATOM     13  H   UNL     1      -5.863  11.460  24.711  0.00  0.00    +0.000 HD
ATOM     14  H   UNL     1      -5.848  12.789  25.694  0.00  0.00    +0.000 HD
ENDBRANCH   2   7
BRANCH   1  18
ATOM     15  C   UNL     1      -4.893  15.737  20.522  0.00  0.00    +0.000 C 
ATOM     16  C   UNL     1      -4.585  14.275  20.729  0.00  0.00    +0.000 C 
ATOM     17  O   UNL     1      -5.429  13.410  20.537  0.00  0.00    +0.000 OA
ATOM     18  N   UNL     1      -3.281  14.025  21.092  0.00  0.00    +0.000 N 
ATOM     19  H   UNL     1      -2.790  14.805  21.519  0.00  0.00    +0.000 HD
ENDBRANCH   1  18
BRANCH   4  20
ATOM     20  C   UNL     1       0.233   9.711  22.674  0.00  0.00    +0.000 C 
ATOM     21  O   UNL     1       0.601   9.526  23.819  0.00  0.00    +0.000 OA
BRANCH  20  22
ATOM     22  O   UNL     1       0.688   9.002  21.618  0.00  0.00    +0.000 OA
ATOM     23  H   UNL     1       0.474   8.053  21.695  0.00  0.00    +0.000 HD
ENDBRANCH  20  22
ENDBRANCH   4  20
BRANCH   6  24
ATOM     24  C   UNL     1      -1.431  12.470  19.054  0.00  0.00    +0.000 C 
BRANCH  24  25
ATOM     25  O   UNL     1      -0.132  12.173  18.497  0.00  0.00    +0.000 OA
BRANCH  25  26
ATOM     26  C   UNL     1       0.954  12.787  19.191  0.00  0.00    +0.000 C 
BRANCH  26  27
ATOM     27  C   UNL     1       1.512  13.967  18.383  0.00  0.00    +0.000 C 
ATOM     28  C   UNL     1       0.918  15.310  18.834  0.00  0.00    +0.000 C 
ATOM     29  C   UNL     1       1.323  15.671  20.261  0.00  0.00    +0.000 C 
ATOM     30  C   UNL     1       2.835  15.627  20.467  0.00  0.00    +0.000 C 
ATOM     31  C   UNL     1       3.498  14.360  19.929  0.00  0.00    +0.000 C 
ATOM     32  C   UNL     1       3.043  14.024  18.508  0.00  0.00    +0.000 C 
ENDBRANCH  26  27
ENDBRANCH  25  26
ENDBRANCH  24  25
BRANCH  24  33
ATOM     33  C   UNL     1      -2.540  11.531  18.457  0.00  0.00    +0.000 C 
BRANCH  33  34
ATOM     34  O   UNL     1      -3.776  12.217  18.202  0.00  0.00    +0.000 OA
ATOM     35  H   UNL     1      -3.673  13.162  18.401  0.00  0.00    +0.000 HD
ENDBRANCH  33  34
BRANCH  33  36
ATOM     36  C   UNL     1      -2.164  10.720  17.214  0.00  0.00    +0.000 C 
BRANCH  36  37
ATOM     37  O   UNL     1      -2.183  11.577  16.071  0.00  0.00    +0.000 OA
ATOM     38  H   UNL     1      -1.249  11.706  15.811  0.00  0.00    +0.000 HD
ENDBRANCH  36  37
ENDBRANCH  33  36
ENDBRANCH  24  33
ENDBRANCH   6  24
TORSDOF 12
ENDMDL
MODEL 6
REMARK VINA RESULT:      -6.4      2.147      6.434
REMARK  Name = 
REMARK  13 active torsions:
REMARK  status: ('A' for Active; 'I' for Inactive)
REMARK    1  A    between atoms: C_1  and  C_2
REMARK    2  A    between atoms: N_4  and  C_5
REMARK    3  A    between atoms: C_6  and  N_7
REMARK    4  A    between atoms: C_12  and  C_13
REMARK    5  A    between atoms: C_13  and  O_15
REMARK    6  A    between atoms: C_17  and  C_18
REMARK    7  A    between atoms: C_18  and  O_19
REMARK    8  A    between atoms: C_18  and  C_27
REMARK    9  A    between atoms: O_19  and  C_20
REMARK   10  A    between atoms: C_20  and  C_21
REMARK   11  A    between atoms: C_27  and  O_28
REMARK   12  A    between atoms: C_27  and  C_29
REMARK   13  A    between atoms: C_29  and  O_30
REMARK                            x       y       z     vdW  Elec       q    Type
REMARK                         _______ _______ _______ _____ _____    ______ ____
ROOT
ATOM      1  C   UNL     1       3.877   4.757  18.821  0.00  0.00    +0.000 C 
ATOM      2  C   UNL     1       2.454   4.994  19.429  0.00  0.00    +0.000 C 
ATOM      3  C   UNL     1       1.924   6.374  19.257  0.00  0.00    +0.000 C 
ATOM      4  C   UNL     1       2.576   7.310  18.561  0.00  0.00    +0.000 C 
ATOM      5  O   UNL     1       3.801   7.095  17.972  0.00  0.00    +0.000 OA
ATOM      6  C   UNL     1       4.105   5.721  17.615  0.00  0.00    +0.000 C 
ENDROOT
BRANCH   2   7
ATOM      7  N   UNL     1       2.394   4.599  20.837  0.00  0.00    +0.000 N 
ATOM      8  C   UNL     1       2.232   3.337  21.285  0.00  0.00    +0.000 C 
ATOM      9  N   UNL     1       2.599   2.237  20.746  0.00  0.00    +0.000 NA
ATOM     10  N   UNL     1       1.595   3.307  22.469  0.00  0.00    +0.000 N 
ATOM     11  H   UNL     1       1.776   5.237  21.332  0.00  0.00    +0.000 HD
ATOM     12  H   UNL     1       3.131   2.429  19.899  0.00  0.00    +0.000 HD
ATOM     13  H   UNL     1       2.048   3.891  23.160  0.00  0.00    +0.000 HD
ATOM     14  H   UNL     1       1.583   2.346  22.804  0.00  0.00    +0.000 HD
ENDBRANCH   2   7
BRANCH   1  18
ATOM     15  C   UNL     1       4.020   1.059  17.737  0.00  0.00    +0.000 C 
ATOM     16  C   UNL     1       3.464   2.461  17.774  0.00  0.00    +0.000 C 
ATOM     17  O   UNL     1       2.437   2.758  17.177  0.00  0.00    +0.000 OA
ATOM     18  N   UNL     1       4.181   3.326  18.569  0.00  0.00    +0.000 N 
ATOM     19  H   UNL     1       5.148   3.062  18.739  0.00  0.00    +0.000 HD
ENDBRANCH   1  18
BRANCH   4  20
ATOM     20  C   UNL     1       1.951   8.662  18.439  0.00  0.00    +0.000 C 
ATOM     21  O   UNL     1       2.025   9.377  17.457  0.00  0.00    +0.000 OA
BRANCH  20  22
ATOM     22  O   UNL     1       1.304   9.012  19.572  0.00  0.00    +0.000 OA
ATOM     23  H   UNL     1       1.703   9.796  19.993  0.00  0.00    +0.000 HD
ENDBRANCH  20  22
ENDBRANCH   4  20
BRANCH   6  24
ATOM     24  C   UNL     1       5.585   5.748  17.100  0.00  0.00    +0.000 C 
BRANCH  24  25
ATOM     25  O   UNL     1       5.643   6.585  15.925  0.00  0.00    +0.000 OA
BRANCH  25  26
ATOM     26  C   UNL     1       5.615   5.863  14.693  0.00  0.00    +0.000 C 
BRANCH  26  27
ATOM     27  C   UNL     1       6.622   4.705  14.724  0.00  0.00    +0.000 C 
ATOM     28  C   UNL     1       6.043   3.418  14.115  0.00  0.00    +0.000 C 
ATOM     29  C   UNL     1       5.758   3.563  12.622  0.00  0.00    +0.000 C 
ATOM     30  C   UNL     1       6.973   4.058  11.842  0.00  0.00    +0.000 C 
ATOM     31  C   UNL     1       7.662   5.269  12.469  0.00  0.00    +0.000 C 
ATOM     32  C   UNL     1       7.904   5.090  13.969  0.00  0.00    +0.000 C 
ENDBRANCH  26  27
ENDBRANCH  25  26
ENDBRANCH  24  25
BRANCH  24  33
ATOM     33  C   UNL     1       6.629   6.205  18.182  0.00  0.00    +0.000 C 
BRANCH  33  34
ATOM     34  O   UNL     1       7.141   5.112  18.961  0.00  0.00    +0.000 OA
ATOM     35  H   UNL     1       7.148   4.303  18.426  0.00  0.00    +0.000 HD
ENDBRANCH  33  34
BRANCH  33  36
ATOM     36  C   UNL     1       7.806   7.052  17.692  0.00  0.00    +0.000 C 
BRANCH  36  37
ATOM     37  O   UNL     1       7.321   8.325  17.260  0.00  0.00    +0.000 OA
ATOM     38  H   UNL     1       6.829   8.700  18.018  0.00  0.00    +0.000 HD
ENDBRANCH  36  37
ENDBRANCH  33  36
ENDBRANCH  24  33
ENDBRANCH   6  24
TORSDOF 12
ENDMDL
MODEL 7
REMARK VINA RESULT:      -6.4      4.082      7.066
REMARK  Name = 
REMARK  13 active torsions:
REMARK  status: ('A' for Active; 'I' for Inactive)
REMARK    1  A    between atoms: C_1  and  C_2
REMARK    2  A    between atoms: N_4  and  C_5
REMARK    3  A    between atoms: C_6  and  N_7
REMARK    4  A    between atoms: C_12  and  C_13
REMARK    5  A    between atoms: C_13  and  O_15
REMARK    6  A    between atoms: C_17  and  C_18
REMARK    7  A    between atoms: C_18  and  O_19
REMARK    8  A    between atoms: C_18  and  C_27
REMARK    9  A    between atoms: O_19  and  C_20
REMARK   10  A    between atoms: C_20  and  C_21
REMARK   11  A    between atoms: C_27  and  O_28
REMARK   12  A    between atoms: C_27  and  C_29
REMARK   13  A    between atoms: C_29  and  O_30
REMARK                            x       y       z     vdW  Elec       q    Type
REMARK                         _______ _______ _______ _____ _____    ______ ____
ROOT
ATOM      1  C   UNL     1       1.001   7.969  19.950  0.00  0.00    +0.000 C 
ATOM      2  C   UNL     1       1.847   6.700  20.305  0.00  0.00    +0.000 C 
ATOM      3  C   UNL     1       2.938   6.388  19.343  0.00  0.00    +0.000 C 
ATOM      4  C   UNL     1       3.227   7.181  18.306  0.00  0.00    +0.000 C 
ATOM      5  O   UNL     1       2.528   8.331  18.018  0.00  0.00    +0.000 OA
ATOM      6  C   UNL     1       1.874   8.978  19.141  0.00  0.00    +0.000 C 
ENDROOT
BRANCH   2   7
ATOM      7  N   UNL     1       1.000   5.524  20.510  0.00  0.00    +0.000 N 
ATOM      8  C   UNL     1       1.438   4.304  20.880  0.00  0.00    +0.000 C 
ATOM      9  N   UNL     1       2.450   3.995  21.599  0.00  0.00    +0.000 NA
ATOM     10  N   UNL     1       0.654   3.325  20.396  0.00  0.00    +0.000 N 
ATOM     11  H   UNL     1       0.346   5.450  19.735  0.00  0.00    +0.000 HD
ATOM     12  H   UNL     1       2.895   4.841  21.950  0.00  0.00    +0.000 HD
ATOM     13  H   UNL     1      -0.319   3.461  20.642  0.00  0.00    +0.000 HD
ATOM     14  H   UNL     1       0.972   2.438  20.781  0.00  0.00    +0.000 HD
ENDBRANCH   2   7
BRANCH   1  18
ATOM     15  C   UNL     1      -0.191   9.644  23.212  0.00  0.00    +0.000 C 
ATOM     16  C   UNL     1       0.818   9.208  22.180  0.00  0.00    +0.000 C 
ATOM     17  O   UNL     1       2.016   9.409  22.332  0.00  0.00    +0.000 OA
ATOM     18  N   UNL     1       0.270   8.535  21.111  0.00  0.00    +0.000 N 
ATOM     19  H   UNL     1      -0.717   8.712  20.945  0.00  0.00    +0.000 HD
ENDBRANCH   1  18
BRANCH   4  20
ATOM     20  C   UNL     1       4.350   6.783  17.405  0.00  0.00    +0.000 C 
ATOM     21  O   UNL     1       4.433   7.074  16.226  0.00  0.00    +0.000 OA
BRANCH  20  22
ATOM     22  O   UNL     1       5.264   6.031  18.056  0.00  0.00    +0.000 OA
ATOM     23  H   UNL     1       5.453   6.377  18.948  0.00  0.00    +0.000 HD
ENDBRANCH  20  22
ENDBRANCH   4  20
BRANCH   6  24
ATOM     24  C   UNL     1       1.057  10.160  18.516  0.00  0.00    +0.000 C 
BRANCH  24  25
ATOM     25  O   UNL     1      -0.345   9.925  18.764  0.00  0.00    +0.000 OA
BRANCH  25  26
ATOM     26  C   UNL     1      -1.218  10.574  17.839  0.00  0.00    +0.000 C 
BRANCH  26  27
ATOM     27  C   UNL     1      -2.305   9.604  17.353  0.00  0.00    +0.000 C 
ATOM     28  C   UNL     1      -3.631   9.798  18.105  0.00  0.00    +0.000 C 
ATOM     29  C   UNL     1      -4.261  11.160  17.825  0.00  0.00    +0.000 C 
ATOM     30  C   UNL     1      -4.414  11.436  16.332  0.00  0.00    +0.000 C 
ATOM     31  C   UNL     1      -3.156  11.148  15.515  0.00  0.00    +0.000 C 
ATOM     32  C   UNL     1      -2.547   9.784  15.847  0.00  0.00    +0.000 C 
ENDBRANCH  26  27
ENDBRANCH  25  26
ENDBRANCH  24  25
BRANCH  24  33
ATOM     33  C   UNL     1       1.501  11.580  19.022  0.00  0.00    +0.000 C 
BRANCH  33  34
ATOM     34  O   UNL     1       1.554  12.557  17.971  0.00  0.00    +0.000 OA
ATOM     35  H   UNL     1       0.972  12.287  17.242  0.00  0.00    +0.000 HD
ENDBRANCH  33  34
BRANCH  33  36
ATOM     36  C   UNL     1       0.720  12.169  20.199  0.00  0.00    +0.000 C 
BRANCH  36  37
ATOM     37  O   UNL     1       1.609  12.363  21.302  0.00  0.00    +0.000 OA
ATOM     38  H   UNL     1       1.393  13.241  21.674  0.00  0.00    +0.000 HD
ENDBRANCH  36  37
ENDBRANCH  33  36
ENDBRANCH  24  33
ENDBRANCH   6  24
TORSDOF 12
ENDMDL
MODEL 8
REMARK VINA RESULT:      -6.4      7.414     10.268
REMARK  Name = 
REMARK  13 active torsions:
REMARK  status: ('A' for Active; 'I' for Inactive)
REMARK    1  A    between atoms: C_1  and  C_2
REMARK    2  A    between atoms: N_4  and  C_5
REMARK    3  A    between atoms: C_6  and  N_7
REMARK    4  A    between atoms: C_12  and  C_13
REMARK    5  A    between atoms: C_13  and  O_15
REMARK    6  A    between atoms: C_17  and  C_18
REMARK    7  A    between atoms: C_18  and  O_19
REMARK    8  A    between atoms: C_18  and  C_27
REMARK    9  A    between atoms: O_19  and  C_20
REMARK   10  A    between atoms: C_20  and  C_21
REMARK   11  A    between atoms: C_27  and  O_28
REMARK   12  A    between atoms: C_27  and  C_29
REMARK   13  A    between atoms: C_29  and  O_30
REMARK                            x       y       z     vdW  Elec       q    Type
REMARK                         _______ _______ _______ _____ _____    ______ ____
ROOT
ATOM      1  C   UNL     1      -2.742  11.654  17.678  0.00  0.00    +0.000 C 
ATOM      2  C   UNL     1      -2.333  10.380  16.865  0.00  0.00    +0.000 C 
ATOM      3  C   UNL     1      -1.025   9.787  17.251  0.00  0.00    +0.000 C 
ATOM      4  C   UNL     1      -0.299  10.255  18.272  0.00  0.00    +0.000 C 
ATOM      5  O   UNL     1      -0.678  11.338  19.031  0.00  0.00    +0.000 OA
ATOM      6  C   UNL     1      -2.103  11.602  19.100  0.00  0.00    +0.000 C 
ENDROOT
BRANCH   2   7
ATOM      7  N   UNL     1      -2.375  10.622  15.421  0.00  0.00    +0.000 N 
ATOM      8  C   UNL     1      -3.350  10.202  14.589  0.00  0.00    +0.000 C 
ATOM      9  N   UNL     1      -4.591  10.011  14.833  0.00  0.00    +0.000 NA
ATOM     10  N   UNL     1      -2.882   9.977  13.349  0.00  0.00    +0.000 N 
ATOM     11  H   UNL     1      -1.458  10.425  15.028  0.00  0.00    +0.000 HD
ATOM     12  H   UNL     1      -4.802  10.295  15.788  0.00  0.00    +0.000 HD
ATOM     13  H   UNL     1      -2.395  10.782  12.974  0.00  0.00    +0.000 HD
ATOM     14  H   UNL     1      -3.670   9.756  12.743  0.00  0.00    +0.000 HD
ENDBRANCH   2   7
BRANCH   1  18
ATOM     15  C   UNL     1      -6.593  11.687  17.867  0.00  0.00    +0.000 C 
ATOM     16  C   UNL     1      -5.212  11.115  18.066  0.00  0.00    +0.000 C 
ATOM     17  O   UNL     1      -5.043   9.994  18.528  0.00  0.00    +0.000 OA
ATOM     18  N   UNL     1      -4.198  11.941  17.634  0.00  0.00    +0.000 N 
ATOM     19  H   UNL     1      -4.434  12.927  17.577  0.00  0.00    +0.000 HD
ENDBRANCH   1  18
BRANCH   4  20
ATOM     20  C   UNL     1       0.996   9.580  18.584  0.00  0.00    +0.000 C 
ATOM     21  O   UNL     1       1.275   9.071  19.654  0.00  0.00    +0.000 OA
BRANCH  20  22
ATOM     22  O   UNL     1       1.842   9.621  17.531  0.00  0.00    +0.000 OA
ATOM     23  H   UNL     1       2.140  10.529  17.337  0.00  0.00    +0.000 HD
ENDBRANCH  20  22
ENDBRANCH   4  20
BRANCH   6  24
ATOM     24  C   UNL     1      -2.235  12.943  19.901  0.00  0.00    +0.000 C 
BRANCH  24  25
ATOM     25  O   UNL     1      -2.755  12.640  21.213  0.00  0.00    +0.000 OA
BRANCH  25  26
ATOM     26  C   UNL     1      -4.149  12.908  21.365  0.00  0.00    +0.000 C 
BRANCH  26  27
ATOM     27  C   UNL     1      -4.378  13.992  22.428  0.00  0.00    +0.000 C 
ATOM     28  C   UNL     1      -5.859  14.118  22.815  0.00  0.00    +0.000 C 
ATOM     29  C   UNL     1      -6.384  12.864  23.510  0.00  0.00    +0.000 C 
ATOM     30  C   UNL     1      -5.523  12.454  24.702  0.00  0.00    +0.000 C 
ATOM     31  C   UNL     1      -4.025  12.425  24.404  0.00  0.00    +0.000 C 
ATOM     32  C   UNL     1      -3.549  13.689  23.686  0.00  0.00    +0.000 C 
ENDBRANCH  26  27
ENDBRANCH  25  26
ENDBRANCH  24  25
BRANCH  24  33
ATOM     33  C   UNL     1      -0.901  13.767  19.988  0.00  0.00    +0.000 C 
BRANCH  33  34
ATOM     34  O   UNL     1      -1.022  15.088  19.436  0.00  0.00    +0.000 OA
ATOM     35  H   UNL     1      -0.307  15.243  18.798  0.00  0.00    +0.000 HD
ENDBRANCH  33  34
BRANCH  33  36
ATOM     36  C   UNL     1      -0.240  13.870  21.364  0.00  0.00    +0.000 C 
BRANCH  36  37
ATOM     37  O   UNL     1       0.184  12.570  21.780  0.00  0.00    +0.000 OA
ATOM     38  H   UNL     1       0.948  12.710  22.375  0.00  0.00    +0.000 HD
ENDBRANCH  36  37
ENDBRANCH  33  36
ENDBRANCH  24  33
ENDBRANCH   6  24
TORSDOF 12
ENDMDL
MODEL 9
REMARK VINA RESULT:      -6.3      8.417     12.303
REMARK  Name = 
REMARK  13 active torsions:
REMARK  status: ('A' for Active; 'I' for Inactive)
REMARK    1  A    between atoms: C_1  and  C_2
REMARK    2  A    between atoms: N_4  and  C_5
REMARK    3  A    between atoms: C_6  and  N_7
REMARK    4  A    between atoms: C_12  and  C_13
REMARK    5  A    between atoms: C_13  and  O_15
REMARK    6  A    between atoms: C_17  and  C_18
REMARK    7  A    between atoms: C_18  and  O_19
REMARK    8  A    between atoms: C_18  and  C_27
REMARK    9  A    between atoms: O_19  and  C_20
REMARK   10  A    between atoms: C_20  and  C_21
REMARK   11  A    between atoms: C_27  and  O_28
REMARK   12  A    between atoms: C_27  and  C_29
REMARK   13  A    between atoms: C_29  and  O_30
REMARK                            x       y       z     vdW  Elec       q    Type
REMARK                         _______ _______ _______ _____ _____    ______ ____
ROOT
ATOM      1  C   UNL     1      -5.026  12.184  19.666  0.00  0.00    +0.000 C 
ATOM      2  C   UNL     1      -6.576  12.409  19.675  0.00  0.00    +0.000 C 
ATOM      3  C   UNL     1      -7.122  12.935  20.956  0.00  0.00    +0.000 C 
ATOM      4  C   UNL     1      -6.337  13.270  21.985  0.00  0.00    +0.000 C 
ATOM      5  O   UNL     1      -4.968  13.131  21.966  0.00  0.00    +0.000 OA
ATOM      6  C   UNL     1      -4.341  13.174  20.657  0.00  0.00    +0.000 C 
ENDROOT
BRANCH   2   7
ATOM      7  N   UNL     1      -7.301  11.204  19.271  0.00  0.00    +0.000 N 
ATOM      8  C   UNL     1      -7.416  10.080  20.008  0.00  0.00    +0.000 C 
ATOM      9  N   UNL     1      -7.430   9.949  21.280  0.00  0.00    +0.000 NA
ATOM     10  N   UNL     1      -7.534   8.987  19.234  0.00  0.00    +0.000 N 
ATOM     11  H   UNL     1      -7.055  10.978  18.310  0.00  0.00    +0.000 HD
ATOM     12  H   UNL     1      -7.408  10.866  21.722  0.00  0.00    +0.000 HD
ATOM     13  H   UNL     1      -8.292   9.073  18.567  0.00  0.00    +0.000 HD
ATOM     14  H   UNL     1      -7.712   8.185  19.835  0.00  0.00    +0.000 HD
ENDBRANCH   2   7
BRANCH   1  18
ATOM     15  C   UNL     1      -3.681  11.294  16.163  0.00  0.00    +0.000 C 
ATOM     16  C   UNL     1      -4.339  11.023  17.492  0.00  0.00    +0.000 C 
ATOM     17  O   UNL     1      -4.691   9.896  17.815  0.00  0.00    +0.000 OA
ATOM     18  N   UNL     1      -4.446  12.133  18.300  0.00  0.00    +0.000 N 
ATOM     19  H   UNL     1      -4.420  13.027  17.817  0.00  0.00    +0.000 HD
ENDBRANCH   1  18
BRANCH   4  20
ATOM     20  C   UNL     1      -6.985  13.798  23.223  0.00  0.00    +0.000 C 
ATOM     21  O   UNL     1      -7.309  13.121  24.182  0.00  0.00    +0.000 OA
BRANCH  20  22
ATOM     22  O   UNL     1      -7.193  15.130  23.143  0.00  0.00    +0.000 OA
ATOM     23  H   UNL     1      -8.011  15.344  22.656  0.00  0.00    +0.000 HD
ENDBRANCH  20  22
ENDBRANCH   4  20
BRANCH   6  24
ATOM     24  C   UNL     1      -2.827  12.861  20.917  0.00  0.00    +0.000 C 
BRANCH  24  25
ATOM     25  O   UNL     1      -2.130  12.910  19.654  0.00  0.00    +0.000 OA
BRANCH  25  26
ATOM     26  C   UNL     1      -0.942  12.118  19.612  0.00  0.00    +0.000 C 
BRANCH  26  27
ATOM     27  C   UNL     1      -1.292  10.625  19.524  0.00  0.00    +0.000 C 
ATOM     28  C   UNL     1      -0.836  10.002  18.195  0.00  0.00    +0.000 C 
ATOM     29  C   UNL     1       0.683   9.990  18.053  0.00  0.00    +0.000 C 
ATOM     30  C   UNL     1       1.376   9.339  19.247  0.00  0.00    +0.000 C 
ATOM     31  C   UNL     1       0.877   9.838  20.602  0.00  0.00    +0.000 C 
ATOM     32  C   UNL     1      -0.650   9.857  20.689  0.00  0.00    +0.000 C 
ENDBRANCH  26  27
ENDBRANCH  25  26
ENDBRANCH  24  25
BRANCH  24  33
ATOM     33  C   UNL     1      -2.155  13.800  21.981  0.00  0.00    +0.000 C 
BRANCH  33  34
ATOM     34  O   UNL     1      -2.976  14.926  22.332  0.00  0.00    +0.000 OA
ATOM     35  H   UNL     1      -2.543  15.747  22.048  0.00  0.00    +0.000 HD
ENDBRANCH  33  34
BRANCH  33  36
ATOM     36  C   UNL     1      -1.653  13.140  23.267  0.00  0.00    +0.000 C 
BRANCH  36  37
ATOM     37  O   UNL     1      -0.305  12.705  23.076  0.00  0.00    +0.000 OA
ATOM     38  H   UNL     1       0.120  12.741  23.957  0.00  0.00    +0.000 HD
ENDBRANCH  36  37
ENDBRANCH  33  36
ENDBRANCH  24  33
ENDBRANCH   6  24
TORSDOF 12
ENDMDL
