MODEL 1
REMARK VINA RESULT:      -6.9      0.000      0.000
REMARK  Name = 
REMARK  2 active torsions:
REMARK  status: ('A' for Active; 'I' for Inactive)
REMARK    1  A    between atoms: C_5  and  N_6
REMARK    2  A    between atoms: C_12  and  N_13
REMARK                            x       y       z     vdW  Elec       q    Type
REMARK                         _______ _______ _______ _____ _____    ______ ____
ROOT
ATOM      1  O   UNL     1       7.966   5.376  20.238  0.00  0.00    +0.000 OA
ATOM      2  S   UNL     1       7.522   5.850  18.943  0.00  0.00    +0.000 S 
ATOM      3  O   UNL     1       7.914   7.153  18.440  0.00  0.00    +0.000 OA
ATOM      4  C   UNL     1       7.907   4.598  17.736  0.00  0.00    +0.000 C 
ATOM      5  C   UNL     1       6.562   4.095  17.166  0.00  0.00    +0.000 C 
ATOM      6  C   UNL     1       5.490   4.313  18.312  0.00  0.00    +0.000 C 
ATOM      7  C   UNL     1       5.766   5.715  18.876  0.00  0.00    +0.000 C 
ENDROOT
BRANCH   5   8
ATOM      8  N   UNL     1       6.264   4.560  15.770  0.00  0.00    +0.000 NA
ATOM      9  C   UNL     1       7.428   5.092  15.045  0.00  0.00    +0.000 C 
ATOM     10  C   UNL     1       7.340   5.175  13.518  0.00  0.00    +0.000 C 
ATOM     11  C   UNL     1       6.711   3.935  12.909  0.00  0.00    +0.000 C 
ATOM     12  C   UNL     1       5.351   3.731  13.547  0.00  0.00    +0.000 C 
ATOM     13  C   UNL     1       5.502   3.522  15.051  0.00  0.00    +0.000 C 
ENDBRANCH   5   8
BRANCH   6  14
ATOM     14  N   UNL     1       4.071   4.079  17.940  0.00  0.00    +0.000 NA
ATOM     15  C   UNL     1       3.628   2.711  18.282  0.00  0.00    +0.000 C 
ATOM     16  C   UNL     1       2.200   2.431  17.792  0.00  0.00    +0.000 C 
ATOM     17  C   UNL     1       1.203   3.492  18.243  0.00  0.00    +0.000 C 
ATOM     18  C   UNL     1       1.746   4.887  17.975  0.00  0.00    +0.000 C 
ATOM     19  C   UNL     1       3.146   5.049  18.558  0.00  0.00    +0.000 C 
ENDBRANCH   6  14
TORSDOF 2
ENDMDL
MODEL 2
REMARK VINA RESULT:      -6.5      3.432      5.711
REMARK  Name = 
REMARK  2 active torsions:
REMARK  status: ('A' for Active; 'I' for Inactive)
REMARK    1  A    between atoms: C_5  and  N_6
REMARK    2  A    between atoms: C_12  and  N_13
REMARK                            x       y       z     vdW  Elec       q    Type
REMARK                         _______ _______ _______ _____ _____    ______ ____
ROOT
ATOM      1  O   UNL     1       6.294   6.922  17.282  0.00  0.00    +0.000 OA
ATOM      2  S   UNL     1       5.094   6.118  17.176  0.00  0.00    +0.000 S 
ATOM      3  O   UNL     1       4.937   5.129  16.126  0.00  0.00    +0.000 OA
ATOM      4  C   UNL     1       4.792   5.365  18.761  0.00  0.00    +0.000 C 
ATOM      5  C   UNL     1       3.453   5.932  19.280  0.00  0.00    +0.000 C 
ATOM      6  C   UNL     1       3.302   7.369  18.629  0.00  0.00    +0.000 C 
ATOM      7  C   UNL     1       3.703   7.199  17.155  0.00  0.00    +0.000 C 
ENDROOT
BRANCH   5   8
ATOM      8  N   UNL     1       2.305   4.967  19.227  0.00  0.00    +0.000 NA
ATOM      9  C   UNL     1       2.452   3.901  18.223  0.00  0.00    +0.000 C 
ATOM     10  C   UNL     1       1.586   2.648  18.381  0.00  0.00    +0.000 C 
ATOM     11  C   UNL     1       1.515   2.174  19.822  0.00  0.00    +0.000 C 
ATOM     12  C   UNL     1       1.015   3.323  20.675  0.00  0.00    +0.000 C 
ATOM     13  C   UNL     1       1.981   4.501  20.588  0.00  0.00    +0.000 C 
ENDBRANCH   5   8
BRANCH   6  14
ATOM     14  N   UNL     1       1.995   8.048  18.826  0.00  0.00    +0.000 NA
ATOM     15  C   UNL     1       1.763   8.399  20.243  0.00  0.00    +0.000 C 
ATOM     16  C   UNL     1       0.366   8.994  20.466  0.00  0.00    +0.000 C 
ATOM     17  C   UNL     1       0.062  10.154  19.524  0.00  0.00    +0.000 C 
ATOM     18  C   UNL     1       0.419   9.790  18.092  0.00  0.00    +0.000 C 
ATOM     19  C   UNL     1       1.848   9.264  18.003  0.00  0.00    +0.000 C 
ENDBRANCH   6  14
TORSDOF 2
ENDMDL
MODEL 3
REMARK VINA RESULT:      -6.4      3.137      4.563
REMARK  Name = 
REMARK  2 active torsions:
REMARK  status: ('A' for Active; 'I' for Inactive)
REMARK    1  A    between atoms: C_5  and  N_6
REMARK    2  A    between atoms: C_12  and  N_13
REMARK                            x       y       z     vdW  Elec       q    Type
REMARK                         _______ _______ _______ _____ _____    ______ ____
ROOT
ATOM      1  O   UNL     1       2.104   1.776  19.780  0.00  0.00    +0.000 OA
ATOM      2  S   UNL     1       3.334   2.540  19.723  0.00  0.00    +0.000 S 
ATOM      3  O   UNL     1       4.551   2.062  20.351  0.00  0.00    +0.000 OA
ATOM      4  C   UNL     1       3.655   2.942  18.017  0.00  0.00    +0.000 C 
ATOM      5  C   UNL     1       3.586   4.480  17.898  0.00  0.00    +0.000 C 
ATOM      6  C   UNL     1       2.601   4.966  19.040  0.00  0.00    +0.000 C 
ATOM      7  C   UNL     1       2.999   4.173  20.294  0.00  0.00    +0.000 C 
ENDROOT
BRANCH   5   8
ATOM      8  N   UNL     1       4.917   5.152  17.727  0.00  0.00    +0.000 NA
ATOM      9  C   UNL     1       5.696   5.283  18.968  0.00  0.00    +0.000 C 
ATOM     10  C   UNL     1       7.201   5.537  18.842  0.00  0.00    +0.000 C 
ATOM     11  C   UNL     1       7.842   4.682  17.764  0.00  0.00    +0.000 C 
ATOM     12  C   UNL     1       7.111   4.936  16.460  0.00  0.00    +0.000 C 
ATOM     13  C   UNL     1       5.642   4.543  16.596  0.00  0.00    +0.000 C 
ENDBRANCH   5   8
BRANCH   6  14
ATOM     14  N   UNL     1       2.514   6.434  19.254  0.00  0.00    +0.000 NA
ATOM     15  C   UNL     1       2.126   7.150  18.021  0.00  0.00    +0.000 C 
ATOM     16  C   UNL     1       2.149   8.673  18.210  0.00  0.00    +0.000 C 
ATOM     17  C   UNL     1       1.345   9.129  19.423  0.00  0.00    +0.000 C 
ATOM     18  C   UNL     1       1.693   8.293  20.643  0.00  0.00    +0.000 C 
ATOM     19  C   UNL     1       1.579   6.803  20.335  0.00  0.00    +0.000 C 
ENDBRANCH   6  14
TORSDOF 2
ENDMDL
MODEL 4
REMARK VINA RESULT:      -6.4      3.497      4.934
REMARK  Name = 
REMARK  2 active torsions:
REMARK  status: ('A' for Active; 'I' for Inactive)
REMARK    1  A    between atoms: C_5  and  N_6
REMARK    2  A    between atoms: C_12  and  N_13
REMARK                            x       y       z     vdW  Elec       q    Type
REMARK                         _______ _______ _______ _____ _____    ______ ____
ROOT
ATOM      1  O   UNL     1       1.695   2.196  19.798  0.00  0.00    +0.000 OA
ATOM      2  S   UNL     1       2.921   2.944  19.995  0.00  0.00    +0.000 S 
ATOM      3  O   UNL     1       4.018   2.404  20.775  0.00  0.00    +0.000 OA
ATOM      4  C   UNL     1       3.514   3.461  18.397  0.00  0.00    +0.000 C 
ATOM      5  C   UNL     1       3.470   5.004  18.380  0.00  0.00    +0.000 C 
ATOM      6  C   UNL     1       2.315   5.423  19.381  0.00  0.00    +0.000 C 
ATOM      7  C   UNL     1       2.503   4.537  20.622  0.00  0.00    +0.000 C 
ENDROOT
BRANCH   5   8
ATOM      8  N   UNL     1       4.813   5.667  18.475  0.00  0.00    +0.000 NA
ATOM      9  C   UNL     1       5.935   4.741  18.694  0.00  0.00    +0.000 C 
ATOM     10  C   UNL     1       7.347   5.240  18.370  0.00  0.00    +0.000 C 
ATOM     11  C   UNL     1       7.397   6.019  17.068  0.00  0.00    +0.000 C 
ATOM     12  C   UNL     1       6.398   7.156  17.157  0.00  0.00    +0.000 C 
ATOM     13  C   UNL     1       4.989   6.603  17.348  0.00  0.00    +0.000 C 
ENDBRANCH   5   8
BRANCH   6  14
ATOM     14  N   UNL     1       2.199   6.873  19.684  0.00  0.00    +0.000 NA
ATOM     15  C   UNL     1       1.810   7.657  18.493  0.00  0.00    +0.000 C 
ATOM     16  C   UNL     1       1.804   9.165  18.776  0.00  0.00    +0.000 C 
ATOM     17  C   UNL     1       0.981   9.531  20.006  0.00  0.00    +0.000 C 
ATOM     18  C   UNL     1       1.333   8.628  21.176  0.00  0.00    +0.000 C 
ATOM     19  C   UNL     1       1.249   7.158  20.775  0.00  0.00    +0.000 C 
ENDBRANCH   6  14
TORSDOF 2
ENDMDL
MODEL 5
REMARK VINA RESULT:      -6.3      3.859      6.430
REMARK  Name = 
REMARK  2 active torsions:
REMARK  status: ('A' for Active; 'I' for Inactive)
REMARK    1  A    between atoms: C_5  and  N_6
REMARK    2  A    between atoms: C_12  and  N_13
REMARK                            x       y       z     vdW  Elec       q    Type
REMARK                         _______ _______ _______ _____ _____    ______ ____
ROOT
ATOM      1  O   UNL     1       1.861   2.620  18.432  0.00  0.00    +0.000 OA
ATOM      2  S   UNL     1       1.761   4.027  18.102  0.00  0.00    +0.000 S 
ATOM      3  O   UNL     1       0.810   4.507  17.118  0.00  0.00    +0.000 OA
ATOM      4  C   UNL     1       1.567   4.937  19.621  0.00  0.00    +0.000 C 
ATOM      5  C   UNL     1       2.812   5.838  19.766  0.00  0.00    +0.000 C 
ATOM      6  C   UNL     1       3.983   5.099  18.998  0.00  0.00    +0.000 C 
ATOM      7  C   UNL     1       3.368   4.612  17.677  0.00  0.00    +0.000 C 
ENDROOT
BRANCH   5   8
ATOM      8  N   UNL     1       2.559   7.296  19.512  0.00  0.00    +0.000 NA
ATOM      9  C   UNL     1       2.238   7.623  18.114  0.00  0.00    +0.000 C 
ATOM     10  C   UNL     1       1.547   8.961  17.834  0.00  0.00    +0.000 C 
ATOM     11  C   UNL     1       0.447   9.262  18.837  0.00  0.00    +0.000 C 
ATOM     12  C   UNL     1       1.047   9.211  20.229  0.00  0.00    +0.000 C 
ATOM     13  C   UNL     1       1.606   7.819  20.509  0.00  0.00    +0.000 C 
ENDBRANCH   5   8
BRANCH   6  14
ATOM     14  N   UNL     1       5.248   5.862  18.832  0.00  0.00    +0.000 NA
ATOM     15  C   UNL     1       6.425   5.083  19.271  0.00  0.00    +0.000 C 
ATOM     16  C   UNL     1       7.716   5.911  19.210  0.00  0.00    +0.000 C 
ATOM     17  C   UNL     1       7.930   6.569  17.852  0.00  0.00    +0.000 C 
ATOM     18  C   UNL     1       6.662   7.264  17.385  0.00  0.00    +0.000 C 
ATOM     19  C   UNL     1       5.467   6.317  17.445  0.00  0.00    +0.000 C 
ENDBRANCH   6  14
TORSDOF 2
ENDMDL
MODEL 6
REMARK VINA RESULT:      -6.0      2.518      4.444
REMARK  Name = 
REMARK  2 active torsions:
REMARK  status: ('A' for Active; 'I' for Inactive)
REMARK    1  A    between atoms: C_5  and  N_6
REMARK    2  A    between atoms: C_12  and  N_13
REMARK                            x       y       z     vdW  Elec       q    Type
REMARK                         _______ _______ _______ _____ _____    ______ ____
ROOT
ATOM      1  O   UNL     1       7.704   5.871  15.327  0.00  0.00    +0.000 OA
ATOM      2  S   UNL     1       6.648   4.898  15.521  0.00  0.00    +0.000 S 
ATOM      3  O   UNL     1       6.392   3.856  14.545  0.00  0.00    +0.000 OA
ATOM      4  C   UNL     1       6.854   4.175  17.135  0.00  0.00    +0.000 C 
ATOM      5  C   UNL     1       5.610   4.564  17.963  0.00  0.00    +0.000 C 
ATOM      6  C   UNL     1       5.093   5.936  17.363  0.00  0.00    +0.000 C 
ATOM      7  C   UNL     1       5.147   5.766  15.837  0.00  0.00    +0.000 C 
ENDROOT
BRANCH   5   8
ATOM      8  N   UNL     1       4.640   3.442  18.196  0.00  0.00    +0.000 NA
ATOM      9  C   UNL     1       4.241   3.264  19.601  0.00  0.00    +0.000 C 
ATOM     10  C   UNL     1       2.962   2.471  19.885  0.00  0.00    +0.000 C 
ATOM     11  C   UNL     1       1.835   2.836  18.935  0.00  0.00    +0.000 C 
ATOM     12  C   UNL     1       2.328   2.633  17.515  0.00  0.00    +0.000 C 
ATOM     13  C   UNL     1       3.522   3.541  17.238  0.00  0.00    +0.000 C 
ENDBRANCH   5   8
BRANCH   6  14
ATOM     14  N   UNL     1       3.786   6.428  17.871  0.00  0.00    +0.000 NA
ATOM     15  C   UNL     1       3.693   6.327  19.343  0.00  0.00    +0.000 C 
ATOM     16  C   UNL     1       2.302   6.725  19.858  0.00  0.00    +0.000 C 
ATOM     17  C   UNL     1       1.848   8.084  19.340  0.00  0.00    +0.000 C 
ATOM     18  C   UNL     1       2.065   8.187  17.839  0.00  0.00    +0.000 C 
ATOM     19  C   UNL     1       3.498   7.818  17.468  0.00  0.00    +0.000 C 
ENDBRANCH   6  14
TORSDOF 2
ENDMDL
MODEL 7
REMARK VINA RESULT:      -5.9      2.724      4.247
REMARK  Name = 
REMARK  2 active torsions:
REMARK  status: ('A' for Active; 'I' for Inactive)
REMARK    1  A    between atoms: C_5  and  N_6
REMARK    2  A    between atoms: C_12  and  N_13
REMARK                            x       y       z     vdW  Elec       q    Type
REMARK                         _______ _______ _______ _____ _____    ______ ____
ROOT
ATOM      1  O   UNL     1       5.054   4.064  13.521  0.00  0.00    +0.000 OA
ATOM      2  S   UNL     1       5.808   4.359  14.722  0.00  0.00    +0.000 S 
ATOM      3  O   UNL     1       7.243   4.153  14.783  0.00  0.00    +0.000 OA
ATOM      4  C   UNL     1       5.417   6.022  15.225  0.00  0.00    +0.000 C 
ATOM      5  C   UNL     1       4.720   5.922  16.600  0.00  0.00    +0.000 C 
ATOM      6  C   UNL     1       4.018   4.503  16.635  0.00  0.00    +0.000 C 
ATOM      7  C   UNL     1       5.052   3.516  16.072  0.00  0.00    +0.000 C 
ENDROOT
BRANCH   5   8
ATOM      8  N   UNL     1       5.564   6.365  17.760  0.00  0.00    +0.000 NA
ATOM      9  C   UNL     1       5.858   5.305  18.737  0.00  0.00    +0.000 C 
ATOM     10  C   UNL     1       7.037   5.520  19.690  0.00  0.00    +0.000 C 
ATOM     11  C   UNL     1       8.249   6.102  18.985  0.00  0.00    +0.000 C 
ATOM     12  C   UNL     1       7.828   7.388  18.302  0.00  0.00    +0.000 C 
ATOM     13  C   UNL     1       6.743   7.103  17.267  0.00  0.00    +0.000 C 
ENDBRANCH   5   8
BRANCH   6  14
ATOM     14  N   UNL     1       3.434   4.089  17.937  0.00  0.00    +0.000 NA
ATOM     15  C   UNL     1       2.241   4.890  18.288  0.00  0.00    +0.000 C 
ATOM     16  C   UNL     1       1.707   4.543  19.684  0.00  0.00    +0.000 C 
ATOM     17  C   UNL     1       1.477   3.048  19.873  0.00  0.00    +0.000 C 
ATOM     18  C   UNL     1       2.683   2.254  19.397  0.00  0.00    +0.000 C 
ATOM     19  C   UNL     1       3.077   2.658  17.979  0.00  0.00    +0.000 C 
ENDBRANCH   6  14
TORSDOF 2
ENDMDL
MODEL 8
REMARK VINA RESULT:      -5.8      3.306      4.766
REMARK  Name = 
REMARK  2 active torsions:
REMARK  status: ('A' for Active; 'I' for Inactive)
REMARK    1  A    between atoms: C_5  and  N_6
REMARK    2  A    between atoms: C_12  and  N_13
REMARK                            x       y       z     vdW  Elec       q    Type
REMARK                         _______ _______ _______ _____ _____    ______ ____
ROOT
ATOM      1  O   UNL     1       2.408   1.690  18.528  0.00  0.00    +0.000 OA
ATOM      2  S   UNL     1       3.334   2.650  19.094  0.00  0.00    +0.000 S 
ATOM      3  O   UNL     1       4.246   2.283  20.160  0.00  0.00    +0.000 OA
ATOM      4  C   UNL     1       4.242   3.395  17.755  0.00  0.00    +0.000 C 
ATOM      5  C   UNL     1       3.876   4.895  17.745  0.00  0.00    +0.000 C 
ATOM      6  C   UNL     1       2.419   4.997  18.358  0.00  0.00    +0.000 C 
ATOM      7  C   UNL     1       2.421   4.075  19.586  0.00  0.00    +0.000 C 
ENDROOT
BRANCH   5   8
ATOM      8  N   UNL     1       4.960   5.804  18.248  0.00  0.00    +0.000 NA
ATOM      9  C   UNL     1       5.907   5.167  19.176  0.00  0.00    +0.000 C 
ATOM     10  C   UNL     1       7.261   5.848  19.393  0.00  0.00    +0.000 C 
ATOM     11  C   UNL     1       7.868   6.352  18.096  0.00  0.00    +0.000 C 
ATOM     12  C   UNL     1       6.866   7.276  17.431  0.00  0.00    +0.000 C 
ATOM     13  C   UNL     1       5.580   6.516  17.115  0.00  0.00    +0.000 C 
ENDBRANCH   5   8
BRANCH   6  14
ATOM     14  N   UNL     1       1.912   6.367  18.631  0.00  0.00    +0.000 NA
ATOM     15  C   UNL     1       2.260   6.824  19.993  0.00  0.00    +0.000 C 
ATOM     16  C   UNL     1       1.638   8.189  20.316  0.00  0.00    +0.000 C 
ATOM     17  C   UNL     1       1.943   9.242  19.257  0.00  0.00    +0.000 C 
ATOM     18  C   UNL     1       1.679   8.695  17.864  0.00  0.00    +0.000 C 
ATOM     19  C   UNL     1       2.396   7.364  17.655  0.00  0.00    +0.000 C 
ENDBRANCH   6  14
TORSDOF 2
ENDMDL
MODEL 9
REMARK VINA RESULT:      -5.8      3.309      5.748
REMARK  Name = 
REMARK  2 active torsions:
REMARK  status: ('A' for Active; 'I' for Inactive)
REMARK    1  A    between atoms: C_5  and  N_6
REMARK    2  A    between atoms: C_12  and  N_13
REMARK                            x       y       z     vdW  Elec       q    Type
REMARK                         _______ _______ _______ _____ _____    ______ ____
ROOT
ATOM      1  O   UNL     1       2.231   1.496  19.168  0.00  0.00    +0.000 OA
ATOM      2  S   UNL     1       1.999   2.907  18.932  0.00  0.00    +0.000 S 
ATOM      3  O   UNL     1       0.656   3.448  18.844  0.00  0.00    +0.000 OA
ATOM      4  C   UNL     1       2.941   3.829  20.131  0.00  0.00    +0.000 C 
ATOM      5  C   UNL     1       3.988   4.647  19.345  0.00  0.00    +0.000 C 
ATOM      6  C   UNL     1       4.279   3.831  18.018  0.00  0.00    +0.000 C 
ATOM      7  C   UNL     1       2.904   3.385  17.498  0.00  0.00    +0.000 C 
ENDROOT
BRANCH   5   8
ATOM      8  N   UNL     1       3.699   6.118  19.266  0.00  0.00    +0.000 NA
ATOM      9  C   UNL     1       3.743   6.675  17.905  0.00  0.00    +0.000 C 
ATOM     10  C   UNL     1       3.049   8.018  17.660  0.00  0.00    +0.000 C 
ATOM     11  C   UNL     1       1.699   8.103  18.350  0.00  0.00    +0.000 C 
ATOM     12  C   UNL     1       1.903   7.828  19.827  0.00  0.00    +0.000 C 
ATOM     13  C   UNL     1       2.473   6.427  20.026  0.00  0.00    +0.000 C 
ENDBRANCH   5   8
BRANCH   6  14
ATOM     14  N   UNL     1       5.120   4.510  16.998  0.00  0.00    +0.000 NA
ATOM     15  C   UNL     1       6.546   4.536  17.387  0.00  0.00    +0.000 C 
ATOM     16  C   UNL     1       7.398   5.337  16.392  0.00  0.00    +0.000 C 
ATOM     17  C   UNL     1       7.198   4.888  14.949  0.00  0.00    +0.000 C 
ATOM     18  C   UNL     1       5.718   4.766  14.624  0.00  0.00    +0.000 C 
ATOM     19  C   UNL     1       5.001   3.903  15.658  0.00  0.00    +0.000 C 
ENDBRANCH   6  14
TORSDOF 2
ENDMDL
