MODEL 1
REMARK VINA RESULT:      -8.2      0.000      0.000
REMARK  Name = 
REMARK  8 active torsions:
REMARK  status: ('A' for Active; 'I' for Inactive)
REMARK    1  A    between atoms: N_1  and  C_2
REMARK    2  A    between atoms: C_2  and  C_3
REMARK    3  A    between atoms: C_3  and  C_4
REMARK    4  A    between atoms: C_3  and  C_19
REMARK    5  A    between atoms: C_3  and  C_25
REMARK    6  A    between atoms: C_4  and  C_5
REMARK    7  A    between atoms: C_5  and  N_6
REMARK    8  A    between atoms: C_9  and  C_10
REMARK                            x       y       z     vdW  Elec       q    Type
REMARK                         _______ _______ _______ _____ _____    ______ ____
ROOT
ATOM      1  C   UNL     1       3.680   5.132  18.181  0.00  0.00    +0.000 C 
ENDROOT
BRANCH   1   2
ATOM      2  C   UNL     1       4.624   4.949  16.958  0.00  0.00    +0.000 A 
ATOM      3  C   UNL     1       5.025   3.674  16.508  0.00  0.00    +0.000 A 
ATOM      4  C   UNL     1       5.833   3.510  15.377  0.00  0.00    +0.000 A 
ATOM      5  C   UNL     1       6.264   4.619  14.662  0.00  0.00    +0.000 A 
ATOM      6  C   UNL     1       5.890   5.890  15.080  0.00  0.00    +0.000 A 
ATOM      7  C   UNL     1       5.081   6.049  16.207  0.00  0.00    +0.000 A 
ENDBRANCH   1   2
BRANCH   1   8
ATOM      8  C   UNL     1       2.909   3.785  18.488  0.00  0.00    +0.000 C 
ATOM      9  C   UNL     1       2.791   3.374  19.963  0.00  0.00    +0.000 C 
ATOM     10  C   UNL     1       1.789   2.228  19.947  0.00  0.00    +0.000 C 
ATOM     11  C   UNL     1       0.853   2.512  18.777  0.00  0.00    +0.000 C 
ATOM     12  C   UNL     1       1.452   3.693  18.014  0.00  0.00    +0.000 C 
ENDBRANCH   1   8
BRANCH   1  13
ATOM     13  C   UNL     1       4.511   5.560  19.455  0.00  0.00    +0.000 C 
BRANCH  13  14
ATOM     14  N   UNL     1       5.874   5.025  19.541  0.00  0.00    +0.000 NA
ATOM     15  H   UNL     1       5.877   4.066  19.196  0.00  0.00    +0.000 HD
ATOM     16  H   UNL     1       6.153   4.963  20.521  0.00  0.00    +0.000 HD
ENDBRANCH  13  14
ENDBRANCH   1  13
BRANCH   1  17
ATOM     17  C   UNL     1       2.580   6.233  17.924  0.00  0.00    +0.000 C 
BRANCH  17  18
ATOM     18  C   UNL     1       2.855   7.636  18.502  0.00  0.00    +0.000 C 
BRANCH  18  19
ATOM     19  N   UNL     1       1.617   8.266  19.016  0.00  0.00    +0.000 NA
ATOM     20  C   UNL     1       1.585   8.239  20.491  0.00  0.00    +0.000 C 
ATOM     21  C   UNL     1       0.614   9.192  21.127  0.00  0.00    +0.000 C 
ATOM     22  C   UNL     1      -0.037  10.142  20.439  0.00  0.00    +0.000 C 
ATOM     23  C   UNL     1       0.178  10.304  18.960  0.00  0.00    +0.000 C 
ATOM     24  C   UNL     1       1.492   9.643  18.507  0.00  0.00    +0.000 C 
BRANCH  22  25
ATOM     25  C   UNL     1      -0.899  11.103  21.126  0.00  0.00    +0.000 A 
ATOM     26  C   UNL     1      -0.973  11.085  22.526  0.00  0.00    +0.000 A 
ATOM     27  C   UNL     1      -1.783  11.998  23.201  0.00  0.00    +0.000 A 
ATOM     28  C   UNL     1      -2.526  12.928  22.477  0.00  0.00    +0.000 A 
ATOM     29 CL   UNL     1      -3.513  14.064  23.310  0.00  0.00    +0.000 Cl
ATOM     30  C   UNL     1      -2.473  12.945  21.083  0.00  0.00    +0.000 A 
ATOM     31  C   UNL     1      -1.660  12.030  20.407  0.00  0.00    +0.000 A 
ENDBRANCH  22  25
ENDBRANCH  18  19
ENDBRANCH  17  18
ENDBRANCH   1  17
TORSDOF 8
ENDMDL
MODEL 2
REMARK VINA RESULT:      -8.0      0.491      1.365
REMARK  Name = 
REMARK  8 active torsions:
REMARK  status: ('A' for Active; 'I' for Inactive)
REMARK    1  A    between atoms: N_1  and  C_2
REMARK    2  A    between atoms: C_2  and  C_3
REMARK    3  A    between atoms: C_3  and  C_4
REMARK    4  A    between atoms: C_3  and  C_19
REMARK    5  A    between atoms: C_3  and  C_25
REMARK    6  A    between atoms: C_4  and  C_5
REMARK    7  A    between atoms: C_5  and  N_6
REMARK    8  A    between atoms: C_9  and  C_10
REMARK                            x       y       z     vdW  Elec       q    Type
REMARK                         _______ _______ _______ _____ _____    ______ ____
ROOT
ATOM      1  C   UNL     1       3.618   5.171  18.300  0.00  0.00    +0.000 C 
ENDROOT
BRANCH   1   2
ATOM      2  C   UNL     1       4.507   4.959  17.042  0.00  0.00    +0.000 A 
ATOM      3  C   UNL     1       4.865   3.672  16.589  0.00  0.00    +0.000 A 
ATOM      4  C   UNL     1       5.622   3.483  15.427  0.00  0.00    +0.000 A 
ATOM      5  C   UNL     1       6.044   4.577  14.684  0.00  0.00    +0.000 A 
ATOM      6  C   UNL     1       5.711   5.858  15.104  0.00  0.00    +0.000 A 
ATOM      7  C   UNL     1       4.953   6.044  16.262  0.00  0.00    +0.000 A 
ENDBRANCH   1   2
BRANCH   1   8
ATOM      8  C   UNL     1       2.867   3.830  18.677  0.00  0.00    +0.000 C 
ATOM      9  C   UNL     1       2.528   3.616  20.160  0.00  0.00    +0.000 C 
ATOM     10  C   UNL     1       1.594   2.415  20.156  0.00  0.00    +0.000 C 
ATOM     11  C   UNL     1       0.849   2.474  18.826  0.00  0.00    +0.000 C 
ATOM     12  C   UNL     1       1.512   3.578  18.002  0.00  0.00    +0.000 C 
ENDBRANCH   1   8
BRANCH   1  13
ATOM     13  C   UNL     1       4.502   5.634  19.525  0.00  0.00    +0.000 C 
BRANCH  13  14
ATOM     14  N   UNL     1       5.850   5.058  19.598  0.00  0.00    +0.000 NA
ATOM     15  H   UNL     1       6.017   4.499  18.761  0.00  0.00    +0.000 HD
ATOM     16  H   UNL     1       5.897   4.402  20.378  0.00  0.00    +0.000 HD
ENDBRANCH  13  14
ENDBRANCH   1  13
BRANCH   1  17
ATOM     17  C   UNL     1       2.502   6.261  18.065  0.00  0.00    +0.000 C 
BRANCH  17  18
ATOM     18  C   UNL     1       2.987   7.693  17.761  0.00  0.00    +0.000 C 
BRANCH  18  19
ATOM     19  N   UNL     1       2.437   8.672  18.728  0.00  0.00    +0.000 NA
ATOM     20  C   UNL     1       1.561   9.647  18.052  0.00  0.00    +0.000 C 
ATOM     21  C   UNL     1       0.637  10.411  18.955  0.00  0.00    +0.000 C 
ATOM     22  C   UNL     1       0.461  10.107  20.250  0.00  0.00    +0.000 C 
ATOM     23  C   UNL     1       1.200   8.957  20.876  0.00  0.00    +0.000 C 
ATOM     24  C   UNL     1       1.720   7.976  19.811  0.00  0.00    +0.000 C 
BRANCH  22  25
ATOM     25  C   UNL     1      -0.523  10.826  21.059  0.00  0.00    +0.000 A 
ATOM     26  C   UNL     1      -1.370  11.759  20.445  0.00  0.00    +0.000 A 
ATOM     27  C   UNL     1      -2.320  12.450  21.197  0.00  0.00    +0.000 A 
ATOM     28  C   UNL     1      -2.421  12.212  22.567  0.00  0.00    +0.000 A 
ATOM     29 CL   UNL     1      -3.604  13.051  23.492  0.00  0.00    +0.000 Cl
ATOM     30  C   UNL     1      -1.572  11.297  23.191  0.00  0.00    +0.000 A 
ATOM     31  C   UNL     1      -0.621  10.605  22.436  0.00  0.00    +0.000 A 
ENDBRANCH  22  25
ENDBRANCH  18  19
ENDBRANCH  17  18
ENDBRANCH   1  17
TORSDOF 8
ENDMDL
MODEL 3
REMARK VINA RESULT:      -8.0      0.196      1.280
REMARK  Name = 
REMARK  8 active torsions:
REMARK  status: ('A' for Active; 'I' for Inactive)
REMARK    1  A    between atoms: N_1  and  C_2
REMARK    2  A    between atoms: C_2  and  C_3
REMARK    3  A    between atoms: C_3  and  C_4
REMARK    4  A    between atoms: C_3  and  C_19
REMARK    5  A    between atoms: C_3  and  C_25
REMARK    6  A    between atoms: C_4  and  C_5
REMARK    7  A    between atoms: C_5  and  N_6
REMARK    8  A    between atoms: C_9  and  C_10
REMARK                            x       y       z     vdW  Elec       q    Type
REMARK                         _______ _______ _______ _____ _____    ______ ____
ROOT
ATOM      1  C   UNL     1       3.509   5.190  18.251  0.00  0.00    +0.000 C 
ENDROOT
BRANCH   1   2
ATOM      2  C   UNL     1       4.446   4.995  17.024  0.00  0.00    +0.000 A 
ATOM      3  C   UNL     1       5.003   6.088  16.329  0.00  0.00    +0.000 A 
ATOM      4  C   UNL     1       5.887   5.909  15.259  0.00  0.00    +0.000 A 
ATOM      5  C   UNL     1       6.238   4.629  14.851  0.00  0.00    +0.000 A 
ATOM      6  C   UNL     1       5.704   3.530  15.512  0.00  0.00    +0.000 A 
ATOM      7  C   UNL     1       4.825   3.713  16.582  0.00  0.00    +0.000 A 
ENDBRANCH   1   2
BRANCH   1   8
ATOM      8  C   UNL     1       2.752   3.840  18.585  0.00  0.00    +0.000 C 
ATOM      9  C   UNL     1       2.670   3.439  20.066  0.00  0.00    +0.000 C 
ATOM     10  C   UNL     1       1.675   2.288  20.082  0.00  0.00    +0.000 C 
ATOM     11  C   UNL     1       0.710   2.559  18.932  0.00  0.00    +0.000 C 
ATOM     12  C   UNL     1       1.285   3.738  18.147  0.00  0.00    +0.000 C 
ENDBRANCH   1   8
BRANCH   1  13
ATOM     13  C   UNL     1       4.344   5.646  19.512  0.00  0.00    +0.000 C 
BRANCH  13  14
ATOM     14  N   UNL     1       5.760   5.261  19.517  0.00  0.00    +0.000 NA
ATOM     15  H   UNL     1       6.228   5.707  18.728  0.00  0.00    +0.000 HD
ATOM     16  H   UNL     1       5.840   4.258  19.349  0.00  0.00    +0.000 HD
ENDBRANCH  13  14
ENDBRANCH   1  13
BRANCH   1  17
ATOM     17  C   UNL     1       2.396   6.276  17.984  0.00  0.00    +0.000 C 
BRANCH  17  18
ATOM     18  C   UNL     1       2.682   7.701  18.500  0.00  0.00    +0.000 C 
BRANCH  18  19
ATOM     19  N   UNL     1       1.458   8.341  19.038  0.00  0.00    +0.000 NA
ATOM     20  C   UNL     1       1.480   8.363  20.513  0.00  0.00    +0.000 C 
ATOM     21  C   UNL     1       0.526   9.331  21.152  0.00  0.00    +0.000 C 
ATOM     22  C   UNL     1      -0.156  10.253  20.457  0.00  0.00    +0.000 C 
ATOM     23  C   UNL     1       0.004  10.367  18.966  0.00  0.00    +0.000 C 
ATOM     24  C   UNL     1       1.305   9.699  18.488  0.00  0.00    +0.000 C 
BRANCH  22  25
ATOM     25  C   UNL     1      -1.000  11.232  21.143  0.00  0.00    +0.000 A 
ATOM     26  C   UNL     1      -1.751  12.144  20.388  0.00  0.00    +0.000 A 
ATOM     27  C   UNL     1      -2.567  13.080  21.023  0.00  0.00    +0.000 A 
ATOM     28  C   UNL     1      -2.629  13.111  22.415  0.00  0.00    +0.000 A 
ATOM     29 CL   UNL     1      -3.648  14.254  23.197  0.00  0.00    +0.000 Cl
ATOM     30  C   UNL     1      -1.873  12.218  23.176  0.00  0.00    +0.000 A 
ATOM     31  C   UNL     1      -1.056  11.279  22.539  0.00  0.00    +0.000 A 
ENDBRANCH  22  25
ENDBRANCH  18  19
ENDBRANCH  17  18
ENDBRANCH   1  17
TORSDOF 8
ENDMDL
MODEL 4
REMARK VINA RESULT:      -7.9      1.524      3.960
REMARK  Name = 
REMARK  8 active torsions:
REMARK  status: ('A' for Active; 'I' for Inactive)
REMARK    1  A    between atoms: N_1  and  C_2
REMARK    2  A    between atoms: C_2  and  C_3
REMARK    3  A    between atoms: C_3  and  C_4
REMARK    4  A    between atoms: C_3  and  C_19
REMARK    5  A    between atoms: C_3  and  C_25
REMARK    6  A    between atoms: C_4  and  C_5
REMARK    7  A    between atoms: C_5  and  N_6
REMARK    8  A    between atoms: C_9  and  C_10
REMARK                            x       y       z     vdW  Elec       q    Type
REMARK                         _______ _______ _______ _____ _____    ______ ____
ROOT
ATOM      1  C   UNL     1       3.728   4.879  18.413  0.00  0.00    +0.000 C 
ENDROOT
BRANCH   1   2
ATOM      2  C   UNL     1       3.258   4.026  19.626  0.00  0.00    +0.000 A 
ATOM      3  C   UNL     1       2.105   4.356  20.368  0.00  0.00    +0.000 A 
ATOM      4  C   UNL     1       1.656   3.558  21.427  0.00  0.00    +0.000 A 
ATOM      5  C   UNL     1       2.349   2.406  21.775  0.00  0.00    +0.000 A 
ATOM      6  C   UNL     1       3.490   2.055  21.066  0.00  0.00    +0.000 A 
ATOM      7  C   UNL     1       3.934   2.852  20.008  0.00  0.00    +0.000 A 
ENDBRANCH   1   2
BRANCH   1   8
ATOM      8  C   UNL     1       5.158   4.404  17.927  0.00  0.00    +0.000 C 
ATOM      9  C   UNL     1       5.478   4.581  16.435  0.00  0.00    +0.000 C 
ATOM     10  C   UNL     1       6.972   4.304  16.343  0.00  0.00    +0.000 C 
ATOM     11  C   UNL     1       7.557   4.740  17.682  0.00  0.00    +0.000 C 
ATOM     12  C   UNL     1       6.373   5.062  18.594  0.00  0.00    +0.000 C 
ENDBRANCH   1   8
BRANCH   1  13
ATOM     13  C   UNL     1       2.701   4.746  17.219  0.00  0.00    +0.000 C 
BRANCH  13  14
ATOM     14  N   UNL     1       2.057   3.437  17.070  0.00  0.00    +0.000 NA
ATOM     15  H   UNL     1       1.111   3.488  17.448  0.00  0.00    +0.000 HD
ATOM     16  H   UNL     1       2.544   2.751  17.647  0.00  0.00    +0.000 HD
ENDBRANCH  13  14
ENDBRANCH   1  13
BRANCH   1  17
ATOM     17  C   UNL     1       3.860   6.408  18.774  0.00  0.00    +0.000 C 
BRANCH  17  18
ATOM     18  C   UNL     1       3.145   7.405  17.840  0.00  0.00    +0.000 C 
BRANCH  18  19
ATOM     19  N   UNL     1       1.932   7.973  18.473  0.00  0.00    +0.000 NA
ATOM     20  C   UNL     1       1.982   7.818  19.939  0.00  0.00    +0.000 C 
ATOM     21  C   UNL     1       1.040   8.700  20.708  0.00  0.00    +0.000 C 
ATOM     22  C   UNL     1       0.344   9.697  20.142  0.00  0.00    +0.000 C 
ATOM     23  C   UNL     1       0.476   9.989  18.673  0.00  0.00    +0.000 C 
ATOM     24  C   UNL     1       1.768   9.387  18.094  0.00  0.00    +0.000 C 
BRANCH  22  25
ATOM     25  C   UNL     1      -0.487  10.584  20.957  0.00  0.00    +0.000 A 
ATOM     26  C   UNL     1      -1.230  11.596  20.334  0.00  0.00    +0.000 A 
ATOM     27  C   UNL     1      -2.034  12.448  21.092  0.00  0.00    +0.000 A 
ATOM     28  C   UNL     1      -2.092  12.292  22.476  0.00  0.00    +0.000 A 
ATOM     29 CL   UNL     1      -3.095  13.331  23.409  0.00  0.00    +0.000 Cl
ATOM     30  C   UNL     1      -1.344  11.298  23.107  0.00  0.00    +0.000 A 
ATOM     31  C   UNL     1      -0.539  10.444  22.347  0.00  0.00    +0.000 A 
ENDBRANCH  22  25
ENDBRANCH  18  19
ENDBRANCH  17  18
ENDBRANCH   1  17
TORSDOF 8
ENDMDL
MODEL 5
REMARK VINA RESULT:      -7.8      1.517      4.019
REMARK  Name = 
REMARK  8 active torsions:
REMARK  status: ('A' for Active; 'I' for Inactive)
REMARK    1  A    between atoms: N_1  and  C_2
REMARK    2  A    between atoms: C_2  and  C_3
REMARK    3  A    between atoms: C_3  and  C_4
REMARK    4  A    between atoms: C_3  and  C_19
REMARK    5  A    between atoms: C_3  and  C_25
REMARK    6  A    between atoms: C_4  and  C_5
REMARK    7  A    between atoms: C_5  and  N_6
REMARK    8  A    between atoms: C_9  and  C_10
REMARK                            x       y       z     vdW  Elec       q    Type
REMARK                         _______ _______ _______ _____ _____    ______ ____
ROOT
ATOM      1  C   UNL     1       3.716   4.883  18.509  0.00  0.00    +0.000 C 
ENDROOT
BRANCH   1   2
ATOM      2  C   UNL     1       3.089   4.003  19.629  0.00  0.00    +0.000 A 
ATOM      3  C   UNL     1       3.787   2.923  20.208  0.00  0.00    +0.000 A 
ATOM      4  C   UNL     1       3.240   2.166  21.251  0.00  0.00    +0.000 A 
ATOM      5  C   UNL     1       1.977   2.467  21.743  0.00  0.00    +0.000 A 
ATOM      6  C   UNL     1       1.262   3.522  21.192  0.00  0.00    +0.000 A 
ATOM      7  C   UNL     1       1.812   4.278  20.154  0.00  0.00    +0.000 A 
ENDBRANCH   1   2
BRANCH   1   8
ATOM      8  C   UNL     1       5.243   4.515  18.310  0.00  0.00    +0.000 C 
ATOM      9  C   UNL     1       5.797   4.605  16.881  0.00  0.00    +0.000 C 
ATOM     10  C   UNL     1       7.303   4.469  17.060  0.00  0.00    +0.000 C 
ATOM     11  C   UNL     1       7.612   5.066  18.429  0.00  0.00    +0.000 C 
ATOM     12  C   UNL     1       6.267   5.340  19.101  0.00  0.00    +0.000 C 
ENDBRANCH   1   8
BRANCH   1  13
ATOM     13  C   UNL     1       2.946   4.668  17.147  0.00  0.00    +0.000 C 
BRANCH  13  14
ATOM     14  N   UNL     1       2.391   3.328  16.928  0.00  0.00    +0.000 NA
ATOM     15  H   UNL     1       1.965   2.999  17.795  0.00  0.00    +0.000 HD
ATOM     16  H   UNL     1       3.150   2.674  16.733  0.00  0.00    +0.000 HD
ENDBRANCH  13  14
ENDBRANCH   1  13
BRANCH   1  17
ATOM     17  C   UNL     1       3.665   6.420  18.861  0.00  0.00    +0.000 C 
BRANCH  17  18
ATOM     18  C   UNL     1       2.678   7.283  18.051  0.00  0.00    +0.000 C 
BRANCH  18  19
ATOM     19  N   UNL     1       2.166   8.421  18.850  0.00  0.00    +0.000 NA
ATOM     20  C   UNL     1       1.138   9.170  18.103  0.00  0.00    +0.000 C 
ATOM     21  C   UNL     1       0.265  10.064  18.936  0.00  0.00    +0.000 C 
ATOM     22  C   UNL     1       0.270  10.048  20.277  0.00  0.00    +0.000 C 
ATOM     23  C   UNL     1       1.171   9.110  21.032  0.00  0.00    +0.000 C 
ATOM     24  C   UNL     1       1.642   7.946  20.143  0.00  0.00    +0.000 C 
BRANCH  22  25
ATOM     25  C   UNL     1      -0.669  10.873  21.037  0.00  0.00    +0.000 A 
ATOM     26  C   UNL     1      -1.469  11.806  20.362  0.00  0.00    +0.000 A 
ATOM     27  C   UNL     1      -2.376  12.597  21.067  0.00  0.00    +0.000 A 
ATOM     28  C   UNL     1      -2.481  12.462  22.450  0.00  0.00    +0.000 A 
ATOM     29 CL   UNL     1      -3.610  13.426  23.317  0.00  0.00    +0.000 Cl
ATOM     30  C   UNL     1      -1.678  11.548  23.134  0.00  0.00    +0.000 A 
ATOM     31  C   UNL     1      -0.770  10.755  22.427  0.00  0.00    +0.000 A 
ENDBRANCH  22  25
ENDBRANCH  18  19
ENDBRANCH  17  18
ENDBRANCH   1  17
TORSDOF 8
ENDMDL
MODEL 6
REMARK VINA RESULT:      -7.8      1.223      1.609
REMARK  Name = 
REMARK  8 active torsions:
REMARK  status: ('A' for Active; 'I' for Inactive)
REMARK    1  A    between atoms: N_1  and  C_2
REMARK    2  A    between atoms: C_2  and  C_3
REMARK    3  A    between atoms: C_3  and  C_4
REMARK    4  A    between atoms: C_3  and  C_19
REMARK    5  A    between atoms: C_3  and  C_25
REMARK    6  A    between atoms: C_4  and  C_5
REMARK    7  A    between atoms: C_5  and  N_6
REMARK    8  A    between atoms: C_9  and  C_10
REMARK                            x       y       z     vdW  Elec       q    Type
REMARK                         _______ _______ _______ _____ _____    ______ ____
ROOT
ATOM      1  C   UNL     1       4.754   5.099  17.892  0.00  0.00    +0.000 C 
ENDROOT
BRANCH   1   2
ATOM      2  C   UNL     1       5.488   4.853  16.543  0.00  0.00    +0.000 A 
ATOM      3  C   UNL     1       4.798   4.455  15.379  0.00  0.00    +0.000 A 
ATOM      4  C   UNL     1       5.454   4.285  14.154  0.00  0.00    +0.000 A 
ATOM      5  C   UNL     1       6.820   4.507  14.058  0.00  0.00    +0.000 A 
ATOM      6  C   UNL     1       7.530   4.897  15.187  0.00  0.00    +0.000 A 
ATOM      7  C   UNL     1       6.873   5.069  16.407  0.00  0.00    +0.000 A 
ENDBRANCH   1   2
BRANCH   1   8
ATOM      8  C   UNL     1       4.448   3.723  18.612  0.00  0.00    +0.000 C 
ATOM      9  C   UNL     1       3.431   3.752  19.762  0.00  0.00    +0.000 C 
ATOM     10  C   UNL     1       3.155   2.282  20.048  0.00  0.00    +0.000 C 
ATOM     11  C   UNL     1       3.331   1.562  18.715  0.00  0.00    +0.000 C 
ATOM     12  C   UNL     1       3.906   2.585  17.736  0.00  0.00    +0.000 C 
ENDBRANCH   1   8
BRANCH   1  13
ATOM     13  C   UNL     1       5.639   5.999  18.842  0.00  0.00    +0.000 C 
BRANCH  13  14
ATOM     14  N   UNL     1       6.606   5.285  19.684  0.00  0.00    +0.000 NA
ATOM     15  H   UNL     1       6.644   4.309  19.391  0.00  0.00    +0.000 HD
ATOM     16  H   UNL     1       6.270   5.268  20.647  0.00  0.00    +0.000 HD
ENDBRANCH  13  14
ENDBRANCH   1  13
BRANCH   1  17
ATOM     17  C   UNL     1       3.365   5.821  17.692  0.00  0.00    +0.000 C 
BRANCH  17  18
ATOM     18  C   UNL     1       3.377   7.362  17.713  0.00  0.00    +0.000 C 
BRANCH  18  19
ATOM     19  N   UNL     1       2.157   7.908  18.353  0.00  0.00    +0.000 NA
ATOM     20  C   UNL     1       2.153   7.629  19.801  0.00  0.00    +0.000 C 
ATOM     21  C   UNL     1       1.207   8.469  20.612  0.00  0.00    +0.000 C 
ATOM     22  C   UNL     1       0.556   9.529  20.110  0.00  0.00    +0.000 C 
ATOM     23  C   UNL     1       0.745   9.940  18.676  0.00  0.00    +0.000 C 
ATOM     24  C   UNL     1       2.041   9.353  18.090  0.00  0.00    +0.000 C 
BRANCH  22  25
ATOM     25  C   UNL     1      -0.280  10.367  20.970  0.00  0.00    +0.000 A 
ATOM     26  C   UNL     1      -0.996  11.433  20.407  0.00  0.00    +0.000 A 
ATOM     27  C   UNL     1      -1.804  12.240  21.208  0.00  0.00    +0.000 A 
ATOM     28  C   UNL     1      -1.894  11.985  22.576  0.00  0.00    +0.000 A 
ATOM     29 CL   UNL     1      -2.903  12.969  23.561  0.00  0.00    +0.000 Cl
ATOM     30  C   UNL     1      -1.173  10.937  23.148  0.00  0.00    +0.000 A 
ATOM     31  C   UNL     1      -0.364  10.129  22.345  0.00  0.00    +0.000 A 
ENDBRANCH  22  25
ENDBRANCH  18  19
ENDBRANCH  17  18
ENDBRANCH   1  17
TORSDOF 8
ENDMDL
MODEL 7
REMARK VINA RESULT:      -7.7      1.608      3.971
REMARK  Name = 
REMARK  8 active torsions:
REMARK  status: ('A' for Active; 'I' for Inactive)
REMARK    1  A    between atoms: N_1  and  C_2
REMARK    2  A    between atoms: C_2  and  C_3
REMARK    3  A    between atoms: C_3  and  C_4
REMARK    4  A    between atoms: C_3  and  C_19
REMARK    5  A    between atoms: C_3  and  C_25
REMARK    6  A    between atoms: C_4  and  C_5
REMARK    7  A    between atoms: C_5  and  N_6
REMARK    8  A    between atoms: C_9  and  C_10
REMARK                            x       y       z     vdW  Elec       q    Type
REMARK                         _______ _______ _______ _____ _____    ______ ____
ROOT
ATOM      1  C   UNL     1       3.301   4.695  18.062  0.00  0.00    +0.000 C 
ENDROOT
BRANCH   1   2
ATOM      2  C   UNL     1       3.006   3.954  19.398  0.00  0.00    +0.000 A 
ATOM      3  C   UNL     1       1.873   4.252  20.183  0.00  0.00    +0.000 A 
ATOM      4  C   UNL     1       1.583   3.548  21.358  0.00  0.00    +0.000 A 
ATOM      5  C   UNL     1       2.419   2.524  21.781  0.00  0.00    +0.000 A 
ATOM      6  C   UNL     1       3.545   2.207  21.033  0.00  0.00    +0.000 A 
ATOM      7  C   UNL     1       3.830   2.909  19.859  0.00  0.00    +0.000 A 
ENDBRANCH   1   2
BRANCH   1   8
ATOM      8  C   UNL     1       4.789   5.233  18.049  0.00  0.00    +0.000 C 
ATOM      9  C   UNL     1       5.503   5.334  19.405  0.00  0.00    +0.000 C 
ATOM     10  C   UNL     1       6.955   5.604  19.038  0.00  0.00    +0.000 C 
ATOM     11  C   UNL     1       7.178   4.916  17.695  0.00  0.00    +0.000 C 
ATOM     12  C   UNL     1       5.807   4.445  17.212  0.00  0.00    +0.000 C 
ENDBRANCH   1   8
BRANCH   1  13
ATOM     13  C   UNL     1       3.087   3.721  16.836  0.00  0.00    +0.000 C 
BRANCH  13  14
ATOM     14  N   UNL     1       2.241   2.549  17.087  0.00  0.00    +0.000 NA
ATOM     15  H   UNL     1       2.027   2.502  18.084  0.00  0.00    +0.000 HD
ATOM     16  H   UNL     1       2.767   1.700  16.881  0.00  0.00    +0.000 HD
ENDBRANCH  13  14
ENDBRANCH   1  13
BRANCH   1  17
ATOM     17  C   UNL     1       2.366   5.949  17.858  0.00  0.00    +0.000 C 
BRANCH  17  18
ATOM     18  C   UNL     1       3.066   7.308  17.657  0.00  0.00    +0.000 C 
BRANCH  18  19
ATOM     19  N   UNL     1       2.560   8.327  18.606  0.00  0.00    +0.000 NA
ATOM     20  C   UNL     1       1.614   9.243  17.941  0.00  0.00    +0.000 C 
ATOM     21  C   UNL     1       0.735  10.037  18.865  0.00  0.00    +0.000 C 
ATOM     22  C   UNL     1       0.658   9.802  20.183  0.00  0.00    +0.000 C 
ATOM     23  C   UNL     1       1.469   8.706  20.818  0.00  0.00    +0.000 C 
ATOM     24  C   UNL     1       1.939   7.678  19.774  0.00  0.00    +0.000 C 
BRANCH  22  25
ATOM     25  C   UNL     1      -0.285  10.544  21.020  0.00  0.00    +0.000 A 
ATOM     26  C   UNL     1      -1.078  11.545  20.442  0.00  0.00    +0.000 A 
ATOM     27  C   UNL     1      -1.990  12.259  21.221  0.00  0.00    +0.000 A 
ATOM     28  C   UNL     1      -2.106  11.976  22.580  0.00  0.00    +0.000 A 
ATOM     29 CL   UNL     1      -3.241  12.844  23.537  0.00  0.00    +0.000 Cl
ATOM     30  C   UNL     1      -1.310  10.992  23.169  0.00  0.00    +0.000 A 
ATOM     31  C   UNL     1      -0.398  10.277  22.388  0.00  0.00    +0.000 A 
ENDBRANCH  22  25
ENDBRANCH  18  19
ENDBRANCH  17  18
ENDBRANCH   1  17
TORSDOF 8
ENDMDL
MODEL 8
REMARK VINA RESULT:      -7.7      1.634      2.016
REMARK  Name = 
REMARK  8 active torsions:
REMARK  status: ('A' for Active; 'I' for Inactive)
REMARK    1  A    between atoms: N_1  and  C_2
REMARK    2  A    between atoms: C_2  and  C_3
REMARK    3  A    between atoms: C_3  and  C_4
REMARK    4  A    between atoms: C_3  and  C_19
REMARK    5  A    between atoms: C_3  and  C_25
REMARK    6  A    between atoms: C_4  and  C_5
REMARK    7  A    between atoms: C_5  and  N_6
REMARK    8  A    between atoms: C_9  and  C_10
REMARK                            x       y       z     vdW  Elec       q    Type
REMARK                         _______ _______ _______ _____ _____    ______ ____
ROOT
ATOM      1  C   UNL     1       3.770   5.062  18.303  0.00  0.00    +0.000 C 
ENDROOT
BRANCH   1   2
ATOM      2  C   UNL     1       4.618   5.020  17.000  0.00  0.00    +0.000 A 
ATOM      3  C   UNL     1       5.040   3.805  16.422  0.00  0.00    +0.000 A 
ATOM      4  C   UNL     1       5.759   3.769  15.221  0.00  0.00    +0.000 A 
ATOM      5  C   UNL     1       6.077   4.949  14.563  0.00  0.00    +0.000 A 
ATOM      6  C   UNL     1       5.679   6.164  15.107  0.00  0.00    +0.000 A 
ATOM      7  C   UNL     1       4.959   6.196  16.304  0.00  0.00    +0.000 A 
ENDBRANCH   1   2
BRANCH   1   8
ATOM      8  C   UNL     1       2.933   3.727  18.458  0.00  0.00    +0.000 C 
ATOM      9  C   UNL     1       2.891   3.092  19.856  0.00  0.00    +0.000 C 
ATOM     10  C   UNL     1       1.816   2.021  19.743  0.00  0.00    +0.000 C 
ATOM     11  C   UNL     1       0.821   2.541  18.710  0.00  0.00    +0.000 C 
ATOM     12  C   UNL     1       1.443   3.794  18.094  0.00  0.00    +0.000 C 
ENDBRANCH   1   8
BRANCH   1  13
ATOM     13  C   UNL     1       4.708   5.237  19.562  0.00  0.00    +0.000 C 
BRANCH  13  14
ATOM     14  N   UNL     1       6.080   4.738  19.415  0.00  0.00    +0.000 NA
ATOM     15  H   UNL     1       6.348   4.790  18.432  0.00  0.00    +0.000 HD
ATOM     16  H   UNL     1       6.108   3.746  19.653  0.00  0.00    +0.000 HD
ENDBRANCH  13  14
ENDBRANCH   1  13
BRANCH   1  17
ATOM     17  C   UNL     1       2.731   6.248  18.300  0.00  0.00    +0.000 C 
BRANCH  17  18
ATOM     18  C   UNL     1       2.376   6.861  19.670  0.00  0.00    +0.000 C 
BRANCH  18  19
ATOM     19  N   UNL     1       1.489   8.039  19.526  0.00  0.00    +0.000 NA
ATOM     20  C   UNL     1       1.349   8.753  20.809  0.00  0.00    +0.000 C 
ATOM     21  C   UNL     1       0.832  10.160  20.706  0.00  0.00    +0.000 C 
ATOM     22  C   UNL     1       0.692  10.804  19.538  0.00  0.00    +0.000 C 
ATOM     23  C   UNL     1       1.054  10.134  18.241  0.00  0.00    +0.000 C 
ATOM     24  C   UNL     1       1.993   8.936  18.471  0.00  0.00    +0.000 C 
BRANCH  22  25
ATOM     25  C   UNL     1       0.273  12.205  19.504  0.00  0.00    +0.000 A 
ATOM     26  C   UNL     1       1.099  13.157  18.889  0.00  0.00    +0.000 A 
ATOM     27  C   UNL     1       0.715  14.497  18.839  0.00  0.00    +0.000 A 
ATOM     28  C   UNL     1      -0.494  14.889  19.410  0.00  0.00    +0.000 A 
ATOM     29 CL   UNL     1      -0.976  16.538  19.334  0.00  0.00    +0.000 Cl
ATOM     30  C   UNL     1      -1.317  13.953  20.038  0.00  0.00    +0.000 A 
ATOM     31  C   UNL     1      -0.931  12.611  20.087  0.00  0.00    +0.000 A 
ENDBRANCH  22  25
ENDBRANCH  18  19
ENDBRANCH  17  18
ENDBRANCH   1  17
TORSDOF 8
ENDMDL
MODEL 9
REMARK VINA RESULT:      -7.7      1.647      3.930
REMARK  Name = 
REMARK  8 active torsions:
REMARK  status: ('A' for Active; 'I' for Inactive)
REMARK    1  A    between atoms: N_1  and  C_2
REMARK    2  A    between atoms: C_2  and  C_3
REMARK    3  A    between atoms: C_3  and  C_4
REMARK    4  A    between atoms: C_3  and  C_19
REMARK    5  A    between atoms: C_3  and  C_25
REMARK    6  A    between atoms: C_4  and  C_5
REMARK    7  A    between atoms: C_5  and  N_6
REMARK    8  A    between atoms: C_9  and  C_10
REMARK                            x       y       z     vdW  Elec       q    Type
REMARK                         _______ _______ _______ _____ _____    ______ ____
ROOT
ATOM      1  C   UNL     1       3.598   4.817  18.432  0.00  0.00    +0.000 C 
ENDROOT
BRANCH   1   2
ATOM      2  C   UNL     1       3.094   3.926  19.603  0.00  0.00    +0.000 A 
ATOM      3  C   UNL     1       3.861   2.858  20.113  0.00  0.00    +0.000 A 
ATOM      4  C   UNL     1       3.427   2.091  21.200  0.00  0.00    +0.000 A 
ATOM      5  C   UNL     1       2.212   2.369  21.809  0.00  0.00    +0.000 A 
ATOM      6  C   UNL     1       1.430   3.412  21.329  0.00  0.00    +0.000 A 
ATOM      7  C   UNL     1       1.867   4.178  20.246  0.00  0.00    +0.000 A 
ENDBRANCH   1   2
BRANCH   1   8
ATOM      8  C   UNL     1       5.081   4.425  18.040  0.00  0.00    +0.000 C 
ATOM      9  C   UNL     1       5.497   4.655  16.580  0.00  0.00    +0.000 C 
ATOM     10  C   UNL     1       7.005   4.452  16.590  0.00  0.00    +0.000 C 
ATOM     11  C   UNL     1       7.471   4.883  17.976  0.00  0.00    +0.000 C 
ATOM     12  C   UNL     1       6.211   5.125  18.807  0.00  0.00    +0.000 C 
ENDBRANCH   1   8
BRANCH   1  13
ATOM     13  C   UNL     1       2.663   4.645  17.169  0.00  0.00    +0.000 C 
BRANCH  13  14
ATOM     14  N   UNL     1       2.245   3.272  16.864  0.00  0.00    +0.000 NA
ATOM     15  H   UNL     1       3.011   2.635  17.081  0.00  0.00    +0.000 HD
ATOM     16  H   UNL     1       2.091   3.180  15.859  0.00  0.00    +0.000 HD
ENDBRANCH  13  14
ENDBRANCH   1  13
BRANCH   1  17
ATOM     17  C   UNL     1       3.622   6.347  18.815  0.00  0.00    +0.000 C 
BRANCH  17  18
ATOM     18  C   UNL     1       2.898   7.313  17.856  0.00  0.00    +0.000 C 
BRANCH  18  19
ATOM     19  N   UNL     1       1.836   8.077  18.551  0.00  0.00    +0.000 NA
ATOM     20  C   UNL     1       1.883   7.840  20.006  0.00  0.00    +0.000 C 
ATOM     21  C   UNL     1       1.152   8.850  20.843  0.00  0.00    +0.000 C 
ATOM     22  C   UNL     1       0.660   9.994  20.345  0.00  0.00    +0.000 C 
ATOM     23  C   UNL     1       0.818  10.330  18.888  0.00  0.00    +0.000 C 
ATOM     24  C   UNL     1       1.952   9.514  18.243  0.00  0.00    +0.000 C 
BRANCH  22  25
ATOM     25  C   UNL     1       0.040  10.986  21.224  0.00  0.00    +0.000 A 
ATOM     26  C   UNL     1       0.329  12.345  21.042  0.00  0.00    +0.000 A 
ATOM     27  C   UNL     1      -0.257  13.307  21.865  0.00  0.00    +0.000 A 
ATOM     28  C   UNL     1      -1.130  12.910  22.877  0.00  0.00    +0.000 A 
ATOM     29 CL   UNL     1      -1.865  14.096  23.881  0.00  0.00    +0.000 Cl
ATOM     30  C   UNL     1      -1.412  11.558  23.077  0.00  0.00    +0.000 A 
ATOM     31  C   UNL     1      -0.825  10.595  22.252  0.00  0.00    +0.000 A 
ENDBRANCH  22  25
ENDBRANCH  18  19
ENDBRANCH  17  18
ENDBRANCH   1  17
TORSDOF 8
ENDMDL
