MODEL 1
REMARK VINA RESULT:      -8.3      0.000      0.000
REMARK  Name = 
REMARK  8 active torsions:
REMARK  status: ('A' for Active; 'I' for Inactive)
REMARK    1  A    between atoms: C_1  and  C_2
REMARK    2  A    between atoms: C_2  and  O_3
REMARK    3  A    between atoms: O_3  and  C_4
REMARK    4  A    between atoms: C_4  and  C_6
REMARK    5  A    between atoms: C_9  and  C_10
REMARK    6  A    between atoms: N_18  and  C_19
REMARK    7  A    between atoms: C_19  and  C_20
REMARK    8  A    between atoms: C_23  and  C_24
REMARK                            x       y       z     vdW  Elec       q    Type
REMARK                         _______ _______ _______ _____ _____    ______ ____
ROOT
ATOM      1  C   UNL     1       4.531   3.974  17.202  0.00  0.00    +0.000 A 
ATOM      2  C   UNL     1       4.030   2.671  17.224  0.00  0.00    +0.000 A 
ATOM      3  C   UNL     1       3.031   2.309  18.133  0.00  0.00    +0.000 A 
ATOM      4  C   UNL     1       2.502   3.212  19.044  0.00  0.00    +0.000 A 
ATOM      5  N   UNL     1       1.514   2.784  19.832  0.00  0.00    +0.000 NA
ATOM      6  C   UNL     1       0.986   3.683  20.666  0.00  0.00    +0.000 A 
ATOM      7  N   UNL     1       1.348   4.965  20.786  0.00  0.00    +0.000 NA
ATOM      8  C   UNL     1       2.351   5.388  19.993  0.00  0.00    +0.000 A 
ATOM      9  N   UNL     1       2.704   6.748  20.045  0.00  0.00    +0.000 N 
ATOM     10  C   UNL     1       2.999   4.523  19.077  0.00  0.00    +0.000 A 
ATOM     11  C   UNL     1       4.030   4.882  18.153  0.00  0.00    +0.000 A 
ATOM     12  H   UNL     1       3.651   6.871  20.388  0.00  0.00    +0.000 HD
ENDROOT
BRANCH   1  16
ATOM     13  C   UNL     1       6.363   4.203  14.131  0.00  0.00    +0.000 A 
ATOM     14  C   UNL     1       7.134   5.112  14.829  0.00  0.00    +0.000 A 
ATOM     15  C   UNL     1       6.553   5.236  16.115  0.00  0.00    +0.000 A 
ATOM     16  C   UNL     1       5.469   4.380  16.153  0.00  0.00    +0.000 A 
ATOM     17  O   UNL     1       5.340   3.767  14.937  0.00  0.00    +0.000 OA
BRANCH  13  18
ATOM     18  C   UNL     1       6.468   3.740  12.763  0.00  0.00    +0.000 C 
ATOM     19  O   UNL     1       7.203   4.217  11.912  0.00  0.00    +0.000 OA
BRANCH  18  20
ATOM     20  O   UNL     1       5.546   2.762  12.544  0.00  0.00    +0.000 OA
BRANCH  20  22
ATOM     21  C   UNL     1       3.762   3.243  11.032  0.00  0.00    +0.000 C 
ATOM     22  C   UNL     1       5.130   2.596  11.180  0.00  0.00    +0.000 C 
ENDBRANCH  20  22
ENDBRANCH  18  20
ENDBRANCH  13  18
ENDBRANCH   1  16
BRANCH   9  23
ATOM     23  C   UNL     1       1.738   7.655  20.680  0.00  0.00    +0.000 C 
BRANCH  23  24
ATOM     24  C   UNL     1       1.243   8.724  19.754  0.00  0.00    +0.000 A 
ATOM     25  C   UNL     1       1.599   9.035  18.458  0.00  0.00    +0.000 A 
ATOM     26  C   UNL     1       0.735  10.066  18.034  0.00  0.00    +0.000 A 
ATOM     27  C   UNL     1      -0.094  10.341  19.101  0.00  0.00    +0.000 A 
ATOM     28  C   UNL     1      -1.207  11.296  19.279  0.00  0.00    +0.000 C 
ATOM     29  O   UNL     1       0.214   9.529  20.159  0.00  0.00    +0.000 OA
ENDBRANCH  23  24
ENDBRANCH   9  23
TORSDOF 6
ENDMDL
MODEL 2
REMARK VINA RESULT:      -8.3      2.207      9.072
REMARK  Name = 
REMARK  8 active torsions:
REMARK  status: ('A' for Active; 'I' for Inactive)
REMARK    1  A    between atoms: C_1  and  C_2
REMARK    2  A    between atoms: C_2  and  O_3
REMARK    3  A    between atoms: O_3  and  C_4
REMARK    4  A    between atoms: C_4  and  C_6
REMARK    5  A    between atoms: C_9  and  C_10
REMARK    6  A    between atoms: N_18  and  C_19
REMARK    7  A    between atoms: C_19  and  C_20
REMARK    8  A    between atoms: C_23  and  C_24
REMARK                            x       y       z     vdW  Elec       q    Type
REMARK                         _______ _______ _______ _____ _____    ______ ____
ROOT
ATOM      1  C   UNL     1       1.984   6.698  20.158  0.00  0.00    +0.000 A 
ATOM      2  C   UNL     1       1.465   5.729  21.018  0.00  0.00    +0.000 A 
ATOM      3  C   UNL     1       1.984   4.431  21.022  0.00  0.00    +0.000 A 
ATOM      4  C   UNL     1       3.020   4.050  20.182  0.00  0.00    +0.000 A 
ATOM      5  N   UNL     1       3.482   2.803  20.300  0.00  0.00    +0.000 NA
ATOM      6  C   UNL     1       4.513   2.473  19.517  0.00  0.00    +0.000 A 
ATOM      7  N   UNL     1       5.124   3.268  18.632  0.00  0.00    +0.000 NA
ATOM      8  C   UNL     1       4.649   4.521  18.512  0.00  0.00    +0.000 A 
ATOM      9  N   UNL     1       5.317   5.401  17.644  0.00  0.00    +0.000 N 
ATOM     10  C   UNL     1       3.550   4.983  19.280  0.00  0.00    +0.000 A 
ATOM     11  C   UNL     1       3.005   6.305  19.272  0.00  0.00    +0.000 A 
ATOM     12  H   UNL     1       4.722   5.683  16.872  0.00  0.00    +0.000 HD
ENDROOT
BRANCH   1  16
ATOM     13  C   UNL     1       0.633   9.790  21.362  0.00  0.00    +0.000 A 
ATOM     14  C   UNL     1       0.781  10.197  20.051  0.00  0.00    +0.000 A 
ATOM     15  C   UNL     1       1.371   9.115  19.353  0.00  0.00    +0.000 A 
ATOM     16  C   UNL     1       1.533   8.088  20.263  0.00  0.00    +0.000 A 
ATOM     17  O   UNL     1       1.104   8.507  21.493  0.00  0.00    +0.000 OA
BRANCH  13  18
ATOM     18  C   UNL     1       0.134  10.509  22.516  0.00  0.00    +0.000 C 
ATOM     19  O   UNL     1      -0.056  10.023  23.621  0.00  0.00    +0.000 OA
BRANCH  18  20
ATOM     20  O   UNL     1      -0.190  11.781  22.153  0.00  0.00    +0.000 OA
BRANCH  20  22
ATOM     21  C   UNL     1      -1.922  13.024  23.228  0.00  0.00    +0.000 C 
ATOM     22  C   UNL     1      -1.595  12.069  22.091  0.00  0.00    +0.000 C 
ENDBRANCH  20  22
ENDBRANCH  18  20
ENDBRANCH  13  18
ENDBRANCH   1  16
BRANCH   9  23
ATOM     23  C   UNL     1       6.666   5.004  17.215  0.00  0.00    +0.000 C 
BRANCH  23  24
ATOM     24  C   UNL     1       6.744   4.684  15.753  0.00  0.00    +0.000 A 
ATOM     25  C   UNL     1       6.014   3.805  14.978  0.00  0.00    +0.000 A 
ATOM     26  C   UNL     1       6.436   3.990  13.645  0.00  0.00    +0.000 A 
ATOM     27  C   UNL     1       7.414   4.962  13.679  0.00  0.00    +0.000 A 
ATOM     28  C   UNL     1       8.223   5.599  12.620  0.00  0.00    +0.000 C 
ATOM     29  O   UNL     1       7.613   5.386  14.964  0.00  0.00    +0.000 OA
ENDBRANCH  23  24
ENDBRANCH   9  23
TORSDOF 6
ENDMDL
MODEL 3
REMARK VINA RESULT:      -8.2      1.892      8.725
REMARK  Name = 
REMARK  8 active torsions:
REMARK  status: ('A' for Active; 'I' for Inactive)
REMARK    1  A    between atoms: C_1  and  C_2
REMARK    2  A    between atoms: C_2  and  O_3
REMARK    3  A    between atoms: O_3  and  C_4
REMARK    4  A    between atoms: C_4  and  C_6
REMARK    5  A    between atoms: C_9  and  C_10
REMARK    6  A    between atoms: N_18  and  C_19
REMARK    7  A    between atoms: C_19  and  C_20
REMARK    8  A    between atoms: C_23  and  C_24
REMARK                            x       y       z     vdW  Elec       q    Type
REMARK                         _______ _______ _______ _____ _____    ______ ____
ROOT
ATOM      1  C   UNL     1       2.093   7.160  19.340  0.00  0.00    +0.000 A 
ATOM      2  C   UNL     1       1.598   6.478  20.453  0.00  0.00    +0.000 A 
ATOM      3  C   UNL     1       2.025   5.177  20.738  0.00  0.00    +0.000 A 
ATOM      4  C   UNL     1       2.942   4.512  19.937  0.00  0.00    +0.000 A 
ATOM      5  N   UNL     1       3.326   3.294  20.323  0.00  0.00    +0.000 NA
ATOM      6  C   UNL     1       4.248   2.692  19.567  0.00  0.00    +0.000 A 
ATOM      7  N   UNL     1       4.819   3.190  18.465  0.00  0.00    +0.000 NA
ATOM      8  C   UNL     1       4.422   4.416  18.077  0.00  0.00    +0.000 A 
ATOM      9  N   UNL     1       5.058   4.995  16.965  0.00  0.00    +0.000 N 
ATOM     10  C   UNL     1       3.441   5.147  18.792  0.00  0.00    +0.000 A 
ATOM     11  C   UNL     1       2.990   6.473  18.500  0.00  0.00    +0.000 A 
ATOM     12  H   UNL     1       4.408   5.136  16.198  0.00  0.00    +0.000 HD
ENDROOT
BRANCH   1  16
ATOM     13  C   UNL     1       0.678  10.436  19.661  0.00  0.00    +0.000 A 
ATOM     14  C   UNL     1       1.297  10.663  18.448  0.00  0.00    +0.000 A 
ATOM     15  C   UNL     1       1.997   9.476  18.119  0.00  0.00    +0.000 A 
ATOM     16  C   UNL     1       1.752   8.569  19.133  0.00  0.00    +0.000 A 
ATOM     17  O   UNL     1       0.967   9.161  20.084  0.00  0.00    +0.000 OA
BRANCH  13  18
ATOM     18  C   UNL     1      -0.121  11.318  20.486  0.00  0.00    +0.000 C 
ATOM     19  O   UNL     1      -1.006  12.054  20.078  0.00  0.00    +0.000 OA
BRANCH  18  20
ATOM     20  O   UNL     1       0.336  11.278  21.769  0.00  0.00    +0.000 OA
BRANCH  20  22
ATOM     21  C   UNL     1      -0.296   9.518  23.252  0.00  0.00    +0.000 C 
ATOM     22  C   UNL     1      -0.635  10.916  22.762  0.00  0.00    +0.000 C 
ENDBRANCH  20  22
ENDBRANCH  18  20
ENDBRANCH  13  18
ENDBRANCH   1  16
BRANCH   9  23
ATOM     23  C   UNL     1       6.325   4.384  16.541  0.00  0.00    +0.000 C 
BRANCH  23  24
ATOM     24  C   UNL     1       6.521   4.416  15.055  0.00  0.00    +0.000 A 
ATOM     25  C   UNL     1       7.413   5.122  14.275  0.00  0.00    +0.000 A 
ATOM     26  C   UNL     1       7.226   4.686  12.946  0.00  0.00    +0.000 A 
ATOM     27  C   UNL     1       6.218   3.746  12.985  0.00  0.00    +0.000 A 
ATOM     28  C   UNL     1       5.583   2.922  11.936  0.00  0.00    +0.000 C 
ATOM     29  O   UNL     1       5.777   3.580  14.269  0.00  0.00    +0.000 OA
ENDBRANCH  23  24
ENDBRANCH   9  23
TORSDOF 6
ENDMDL
MODEL 4
REMARK VINA RESULT:      -8.1      1.966      8.693
REMARK  Name = 
REMARK  8 active torsions:
REMARK  status: ('A' for Active; 'I' for Inactive)
REMARK    1  A    between atoms: C_1  and  C_2
REMARK    2  A    between atoms: C_2  and  O_3
REMARK    3  A    between atoms: O_3  and  C_4
REMARK    4  A    between atoms: C_4  and  C_6
REMARK    5  A    between atoms: C_9  and  C_10
REMARK    6  A    between atoms: N_18  and  C_19
REMARK    7  A    between atoms: C_19  and  C_20
REMARK    8  A    between atoms: C_23  and  C_24
REMARK                            x       y       z     vdW  Elec       q    Type
REMARK                         _______ _______ _______ _____ _____    ______ ____
ROOT
ATOM      1  C   UNL     1       2.012   7.287  19.507  0.00  0.00    +0.000 A 
ATOM      2  C   UNL     1       1.455   6.554  20.557  0.00  0.00    +0.000 A 
ATOM      3  C   UNL     1       1.890   5.253  20.826  0.00  0.00    +0.000 A 
ATOM      4  C   UNL     1       2.877   4.636  20.071  0.00  0.00    +0.000 A 
ATOM      5  N   UNL     1       3.261   3.413  20.441  0.00  0.00    +0.000 NA
ATOM      6  C   UNL     1       4.248   2.858  19.732  0.00  0.00    +0.000 A 
ATOM      7  N   UNL     1       4.886   3.408  18.693  0.00  0.00    +0.000 NA
ATOM      8  C   UNL     1       4.489   4.640  18.320  0.00  0.00    +0.000 A 
ATOM      9  N   UNL     1       5.189   5.272  17.279  0.00  0.00    +0.000 N 
ATOM     10  C   UNL     1       3.442   5.324  18.988  0.00  0.00    +0.000 A 
ATOM     11  C   UNL     1       2.983   6.650  18.711  0.00  0.00    +0.000 A 
ATOM     12  H   UNL     1       4.594   5.428  16.473  0.00  0.00    +0.000 HD
ENDROOT
BRANCH   1  16
ATOM     13  C   UNL     1       0.700  10.587  19.980  0.00  0.00    +0.000 A 
ATOM     14  C   UNL     1       1.113  10.780  18.676  0.00  0.00    +0.000 A 
ATOM     15  C   UNL     1       1.738   9.577  18.265  0.00  0.00    +0.000 A 
ATOM     16  C   UNL     1       1.655   8.696  19.326  0.00  0.00    +0.000 A 
ATOM     17  O   UNL     1       1.043   9.318  20.379  0.00  0.00    +0.000 OA
BRANCH  13  18
ATOM     18  C   UNL     1       0.055  11.497  20.903  0.00  0.00    +0.000 C 
ATOM     19  O   UNL     1       0.626  12.147  21.765  0.00  0.00    +0.000 OA
BRANCH  18  20
ATOM     20  O   UNL     1      -1.295  11.435  20.733  0.00  0.00    +0.000 OA
BRANCH  20  22
ATOM     21  C   UNL     1      -2.797  11.870  18.929  0.00  0.00    +0.000 C 
ATOM     22  C   UNL     1      -1.872  12.498  19.959  0.00  0.00    +0.000 C 
ENDBRANCH  20  22
ENDBRANCH  18  20
ENDBRANCH  13  18
ENDBRANCH   1  16
BRANCH   9  23
ATOM     23  C   UNL     1       6.498   4.704  16.927  0.00  0.00    +0.000 C 
BRANCH  23  24
ATOM     24  C   UNL     1       6.681   4.530  15.449  0.00  0.00    +0.000 A 
ATOM     25  C   UNL     1       6.023   3.723  14.545  0.00  0.00    +0.000 A 
ATOM     26  C   UNL     1       6.531   4.042  13.268  0.00  0.00    +0.000 A 
ATOM     27  C   UNL     1       7.485   5.019  13.464  0.00  0.00    +0.000 A 
ATOM     28  C   UNL     1       8.351   5.767  12.530  0.00  0.00    +0.000 C 
ATOM     29  O   UNL     1       7.588   5.318  14.795  0.00  0.00    +0.000 OA
ENDBRANCH  23  24
ENDBRANCH   9  23
TORSDOF 6
ENDMDL
MODEL 5
REMARK VINA RESULT:      -8.0      2.095      8.164
REMARK  Name = 
REMARK  8 active torsions:
REMARK  status: ('A' for Active; 'I' for Inactive)
REMARK    1  A    between atoms: C_1  and  C_2
REMARK    2  A    between atoms: C_2  and  O_3
REMARK    3  A    between atoms: O_3  and  C_4
REMARK    4  A    between atoms: C_4  and  C_6
REMARK    5  A    between atoms: C_9  and  C_10
REMARK    6  A    between atoms: N_18  and  C_19
REMARK    7  A    between atoms: C_19  and  C_20
REMARK    8  A    between atoms: C_23  and  C_24
REMARK                            x       y       z     vdW  Elec       q    Type
REMARK                         _______ _______ _______ _____ _____    ______ ____
ROOT
ATOM      1  C   UNL     1       1.928   6.641  20.345  0.00  0.00    +0.000 A 
ATOM      2  C   UNL     1       1.407   5.610  21.128  0.00  0.00    +0.000 A 
ATOM      3  C   UNL     1       1.935   4.318  21.047  0.00  0.00    +0.000 A 
ATOM      4  C   UNL     1       2.983   4.004  20.194  0.00  0.00    +0.000 A 
ATOM      5  N   UNL     1       3.452   2.755  20.230  0.00  0.00    +0.000 NA
ATOM      6  C   UNL     1       4.494   2.487  19.438  0.00  0.00    +0.000 A 
ATOM      7  N   UNL     1       5.110   3.346  18.618  0.00  0.00    +0.000 NA
ATOM      8  C   UNL     1       4.627   4.602  18.581  0.00  0.00    +0.000 A 
ATOM      9  N   UNL     1       5.299   5.544  17.785  0.00  0.00    +0.000 N 
ATOM     10  C   UNL     1       3.517   5.001  19.366  0.00  0.00    +0.000 A 
ATOM     11  C   UNL     1       2.962   6.318  19.445  0.00  0.00    +0.000 A 
ATOM     12  H   UNL     1       4.710   5.876  17.028  0.00  0.00    +0.000 HD
ENDROOT
BRANCH   1  16
ATOM     13  C   UNL     1       0.953  10.048  19.816  0.00  0.00    +0.000 A 
ATOM     14  C   UNL     1       0.906  10.095  21.195  0.00  0.00    +0.000 A 
ATOM     15  C   UNL     1       1.218   8.793  21.658  0.00  0.00    +0.000 A 
ATOM     16  C   UNL     1       1.467   8.017  20.543  0.00  0.00    +0.000 A 
ATOM     17  O   UNL     1       1.284   8.775  19.419  0.00  0.00    +0.000 OA
BRANCH  13  18
ATOM     18  C   UNL     1       0.672  11.072  18.832  0.00  0.00    +0.000 C 
ATOM     19  O   UNL     1       1.206  12.170  18.785  0.00  0.00    +0.000 OA
BRANCH  18  20
ATOM     20  O   UNL     1      -0.354  10.665  18.034  0.00  0.00    +0.000 OA
BRANCH  20  22
ATOM     21  C   UNL     1      -2.397  11.795  18.535  0.00  0.00    +0.000 C 
ATOM     22  C   UNL     1      -1.621  10.497  18.689  0.00  0.00    +0.000 C 
ENDBRANCH  20  22
ENDBRANCH  18  20
ENDBRANCH  13  18
ENDBRANCH   1  16
BRANCH   9  23
ATOM     23  C   UNL     1       6.655   5.187  17.345  0.00  0.00    +0.000 C 
BRANCH  23  24
ATOM     24  C   UNL     1       6.717   4.798  15.899  0.00  0.00    +0.000 A 
ATOM     25  C   UNL     1       5.981   3.883  15.175  0.00  0.00    +0.000 A 
ATOM     26  C   UNL     1       6.387   4.005  13.829  0.00  0.00    +0.000 A 
ATOM     27  C   UNL     1       7.362   4.980  13.806  0.00  0.00    +0.000 A 
ATOM     28  C   UNL     1       8.157   5.569  12.709  0.00  0.00    +0.000 C 
ATOM     29  O   UNL     1       7.575   5.465  15.068  0.00  0.00    +0.000 OA
ENDBRANCH  23  24
ENDBRANCH   9  23
TORSDOF 6
ENDMDL
MODEL 6
REMARK VINA RESULT:      -7.9      2.105      8.245
REMARK  Name = 
REMARK  8 active torsions:
REMARK  status: ('A' for Active; 'I' for Inactive)
REMARK    1  A    between atoms: C_1  and  C_2
REMARK    2  A    between atoms: C_2  and  O_3
REMARK    3  A    between atoms: O_3  and  C_4
REMARK    4  A    between atoms: C_4  and  C_6
REMARK    5  A    between atoms: C_9  and  C_10
REMARK    6  A    between atoms: N_18  and  C_19
REMARK    7  A    between atoms: C_19  and  C_20
REMARK    8  A    between atoms: C_23  and  C_24
REMARK                            x       y       z     vdW  Elec       q    Type
REMARK                         _______ _______ _______ _____ _____    ______ ____
ROOT
ATOM      1  C   UNL     1       1.851   6.761  20.308  0.00  0.00    +0.000 A 
ATOM      2  C   UNL     1       1.277   5.720  21.039  0.00  0.00    +0.000 A 
ATOM      3  C   UNL     1       1.768   4.416  20.924  0.00  0.00    +0.000 A 
ATOM      4  C   UNL     1       2.829   4.100  20.088  0.00  0.00    +0.000 A 
ATOM      5  N   UNL     1       3.260   2.837  20.090  0.00  0.00    +0.000 NA
ATOM      6  C   UNL     1       4.315   2.566  19.317  0.00  0.00    +0.000 A 
ATOM      7  N   UNL     1       4.979   3.434  18.547  0.00  0.00    +0.000 NA
ATOM      8  C   UNL     1       4.535   4.705  18.544  0.00  0.00    +0.000 A 
ATOM      9  N   UNL     1       5.257   5.655  17.801  0.00  0.00    +0.000 N 
ATOM     10  C   UNL     1       3.416   5.110  19.313  0.00  0.00    +0.000 A 
ATOM     11  C   UNL     1       2.900   6.439  19.426  0.00  0.00    +0.000 A 
ATOM     12  H   UNL     1       4.701   6.032  17.041  0.00  0.00    +0.000 HD
ENDROOT
BRANCH   1  16
ATOM     13  C   UNL     1       0.983  10.211  19.878  0.00  0.00    +0.000 A 
ATOM     14  C   UNL     1       0.914  10.214  21.257  0.00  0.00    +0.000 A 
ATOM     15  C   UNL     1       1.180   8.889  21.681  0.00  0.00    +0.000 A 
ATOM     16  C   UNL     1       1.426   8.143  20.544  0.00  0.00    +0.000 A 
ATOM     17  O   UNL     1       1.283   8.943  19.444  0.00  0.00    +0.000 OA
BRANCH  13  18
ATOM     18  C   UNL     1       0.748  11.275  18.925  0.00  0.00    +0.000 C 
ATOM     19  O   UNL     1      -0.325  11.521  18.394  0.00  0.00    +0.000 OA
BRANCH  18  20
ATOM     20  O   UNL     1       1.927  11.892  18.633  0.00  0.00    +0.000 OA
BRANCH  20  22
ATOM     21  C   UNL     1       2.989  13.990  18.225  0.00  0.00    +0.000 C 
ATOM     22  C   UNL     1       2.085  13.214  19.170  0.00  0.00    +0.000 C 
ENDBRANCH  20  22
ENDBRANCH  18  20
ENDBRANCH  13  18
ENDBRANCH   1  16
BRANCH   9  23
ATOM     23  C   UNL     1       6.614   5.271  17.385  0.00  0.00    +0.000 C 
BRANCH  23  24
ATOM     24  C   UNL     1       6.687   4.849  15.948  0.00  0.00    +0.000 A 
ATOM     25  C   UNL     1       5.965   3.908  15.244  0.00  0.00    +0.000 A 
ATOM     26  C   UNL     1       6.377   4.002  13.897  0.00  0.00    +0.000 A 
ATOM     27  C   UNL     1       7.340   4.988  13.855  0.00  0.00    +0.000 A 
ATOM     28  C   UNL     1       8.134   5.559  12.748  0.00  0.00    +0.000 C 
ATOM     29  O   UNL     1       7.541   5.506  15.106  0.00  0.00    +0.000 OA
ENDBRANCH  23  24
ENDBRANCH   9  23
TORSDOF 6
ENDMDL
MODEL 7
REMARK VINA RESULT:      -7.9      1.628      2.143
REMARK  Name = 
REMARK  8 active torsions:
REMARK  status: ('A' for Active; 'I' for Inactive)
REMARK    1  A    between atoms: C_1  and  C_2
REMARK    2  A    between atoms: C_2  and  O_3
REMARK    3  A    between atoms: O_3  and  C_4
REMARK    4  A    between atoms: C_4  and  C_6
REMARK    5  A    between atoms: C_9  and  C_10
REMARK    6  A    between atoms: N_18  and  C_19
REMARK    7  A    between atoms: C_19  and  C_20
REMARK    8  A    between atoms: C_23  and  C_24
REMARK                            x       y       z     vdW  Elec       q    Type
REMARK                         _______ _______ _______ _____ _____    ______ ____
ROOT
ATOM      1  C   UNL     1       5.033   4.980  16.810  0.00  0.00    +0.000 A 
ATOM      2  C   UNL     1       5.010   3.928  17.728  0.00  0.00    +0.000 A 
ATOM      3  C   UNL     1       4.240   4.017  18.892  0.00  0.00    +0.000 A 
ATOM      4  C   UNL     1       3.479   5.138  19.187  0.00  0.00    +0.000 A 
ATOM      5  N   UNL     1       2.736   5.103  20.295  0.00  0.00    +0.000 NA
ATOM      6  C   UNL     1       1.971   6.172  20.533  0.00  0.00    +0.000 A 
ATOM      7  N   UNL     1       1.878   7.267  19.771  0.00  0.00    +0.000 NA
ATOM      8  C   UNL     1       2.635   7.299  18.659  0.00  0.00    +0.000 A 
ATOM      9  N   UNL     1       2.503   8.405  17.801  0.00  0.00    +0.000 N 
ATOM     10  C   UNL     1       3.496   6.230  18.308  0.00  0.00    +0.000 A 
ATOM     11  C   UNL     1       4.296   6.137  17.126  0.00  0.00    +0.000 A 
ATOM     12  H   UNL     1       3.365   8.937  17.748  0.00  0.00    +0.000 HD
ENDROOT
BRANCH   1  16
ATOM     13  C   UNL     1       5.927   3.969  13.491  0.00  0.00    +0.000 A 
ATOM     14  C   UNL     1       7.103   4.641  13.760  0.00  0.00    +0.000 A 
ATOM     15  C   UNL     1       6.966   5.198  15.056  0.00  0.00    +0.000 A 
ATOM     16  C   UNL     1       5.724   4.819  15.529  0.00  0.00    +0.000 A 
ATOM     17  O   UNL     1       5.082   4.089  14.567  0.00  0.00    +0.000 OA
BRANCH  13  18
ATOM     18  C   UNL     1       5.502   3.263  12.300  0.00  0.00    +0.000 C 
ATOM     19  O   UNL     1       6.083   2.313  11.799  0.00  0.00    +0.000 OA
BRANCH  18  20
ATOM     20  O   UNL     1       4.414   3.886  11.768  0.00  0.00    +0.000 OA
BRANCH  20  22
ATOM     21  C   UNL     1       3.023   4.074   9.837  0.00  0.00    +0.000 C 
ATOM     22  C   UNL     1       3.650   3.111  10.832  0.00  0.00    +0.000 C 
ENDBRANCH  20  22
ENDBRANCH  18  20
ENDBRANCH  13  18
ENDBRANCH   1  16
BRANCH   9  23
ATOM     23  C   UNL     1       1.316   9.250  17.995  0.00  0.00    +0.000 C 
BRANCH  23  24
ATOM     24  C   UNL     1       1.655  10.649  18.412  0.00  0.00    +0.000 A 
ATOM     25  C   UNL     1       2.468  11.596  17.823  0.00  0.00    +0.000 A 
ATOM     26  C   UNL     1       2.336  12.776  18.586  0.00  0.00    +0.000 A 
ATOM     27  C   UNL     1       1.461  12.480  19.610  0.00  0.00    +0.000 A 
ATOM     28  C   UNL     1       0.914  13.289  20.718  0.00  0.00    +0.000 C 
ATOM     29  O   UNL     1       1.045  11.180  19.515  0.00  0.00    +0.000 OA
ENDBRANCH  23  24
ENDBRANCH   9  23
TORSDOF 6
ENDMDL
MODEL 8
REMARK VINA RESULT:      -7.9      1.684      8.618
REMARK  Name = 
REMARK  8 active torsions:
REMARK  status: ('A' for Active; 'I' for Inactive)
REMARK    1  A    between atoms: C_1  and  C_2
REMARK    2  A    between atoms: C_2  and  O_3
REMARK    3  A    between atoms: O_3  and  C_4
REMARK    4  A    between atoms: C_4  and  C_6
REMARK    5  A    between atoms: C_9  and  C_10
REMARK    6  A    between atoms: N_18  and  C_19
REMARK    7  A    between atoms: C_19  and  C_20
REMARK    8  A    between atoms: C_23  and  C_24
REMARK                            x       y       z     vdW  Elec       q    Type
REMARK                         _______ _______ _______ _____ _____    ______ ____
ROOT
ATOM      1  C   UNL     1       2.110   7.166  19.341  0.00  0.00    +0.000 A 
ATOM      2  C   UNL     1       1.616   6.476  20.449  0.00  0.00    +0.000 A 
ATOM      3  C   UNL     1       2.033   5.169  20.716  0.00  0.00    +0.000 A 
ATOM      4  C   UNL     1       2.939   4.505  19.902  0.00  0.00    +0.000 A 
ATOM      5  N   UNL     1       3.316   3.279  20.272  0.00  0.00    +0.000 NA
ATOM      6  C   UNL     1       4.228   2.678  19.504  0.00  0.00    +0.000 A 
ATOM      7  N   UNL     1       4.797   3.184  18.405  0.00  0.00    +0.000 NA
ATOM      8  C   UNL     1       4.408   4.418  18.032  0.00  0.00    +0.000 A 
ATOM      9  N   UNL     1       5.043   5.005  16.924  0.00  0.00    +0.000 N 
ATOM     10  C   UNL     1       3.437   5.149  18.761  0.00  0.00    +0.000 A 
ATOM     11  C   UNL     1       2.996   6.482  18.488  0.00  0.00    +0.000 A 
ATOM     12  H   UNL     1       4.390   5.160  16.163  0.00  0.00    +0.000 HD
ENDROOT
BRANCH   1  16
ATOM     13  C   UNL     1       0.868  10.496  19.799  0.00  0.00    +0.000 A 
ATOM     14  C   UNL     1       1.276  10.672  18.492  0.00  0.00    +0.000 A 
ATOM     15  C   UNL     1       1.874   9.453  18.085  0.00  0.00    +0.000 A 
ATOM     16  C   UNL     1       1.780   8.581  19.152  0.00  0.00    +0.000 A 
ATOM     17  O   UNL     1       1.187   9.223  20.205  0.00  0.00    +0.000 OA
BRANCH  13  18
ATOM     18  C   UNL     1       0.248  11.425  20.720  0.00  0.00    +0.000 C 
ATOM     19  O   UNL     1       0.847  12.161  21.489  0.00  0.00    +0.000 OA
BRANCH  18  20
ATOM     20  O   UNL     1      -1.105  11.276  20.672  0.00  0.00    +0.000 OA
BRANCH  20  22
ATOM     21  C   UNL     1      -2.431  11.779  18.752  0.00  0.00    +0.000 C 
ATOM     22  C   UNL     1      -1.824  12.339  20.029  0.00  0.00    +0.000 C 
ENDBRANCH  20  22
ENDBRANCH  18  20
ENDBRANCH  13  18
ENDBRANCH   1  16
BRANCH   9  23
ATOM     23  C   UNL     1       6.303   4.388  16.485  0.00  0.00    +0.000 C 
BRANCH  23  24
ATOM     24  C   UNL     1       6.469   4.393  14.996  0.00  0.00    +0.000 A 
ATOM     25  C   UNL     1       7.389   5.031  14.190  0.00  0.00    +0.000 A 
ATOM     26  C   UNL     1       7.145   4.597  12.870  0.00  0.00    +0.000 A 
ATOM     27  C   UNL     1       6.078   3.727  12.939  0.00  0.00    +0.000 A 
ATOM     28  C   UNL     1       5.367   2.937  11.912  0.00  0.00    +0.000 C 
ATOM     29  O   UNL     1       5.654   3.602  14.234  0.00  0.00    +0.000 OA
ENDBRANCH  23  24
ENDBRANCH   9  23
TORSDOF 6
ENDMDL
MODEL 9
REMARK VINA RESULT:      -7.8      3.721      6.112
REMARK  Name = 
REMARK  8 active torsions:
REMARK  status: ('A' for Active; 'I' for Inactive)
REMARK    1  A    between atoms: C_1  and  C_2
REMARK    2  A    between atoms: C_2  and  O_3
REMARK    3  A    between atoms: O_3  and  C_4
REMARK    4  A    between atoms: C_4  and  C_6
REMARK    5  A    between atoms: C_9  and  C_10
REMARK    6  A    between atoms: N_18  and  C_19
REMARK    7  A    between atoms: C_19  and  C_20
REMARK    8  A    between atoms: C_23  and  C_24
REMARK                            x       y       z     vdW  Elec       q    Type
REMARK                         _______ _______ _______ _____ _____    ______ ____
ROOT
ATOM      1  C   UNL     1       1.972   7.945  19.791  0.00  0.00    +0.000 A 
ATOM      2  C   UNL     1       1.894   7.732  21.168  0.00  0.00    +0.000 A 
ATOM      3  C   UNL     1       1.199   8.627  21.988  0.00  0.00    +0.000 A 
ATOM      4  C   UNL     1       0.569   9.754  21.479  0.00  0.00    +0.000 A 
ATOM      5  N   UNL     1      -0.114  10.517  22.335  0.00  0.00    +0.000 NA
ATOM      6  C   UNL     1      -0.756  11.567  21.817  0.00  0.00    +0.000 A 
ATOM      7  N   UNL     1      -0.781  11.925  20.529  0.00  0.00    +0.000 NA
ATOM      8  C   UNL     1      -0.084  11.156  19.671  0.00  0.00    +0.000 A 
ATOM      9  N   UNL     1      -0.152  11.465  18.302  0.00  0.00    +0.000 N 
ATOM     10  C   UNL     1       0.648  10.023  20.106  0.00  0.00    +0.000 A 
ATOM     11  C   UNL     1       1.371   9.110  19.275  0.00  0.00    +0.000 A 
ATOM     12  H   UNL     1       0.755  11.743  17.940  0.00  0.00    +0.000 HD
ENDROOT
BRANCH   1  16
ATOM     13  C   UNL     1       3.958   6.274  17.321  0.00  0.00    +0.000 A 
ATOM     14  C   UNL     1       3.170   5.185  17.635  0.00  0.00    +0.000 A 
ATOM     15  C   UNL     1       2.297   5.599  18.672  0.00  0.00    +0.000 A 
ATOM     16  C   UNL     1       2.575   6.929  18.925  0.00  0.00    +0.000 A 
ATOM     17  O   UNL     1       3.602   7.334  18.118  0.00  0.00    +0.000 OA
BRANCH  13  18
ATOM     18  C   UNL     1       5.047   6.402  16.375  0.00  0.00    +0.000 C 
ATOM     19  O   UNL     1       4.996   7.018  15.321  0.00  0.00    +0.000 OA
BRANCH  18  20
ATOM     20  O   UNL     1       6.099   5.644  16.790  0.00  0.00    +0.000 OA
BRANCH  20  22
ATOM     21  C   UNL     1       7.551   7.352  17.611  0.00  0.00    +0.000 C 
ATOM     22  C   UNL     1       6.765   6.103  17.976  0.00  0.00    +0.000 C 
ENDBRANCH  20  22
ENDBRANCH  18  20
ENDBRANCH  13  18
ENDBRANCH   1  16
BRANCH   9  23
ATOM     23  C   UNL     1      -1.237  12.363  17.883  0.00  0.00    +0.000 C 
BRANCH  23  24
ATOM     24  C   UNL     1      -2.401  11.634  17.283  0.00  0.00    +0.000 A 
ATOM     25  C   UNL     1      -3.669  11.395  17.772  0.00  0.00    +0.000 A 
ATOM     26  C   UNL     1      -4.389  10.753  16.741  0.00  0.00    +0.000 A 
ATOM     27  C   UNL     1      -3.515  10.621  15.683  0.00  0.00    +0.000 A 
ATOM     28  C   UNL     1      -3.669  10.054  14.327  0.00  0.00    +0.000 C 
ATOM     29  O   UNL     1      -2.296  11.151  16.008  0.00  0.00    +0.000 OA
ENDBRANCH  23  24
ENDBRANCH   9  23
TORSDOF 6
ENDMDL
