MODEL 1
REMARK VINA RESULT:      -9.0      0.000      0.000
REMARK  Name = 
REMARK  4 active torsions:
REMARK  status: ('A' for Active; 'I' for Inactive)
REMARK    1  A    between atoms: C_1  and  O_2
REMARK    2  A    between atoms: O_2  and  C_3
REMARK    3  A    between atoms: C_7  and  C_8
REMARK    4  A    between atoms: N_12  and  C_13
REMARK                            x       y       z     vdW  Elec       q    Type
REMARK                         _______ _______ _______ _____ _____    ______ ____
ROOT
ATOM      1  C   UNL     1       3.193   3.724  17.932  0.00  0.00    +0.000 A 
ATOM      2  C   UNL     1       2.425   2.584  17.779  0.00  0.00    +0.000 A 
ATOM      3  N   UNL     1       1.342   2.627  18.600  0.00  0.00    +0.000 NA
ATOM      4  N   UNL     1       1.382   3.774  19.257  0.00  0.00    +0.000 NA
ATOM      5  N   UNL     1       2.387   4.529  18.737  0.00  0.00    +0.000 N 
ENDROOT
BRANCH   5   6
ATOM      6  C   UNL     1       2.368   5.941  18.921  0.00  0.00    +0.000 A 
ATOM      7  C   UNL     1       2.572   6.817  17.838  0.00  0.00    +0.000 A 
ATOM      8  C   UNL     1       2.298   8.179  17.964  0.00  0.00    +0.000 A 
ATOM      9  C   UNL     1       1.802   8.652  19.166  0.00  0.00    +0.000 A 
ATOM     10  C   UNL     1       1.716   7.813  20.288  0.00  0.00    +0.000 A 
ATOM     11  C   UNL     1       1.984   6.454  20.171  0.00  0.00    +0.000 A 
ATOM     12  C   UNL     1       1.223   8.426  21.534  0.00  0.00    +0.000 C 
ATOM     13  C   UNL     1      -0.005   8.929  21.300  0.00  0.00    +0.000 C 
ATOM     14  S   UNL     1       0.006  10.279  20.141  0.00  0.00    +0.000 S 
ATOM     15  O   UNL     1      -1.168  10.143  19.297  0.00  0.00    +0.000 OA
ATOM     16  O   UNL     1       0.261  11.498  20.871  0.00  0.00    +0.000 OA
ATOM     17  O   UNL     1       1.333   9.942  19.225  0.00  0.00    +0.000 OA
ENDBRANCH   5   6
BRANCH   1  22
ATOM     18  C   UNL     1       6.864   4.546  17.743  0.00  0.00    +0.000 A 
ATOM     19  C   UNL     1       7.056   4.566  16.359  0.00  0.00    +0.000 A 
ATOM     20  C   UNL     1       5.985   4.366  15.491  0.00  0.00    +0.000 A 
ATOM     21  C   UNL     1       4.711   4.141  16.008  0.00  0.00    +0.000 A 
ATOM     22  C   UNL     1       4.509   4.057  17.394  0.00  0.00    +0.000 A 
ATOM     23  C   UNL     1       5.593   4.280  18.257  0.00  0.00    +0.000 A 
BRANCH  18  25
ATOM     24  C   UNL     1       7.897   5.771  19.504  0.00  0.00    +0.000 C 
ATOM     25  O   UNL     1       7.992   4.794  18.475  0.00  0.00    +0.000 OA
ENDBRANCH  18  25
ENDBRANCH   1  22
TORSDOF 3
ENDMDL
MODEL 2
REMARK VINA RESULT:      -8.9      0.921      1.802
REMARK  Name = 
REMARK  4 active torsions:
REMARK  status: ('A' for Active; 'I' for Inactive)
REMARK    1  A    between atoms: C_1  and  O_2
REMARK    2  A    between atoms: O_2  and  C_3
REMARK    3  A    between atoms: C_7  and  C_8
REMARK    4  A    between atoms: N_12  and  C_13
REMARK                            x       y       z     vdW  Elec       q    Type
REMARK                         _______ _______ _______ _____ _____    ______ ____
ROOT
ATOM      1  C   UNL     1       3.389   3.733  18.069  0.00  0.00    +0.000 A 
ATOM      2  C   UNL     1       2.654   2.586  17.831  0.00  0.00    +0.000 A 
ATOM      3  N   UNL     1       1.477   2.627  18.511  0.00  0.00    +0.000 NA
ATOM      4  N   UNL     1       1.427   3.778  19.159  0.00  0.00    +0.000 NA
ATOM      5  N   UNL     1       2.484   4.537  18.762  0.00  0.00    +0.000 N 
ENDROOT
BRANCH   5   6
ATOM      6  C   UNL     1       2.433   5.950  18.931  0.00  0.00    +0.000 A 
ATOM      7  C   UNL     1       2.634   6.820  17.842  0.00  0.00    +0.000 A 
ATOM      8  C   UNL     1       2.330   8.177  17.950  0.00  0.00    +0.000 A 
ATOM      9  C   UNL     1       1.807   8.651  19.140  0.00  0.00    +0.000 A 
ATOM     10  C   UNL     1       1.723   7.822  20.270  0.00  0.00    +0.000 A 
ATOM     11  C   UNL     1       2.020   6.467  20.169  0.00  0.00    +0.000 A 
ATOM     12  C   UNL     1       1.199   8.437  21.502  0.00  0.00    +0.000 C 
ATOM     13  C   UNL     1      -0.035   8.912  21.246  0.00  0.00    +0.000 C 
ATOM     14  S   UNL     1      -0.036  10.250  20.072  0.00  0.00    +0.000 S 
ATOM     15  O   UNL     1      -1.195  10.081  19.214  0.00  0.00    +0.000 OA
ATOM     16  O   UNL     1       0.183  11.481  20.794  0.00  0.00    +0.000 OA
ATOM     17  O   UNL     1       1.311   9.932  19.179  0.00  0.00    +0.000 OA
ENDBRANCH   5   6
BRANCH   1  22
ATOM     18  C   UNL     1       6.463   4.370  15.988  0.00  0.00    +0.000 A 
ATOM     19  C   UNL     1       7.344   4.846  16.962  0.00  0.00    +0.000 A 
ATOM     20  C   UNL     1       6.957   4.908  18.300  0.00  0.00    +0.000 A 
ATOM     21  C   UNL     1       5.679   4.495  18.668  0.00  0.00    +0.000 A 
ATOM     22  C   UNL     1       4.760   4.072  17.696  0.00  0.00    +0.000 A 
ATOM     23  C   UNL     1       5.168   3.996  16.356  0.00  0.00    +0.000 A 
BRANCH  18  25
ATOM     24  C   UNL     1       6.122   3.892  13.681  0.00  0.00    +0.000 C 
ATOM     25  O   UNL     1       6.984   4.328  14.725  0.00  0.00    +0.000 OA
ENDBRANCH  18  25
ENDBRANCH   1  22
TORSDOF 3
ENDMDL
MODEL 3
REMARK VINA RESULT:      -8.7      1.478      2.025
REMARK  Name = 
REMARK  4 active torsions:
REMARK  status: ('A' for Active; 'I' for Inactive)
REMARK    1  A    between atoms: C_1  and  O_2
REMARK    2  A    between atoms: O_2  and  C_3
REMARK    3  A    between atoms: C_7  and  C_8
REMARK    4  A    between atoms: N_12  and  C_13
REMARK                            x       y       z     vdW  Elec       q    Type
REMARK                         _______ _______ _______ _____ _____    ______ ____
ROOT
ATOM      1  C   UNL     1       3.924   4.979  17.852  0.00  0.00    +0.000 A 
ATOM      2  C   UNL     1       3.463   3.868  17.170  0.00  0.00    +0.000 A 
ATOM      3  N   UNL     1       2.115   3.755  17.303  0.00  0.00    +0.000 NA
ATOM      4  N   UNL     1       1.697   4.776  18.032  0.00  0.00    +0.000 NA
ATOM      5  N   UNL     1       2.744   5.624  18.218  0.00  0.00    +0.000 N 
ENDROOT
BRANCH   5   6
ATOM      6  C   UNL     1       2.490   6.985  18.552  0.00  0.00    +0.000 A 
ATOM      7  C   UNL     1       2.544   7.996  17.574  0.00  0.00    +0.000 A 
ATOM      8  C   UNL     1       2.048   9.272  17.841  0.00  0.00    +0.000 A 
ATOM      9  C   UNL     1       1.483   9.522  19.078  0.00  0.00    +0.000 A 
ATOM     10  C   UNL     1       1.540   8.564  20.103  0.00  0.00    +0.000 A 
ATOM     11  C   UNL     1       2.029   7.289  19.844  0.00  0.00    +0.000 A 
ATOM     12  C   UNL     1       0.953   8.948  21.399  0.00  0.00    +0.000 C 
ATOM     13  C   UNL     1      -0.341   9.263  21.201  0.00  0.00    +0.000 C 
ATOM     14  S   UNL     1      -0.557  10.714  20.193  0.00  0.00    +0.000 S 
ATOM     15  O   UNL     1      -1.694  10.478  19.321  0.00  0.00    +0.000 OA
ATOM     16  O   UNL     1      -0.507  11.872  21.054  0.00  0.00    +0.000 OA
ATOM     17  O   UNL     1       0.806  10.703  19.268  0.00  0.00    +0.000 OA
ENDBRANCH   5   6
BRANCH   1  22
ATOM     18  C   UNL     1       7.147   6.923  17.684  0.00  0.00    +0.000 A 
ATOM     19  C   UNL     1       7.854   6.349  18.744  0.00  0.00    +0.000 A 
ATOM     20  C   UNL     1       7.305   5.297  19.475  0.00  0.00    +0.000 A 
ATOM     21  C   UNL     1       6.040   4.816  19.149  0.00  0.00    +0.000 A 
ATOM     22  C   UNL     1       5.290   5.420  18.128  0.00  0.00    +0.000 A 
ATOM     23  C   UNL     1       5.861   6.465  17.387  0.00  0.00    +0.000 A 
BRANCH  18  25
ATOM     24  C   UNL     1       8.179   9.065  17.788  0.00  0.00    +0.000 C 
ATOM     25  O   UNL     1       7.817   7.919  17.029  0.00  0.00    +0.000 OA
ENDBRANCH  18  25
ENDBRANCH   1  22
TORSDOF 3
ENDMDL
MODEL 4
REMARK VINA RESULT:      -8.6      1.547      2.136
REMARK  Name = 
REMARK  4 active torsions:
REMARK  status: ('A' for Active; 'I' for Inactive)
REMARK    1  A    between atoms: C_1  and  O_2
REMARK    2  A    between atoms: O_2  and  C_3
REMARK    3  A    between atoms: C_7  and  C_8
REMARK    4  A    between atoms: N_12  and  C_13
REMARK                            x       y       z     vdW  Elec       q    Type
REMARK                         _______ _______ _______ _____ _____    ______ ____
ROOT
ATOM      1  C   UNL     1       3.566   4.284  19.477  0.00  0.00    +0.000 A 
ATOM      2  C   UNL     1       2.954   3.129  19.931  0.00  0.00    +0.000 A 
ATOM      3  N   UNL     1       1.953   3.433  20.799  0.00  0.00    +0.000 NA
ATOM      4  N   UNL     1       1.891   4.750  20.896  0.00  0.00    +0.000 NA
ATOM      5  N   UNL     1       2.731   5.286  19.970  0.00  0.00    +0.000 N 
ENDROOT
BRANCH   5   6
ATOM      6  C   UNL     1       2.532   6.629  19.539  0.00  0.00    +0.000 A 
ATOM      7  C   UNL     1       2.803   7.013  18.212  0.00  0.00    +0.000 A 
ATOM      8  C   UNL     1       2.369   8.246  17.726  0.00  0.00    +0.000 A 
ATOM      9  C   UNL     1       1.646   9.077  18.564  0.00  0.00    +0.000 A 
ATOM     10  C   UNL     1       1.481   8.761  19.922  0.00  0.00    +0.000 A 
ATOM     11  C   UNL     1       1.908   7.533  20.414  0.00  0.00    +0.000 A 
ATOM     12  C   UNL     1       0.739   9.736  20.741  0.00  0.00    +0.000 C 
ATOM     13  C   UNL     1      -0.485   9.896  20.202  0.00  0.00    +0.000 C 
ATOM     14  S   UNL     1      -0.442  10.645  18.588  0.00  0.00    +0.000 S 
ATOM     15  O   UNL     1      -1.452   9.992  17.774  0.00  0.00    +0.000 OA
ATOM     16  O   UNL     1      -0.436  12.079  18.757  0.00  0.00    +0.000 OA
ATOM     17  O   UNL     1       1.038  10.187  18.030  0.00  0.00    +0.000 OA
ENDBRANCH   5   6
BRANCH   1  22
ATOM     18  C   UNL     1       5.943   4.208  16.556  0.00  0.00    +0.000 A 
ATOM     19  C   UNL     1       7.027   4.915  17.083  0.00  0.00    +0.000 A 
ATOM     20  C   UNL     1       7.006   5.368  18.401  0.00  0.00    +0.000 A 
ATOM     21  C   UNL     1       5.893   5.116  19.199  0.00  0.00    +0.000 A 
ATOM     22  C   UNL     1       4.771   4.461  18.670  0.00  0.00    +0.000 A 
ATOM     23  C   UNL     1       4.813   3.993  17.348  0.00  0.00    +0.000 A 
BRANCH  18  25
ATOM     24  C   UNL     1       6.787   4.676  14.380  0.00  0.00    +0.000 C 
ATOM     25  O   UNL     1       6.112   3.791  15.265  0.00  0.00    +0.000 OA
ENDBRANCH  18  25
ENDBRANCH   1  22
TORSDOF 3
ENDMDL
MODEL 5
REMARK VINA RESULT:      -7.8      2.429      3.863
REMARK  Name = 
REMARK  4 active torsions:
REMARK  status: ('A' for Active; 'I' for Inactive)
REMARK    1  A    between atoms: C_1  and  O_2
REMARK    2  A    between atoms: O_2  and  C_3
REMARK    3  A    between atoms: C_7  and  C_8
REMARK    4  A    between atoms: N_12  and  C_13
REMARK                            x       y       z     vdW  Elec       q    Type
REMARK                         _______ _______ _______ _____ _____    ______ ____
ROOT
ATOM      1  C   UNL     1       4.385   5.485  17.664  0.00  0.00    +0.000 A 
ATOM      2  C   UNL     1       5.665   5.657  17.169  0.00  0.00    +0.000 A 
ATOM      3  N   UNL     1       5.821   6.917  16.684  0.00  0.00    +0.000 NA
ATOM      4  N   UNL     1       4.684   7.565  16.876  0.00  0.00    +0.000 NA
ATOM      5  N   UNL     1       3.868   6.780  17.629  0.00  0.00    +0.000 N 
ENDROOT
BRANCH   5   6
ATOM      6  C   UNL     1       2.802   7.377  18.360  0.00  0.00    +0.000 A 
ATOM      7  C   UNL     1       2.542   7.012  19.695  0.00  0.00    +0.000 A 
ATOM      8  C   UNL     1       1.679   7.771  20.484  0.00  0.00    +0.000 A 
ATOM      9  C   UNL     1       1.098   8.903  19.941  0.00  0.00    +0.000 A 
ATOM     10  C   UNL     1       1.248   9.204  18.578  0.00  0.00    +0.000 A 
ATOM     11  C   UNL     1       2.109   8.455  17.784  0.00  0.00    +0.000 A 
ATOM     12  C   UNL     1       0.548  10.404  18.086  0.00  0.00    +0.000 C 
ATOM     13  C   UNL     1       0.980  11.465  18.793  0.00  0.00    +0.000 C 
ATOM     14  S   UNL     1       0.527  11.387  20.512  0.00  0.00    +0.000 S 
ATOM     15  O   UNL     1       1.647  11.895  21.286  0.00  0.00    +0.000 OA
ATOM     16  O   UNL     1      -0.794  11.952  20.657  0.00  0.00    +0.000 OA
ATOM     17  O   UNL     1       0.423   9.764  20.772  0.00  0.00    +0.000 OA
ENDBRANCH   5   6
BRANCH   1  22
ATOM     18  C   UNL     1       3.004   2.837  19.960  0.00  0.00    +0.000 A 
ATOM     19  C   UNL     1       2.300   2.043  19.050  0.00  0.00    +0.000 A 
ATOM     20  C   UNL     1       2.320   2.338  17.688  0.00  0.00    +0.000 A 
ATOM     21  C   UNL     1       3.045   3.435  17.230  0.00  0.00    +0.000 A 
ATOM     22  C   UNL     1       3.707   4.279  18.135  0.00  0.00    +0.000 A 
ATOM     23  C   UNL     1       3.695   3.961  19.501  0.00  0.00    +0.000 A 
BRANCH  18  25
ATOM     24  C   UNL     1       1.677   2.558  21.916  0.00  0.00    +0.000 C 
ATOM     25  O   UNL     1       2.929   2.414  21.258  0.00  0.00    +0.000 OA
ENDBRANCH  18  25
ENDBRANCH   1  22
TORSDOF 3
ENDMDL
MODEL 6
REMARK VINA RESULT:      -7.7      2.765      6.516
REMARK  Name = 
REMARK  4 active torsions:
REMARK  status: ('A' for Active; 'I' for Inactive)
REMARK    1  A    between atoms: C_1  and  O_2
REMARK    2  A    between atoms: O_2  and  C_3
REMARK    3  A    between atoms: C_7  and  C_8
REMARK    4  A    between atoms: N_12  and  C_13
REMARK                            x       y       z     vdW  Elec       q    Type
REMARK                         _______ _______ _______ _____ _____    ______ ____
ROOT
ATOM      1  C   UNL     1       2.428   4.635  20.699  0.00  0.00    +0.000 A 
ATOM      2  C   UNL     1       2.193   4.175  21.981  0.00  0.00    +0.000 A 
ATOM      3  N   UNL     1       2.414   2.835  22.052  0.00  0.00    +0.000 NA
ATOM      4  N   UNL     1       2.806   2.429  20.856  0.00  0.00    +0.000 NA
ATOM      5  N   UNL     1       2.998   3.526  20.075  0.00  0.00    +0.000 N 
ENDROOT
BRANCH   5   6
ATOM      6  C   UNL     1       3.837   3.430  18.929  0.00  0.00    +0.000 A 
ATOM      7  C   UNL     1       3.361   2.878  17.724  0.00  0.00    +0.000 A 
ATOM      8  C   UNL     1       4.087   3.019  16.541  0.00  0.00    +0.000 A 
ATOM      9  C   UNL     1       5.273   3.730  16.567  0.00  0.00    +0.000 A 
ATOM     10  C   UNL     1       5.820   4.173  17.782  0.00  0.00    +0.000 A 
ATOM     11  C   UNL     1       5.102   4.039  18.965  0.00  0.00    +0.000 A 
ATOM     12  C   UNL     1       7.113   4.877  17.707  0.00  0.00    +0.000 C 
ATOM     13  C   UNL     1       6.964   5.949  16.906  0.00  0.00    +0.000 C 
ATOM     14  S   UNL     1       6.621   5.512  15.215  0.00  0.00    +0.000 S 
ATOM     15  O   UNL     1       5.647   6.461  14.705  0.00  0.00    +0.000 OA
ATOM     16  O   UNL     1       7.880   5.304  14.539  0.00  0.00    +0.000 OA
ATOM     17  O   UNL     1       5.876   4.052  15.375  0.00  0.00    +0.000 OA
ENDBRANCH   5   6
BRANCH   1  22
ATOM     18  C   UNL     1       1.443   8.252  20.326  0.00  0.00    +0.000 A 
ATOM     19  C   UNL     1       1.823   8.492  19.003  0.00  0.00    +0.000 A 
ATOM     20  C   UNL     1       2.348   7.466  18.219  0.00  0.00    +0.000 A 
ATOM     21  C   UNL     1       2.498   6.192  18.760  0.00  0.00    +0.000 A 
ATOM     22  C   UNL     1       2.179   5.947  20.104  0.00  0.00    +0.000 A 
ATOM     23  C   UNL     1       1.633   6.983  20.877  0.00  0.00    +0.000 A 
BRANCH  18  25
ATOM     24  C   UNL     1       0.907   9.312  22.389  0.00  0.00    +0.000 C 
ATOM     25  O   UNL     1       0.909   9.335  20.967  0.00  0.00    +0.000 OA
ENDBRANCH  18  25
ENDBRANCH   1  22
TORSDOF 3
ENDMDL
MODEL 7
REMARK VINA RESULT:      -7.5      3.718      7.823
REMARK  Name = 
REMARK  4 active torsions:
REMARK  status: ('A' for Active; 'I' for Inactive)
REMARK    1  A    between atoms: C_1  and  O_2
REMARK    2  A    between atoms: O_2  and  C_3
REMARK    3  A    between atoms: C_7  and  C_8
REMARK    4  A    between atoms: N_12  and  C_13
REMARK                            x       y       z     vdW  Elec       q    Type
REMARK                         _______ _______ _______ _____ _____    ______ ____
ROOT
ATOM      1  C   UNL     1       0.258  10.093  20.666  0.00  0.00    +0.000 A 
ATOM      2  C   UNL     1       0.368  10.571  21.960  0.00  0.00    +0.000 A 
ATOM      3  N   UNL     1       0.992   9.658  22.751  0.00  0.00    +0.000 NA
ATOM      4  N   UNL     1       1.306   8.619  21.996  0.00  0.00    +0.000 NA
ATOM      5  N   UNL     1       1.037   8.937  20.701  0.00  0.00    +0.000 N 
ENDROOT
BRANCH   5   6
ATOM      6  C   UNL     1       1.685   8.218  19.655  0.00  0.00    +0.000 A 
ATOM      7  C   UNL     1       1.985   8.836  18.426  0.00  0.00    +0.000 A 
ATOM      8  C   UNL     1       2.839   8.222  17.511  0.00  0.00    +0.000 A 
ATOM      9  C   UNL     1       3.405   7.003  17.841  0.00  0.00    +0.000 A 
ATOM     10  C   UNL     1       3.015   6.320  19.003  0.00  0.00    +0.000 A 
ATOM     11  C   UNL     1       2.166   6.926  19.922  0.00  0.00    +0.000 A 
ATOM     12  C   UNL     1       3.639   5.005  19.237  0.00  0.00    +0.000 C 
ATOM     13  C   UNL     1       4.975   5.175  19.287  0.00  0.00    +0.000 C 
ATOM     14  S   UNL     1       5.667   5.702  17.735  0.00  0.00    +0.000 S 
ATOM     15  O   UNL     1       6.709   6.671  18.025  0.00  0.00    +0.000 OA
ATOM     16  O   UNL     1       5.944   4.526  16.943  0.00  0.00    +0.000 OA
ATOM     17  O   UNL     1       4.405   6.502  17.043  0.00  0.00    +0.000 OA
ENDBRANCH   5   6
BRANCH   1  22
ATOM     18  C   UNL     1      -2.097  10.363  17.739  0.00  0.00    +0.000 A 
ATOM     19  C   UNL     1      -1.937  11.709  17.398  0.00  0.00    +0.000 A 
ATOM     20  C   UNL     1      -1.026  12.510  18.083  0.00  0.00    +0.000 A 
ATOM     21  C   UNL     1      -0.272  11.967  19.119  0.00  0.00    +0.000 A 
ATOM     22  C   UNL     1      -0.462  10.634  19.516  0.00  0.00    +0.000 A 
ATOM     23  C   UNL     1      -1.368   9.832  18.806  0.00  0.00    +0.000 A 
BRANCH  18  25
ATOM     24  C   UNL     1      -3.069  10.047  15.589  0.00  0.00    +0.000 C 
ATOM     25  O   UNL     1      -2.995   9.685  16.962  0.00  0.00    +0.000 OA
ENDBRANCH  18  25
ENDBRANCH   1  22
TORSDOF 3
ENDMDL
MODEL 8
REMARK VINA RESULT:      -7.3      4.611      7.792
REMARK  Name = 
REMARK  4 active torsions:
REMARK  status: ('A' for Active; 'I' for Inactive)
REMARK    1  A    between atoms: C_1  and  O_2
REMARK    2  A    between atoms: O_2  and  C_3
REMARK    3  A    between atoms: C_7  and  C_8
REMARK    4  A    between atoms: N_12  and  C_13
REMARK                            x       y       z     vdW  Elec       q    Type
REMARK                         _______ _______ _______ _____ _____    ______ ____
ROOT
ATOM      1  C   UNL     1       0.042  12.004  18.657  0.00  0.00    +0.000 A 
ATOM      2  C   UNL     1      -1.247  12.362  18.304  0.00  0.00    +0.000 A 
ATOM      3  N   UNL     1      -1.916  11.291  17.800  0.00  0.00    +0.000 NA
ATOM      4  N   UNL     1      -1.099  10.251  17.843  0.00  0.00    +0.000 NA
ATOM      5  N   UNL     1       0.021  10.616  18.524  0.00  0.00    +0.000 N 
ENDROOT
BRANCH   5   6
ATOM      6  C   UNL     1       0.840   9.611  19.112  0.00  0.00    +0.000 A 
ATOM      7  C   UNL     1       0.681   9.241  20.461  0.00  0.00    +0.000 A 
ATOM      8  C   UNL     1       1.296   8.093  20.961  0.00  0.00    +0.000 A 
ATOM      9  C   UNL     1       2.047   7.311  20.102  0.00  0.00    +0.000 A 
ATOM     10  C   UNL     1       2.318   7.737  18.792  0.00  0.00    +0.000 A 
ATOM     11  C   UNL     1       1.707   8.878  18.285  0.00  0.00    +0.000 A 
ATOM     12  C   UNL     1       3.170   6.855  17.974  0.00  0.00    +0.000 C 
ATOM     13  C   UNL     1       2.582   5.646  17.903  0.00  0.00    +0.000 C 
ATOM     14  S   UNL     1       2.502   4.817  19.475  0.00  0.00    +0.000 S 
ATOM     15  O   UNL     1       1.220   4.137  19.549  0.00  0.00    +0.000 OA
ATOM     16  O   UNL     1       3.738   4.096  19.668  0.00  0.00    +0.000 OA
ATOM     17  O   UNL     1       2.472   6.078  20.534  0.00  0.00    +0.000 OA
ENDBRANCH   5   6
BRANCH   1  22
ATOM     18  C   UNL     1       2.421  13.923  20.858  0.00  0.00    +0.000 A 
ATOM     19  C   UNL     1       3.393  14.299  19.927  0.00  0.00    +0.000 A 
ATOM     20  C   UNL     1       3.247  13.976  18.579  0.00  0.00    +0.000 A 
ATOM     21  C   UNL     1       2.124  13.269  18.157  0.00  0.00    +0.000 A 
ATOM     22  C   UNL     1       1.168  12.830  19.086  0.00  0.00    +0.000 A 
ATOM     23  C   UNL     1       1.317  13.178  20.437  0.00  0.00    +0.000 A 
BRANCH  18  25
ATOM     24  C   UNL     1       3.828  15.139  22.345  0.00  0.00    +0.000 C 
ATOM     25  O   UNL     1       2.672  14.337  22.137  0.00  0.00    +0.000 OA
ENDBRANCH  18  25
ENDBRANCH   1  22
TORSDOF 3
ENDMDL
MODEL 9
REMARK VINA RESULT:      -7.3      2.517      3.944
REMARK  Name = 
REMARK  4 active torsions:
REMARK  status: ('A' for Active; 'I' for Inactive)
REMARK    1  A    between atoms: C_1  and  O_2
REMARK    2  A    between atoms: O_2  and  C_3
REMARK    3  A    between atoms: C_7  and  C_8
REMARK    4  A    between atoms: N_12  and  C_13
REMARK                            x       y       z     vdW  Elec       q    Type
REMARK                         _______ _______ _______ _____ _____    ______ ____
ROOT
ATOM      1  C   UNL     1       3.620   5.620  18.069  0.00  0.00    +0.000 A 
ATOM      2  C   UNL     1       4.817   5.659  17.377  0.00  0.00    +0.000 A 
ATOM      3  N   UNL     1       4.946   6.840  16.717  0.00  0.00    +0.000 NA
ATOM      4  N   UNL     1       3.875   7.569  16.987  0.00  0.00    +0.000 NA
ATOM      5  N   UNL     1       3.152   6.927  17.944  0.00  0.00    +0.000 N 
ENDROOT
BRANCH   5   6
ATOM      6  C   UNL     1       2.231   7.668  18.738  0.00  0.00    +0.000 A 
ATOM      7  C   UNL     1       2.111   7.431  20.121  0.00  0.00    +0.000 A 
ATOM      8  C   UNL     1       1.409   8.320  20.935  0.00  0.00    +0.000 A 
ATOM      9  C   UNL     1       0.851   9.450  20.365  0.00  0.00    +0.000 A 
ATOM     10  C   UNL     1       0.854   9.629  18.973  0.00  0.00    +0.000 A 
ATOM     11  C   UNL     1       1.554   8.751  18.154  0.00  0.00    +0.000 A 
ATOM     12  C   UNL     1       0.189  10.841  18.462  0.00  0.00    +0.000 C 
ATOM     13  C   UNL     1       0.782  11.915  19.018  0.00  0.00    +0.000 C 
ATOM     14  S   UNL     1       0.539  12.010  20.778  0.00  0.00    +0.000 S 
ATOM     15  O   UNL     1       1.779  12.482  21.369  0.00  0.00    +0.000 OA
ATOM     16  O   UNL     1      -0.709  12.693  21.025  0.00  0.00    +0.000 OA
ATOM     17  O   UNL     1       0.349  10.427  21.191  0.00  0.00    +0.000 OA
ENDBRANCH   5   6
BRANCH   1  22
ATOM     18  C   UNL     1       3.040   2.800  20.499  0.00  0.00    +0.000 A 
ATOM     19  C   UNL     1       1.700   2.501  20.237  0.00  0.00    +0.000 A 
ATOM     20  C   UNL     1       1.005   3.178  19.237  0.00  0.00    +0.000 A 
ATOM     21  C   UNL     1       1.649   4.163  18.494  0.00  0.00    +0.000 A 
ATOM     22  C   UNL     1       2.976   4.520  18.782  0.00  0.00    +0.000 A 
ATOM     23  C   UNL     1       3.671   3.818  19.778  0.00  0.00    +0.000 A 
BRANCH  18  25
ATOM     24  C   UNL     1       4.921   1.541  21.235  0.00  0.00    +0.000 C 
ATOM     25  O   UNL     1       3.610   2.036  21.479  0.00  0.00    +0.000 OA
ENDBRANCH  18  25
ENDBRANCH   1  22
TORSDOF 3
ENDMDL
