MODEL 1
REMARK VINA RESULT:      -7.2      0.000      0.000
REMARK  Name = 
REMARK  9 active torsions:
REMARK  status: ('A' for Active; 'I' for Inactive)
REMARK    1  A    between atoms: C_1  and  O_2
REMARK    2  A    between atoms: O_2  and  C_3
REMARK    3  A    between atoms: C_6  and  C_7
REMARK    4  A    between atoms: C_8  and  N_9
REMARK    5  A    between atoms: N_10  and  C_11
REMARK    6  A    between atoms: C_11  and  C_12
REMARK    7  A    between atoms: C_12  and  C_13
REMARK    8  A    between atoms: C_28  and  O_29
REMARK    9  A    between atoms: O_29  and  C_30
REMARK                            x       y       z     vdW  Elec       q    Type
REMARK                         _______ _______ _______ _____ _____    ______ ____
ROOT
ATOM      1  C   UNL     1       4.353   5.656  17.690  0.00  0.00    +0.000 A 
ATOM      2  C   UNL     1       5.271   5.410  18.674  0.00  0.00    +0.000 A 
ATOM      3  N   UNL     1       5.992   4.219  18.603  0.00  0.00    +0.000 N 
ATOM      4  C   UNL     1       7.033   4.470  17.730  0.00  0.00    +0.000 A 
ATOM      5  O   UNL     1       8.233   4.361  17.991  0.00  0.00    +0.000 OA
ATOM      6  C   UNL     1       6.495   4.948  16.411  0.00  0.00    +0.000 A 
ATOM      7  C   UNL     1       7.327   4.584  15.353  0.00  0.00    +0.000 A 
ATOM      8  C   UNL     1       6.717   4.182  14.192  0.00  0.00    +0.000 A 
ATOM      9  C   UNL     1       5.313   4.230  14.120  0.00  0.00    +0.000 A 
ATOM     10  C   UNL     1       4.490   4.795  15.147  0.00  0.00    +0.000 A 
ATOM     11  C   UNL     1       5.056   5.231  16.344  0.00  0.00    +0.000 A 
ENDROOT
BRANCH   1  15
ATOM     12  C   UNL     1       1.565   8.371  19.831  0.00  0.00    +0.000 A 
ATOM     13  C   UNL     1       1.885   7.111  20.288  0.00  0.00    +0.000 A 
ATOM     14  C   UNL     1       2.661   6.260  19.492  0.00  0.00    +0.000 A 
ATOM     15  C   UNL     1       3.251   6.614  18.229  0.00  0.00    +0.000 A 
ATOM     16  C   UNL     1       2.785   7.823  17.717  0.00  0.00    +0.000 A 
ATOM     17  C   UNL     1       1.948   8.695  18.497  0.00  0.00    +0.000 A 
BRANCH  12  19
ATOM     18  C   UNL     1      -0.105   8.677  21.524  0.00  0.00    +0.000 C 
ATOM     19  O   UNL     1       0.824   9.248  20.586  0.00  0.00    +0.000 OA
ENDBRANCH  12  19
BRANCH  17  20
ATOM     20  O   UNL     1       1.556   9.827  17.812  0.00  0.00    +0.000 OA
ATOM     21  C   UNL     1       2.266  11.040  18.061  0.00  0.00    +0.000 C 
ENDBRANCH  17  20
ENDBRANCH   1  15
BRANCH   2  22
ATOM     22  N   UNL     1       5.879   6.520  19.277  0.00  0.00    +0.000 N 
ATOM     23  H   UNL     1       5.238   7.325  19.268  0.00  0.00    +0.000 HD
ATOM     24  H   UNL     1       6.717   6.771  18.761  0.00  0.00    +0.000 HD
ENDBRANCH   2  22
BRANCH   3  25
ATOM     25  C   UNL     1       5.161   3.000  18.249  0.00  0.00    +0.000 C 
BRANCH  25  26
ATOM     26  C   UNL     1       4.589   2.213  19.432  0.00  0.00    +0.000 C 
BRANCH  26  27
ATOM     27  C   UNL     1       3.135   2.595  19.681  0.00  0.00    +0.000 A 
ATOM     28  C   UNL     1       2.657   2.818  20.982  0.00  0.00    +0.000 A 
ATOM     29  C   UNL     1       1.319   3.165  21.203  0.00  0.00    +0.000 A 
ATOM     30  C   UNL     1       0.440   3.279  20.128  0.00  0.00    +0.000 A 
ATOM     31  C   UNL     1       0.894   3.037  18.835  0.00  0.00    +0.000 A 
ATOM     32  C   UNL     1       2.231   2.693  18.611  0.00  0.00    +0.000 A 
ENDBRANCH  26  27
ENDBRANCH  25  26
ENDBRANCH   3  25
TORSDOF 7
ENDMDL
MODEL 2
REMARK VINA RESULT:      -6.8      2.166      5.337
REMARK  Name = 
REMARK  9 active torsions:
REMARK  status: ('A' for Active; 'I' for Inactive)
REMARK    1  A    between atoms: C_1  and  O_2
REMARK    2  A    between atoms: O_2  and  C_3
REMARK    3  A    between atoms: C_6  and  C_7
REMARK    4  A    between atoms: C_8  and  N_9
REMARK    5  A    between atoms: N_10  and  C_11
REMARK    6  A    between atoms: C_11  and  C_12
REMARK    7  A    between atoms: C_12  and  C_13
REMARK    8  A    between atoms: C_28  and  O_29
REMARK    9  A    between atoms: O_29  and  C_30
REMARK                            x       y       z     vdW  Elec       q    Type
REMARK                         _______ _______ _______ _____ _____    ______ ____
ROOT
ATOM      1  C   UNL     1       2.138   6.541  19.687  0.00  0.00    +0.000 A 
ATOM      2  C   UNL     1       2.373   6.416  18.345  0.00  0.00    +0.000 A 
ATOM      3  N   UNL     1       3.202   5.376  17.928  0.00  0.00    +0.000 N 
ATOM      4  C   UNL     1       2.388   4.260  17.863  0.00  0.00    +0.000 A 
ATOM      5  O   UNL     1       2.194   3.568  16.862  0.00  0.00    +0.000 OA
ATOM      6  C   UNL     1       1.725   4.029  19.192  0.00  0.00    +0.000 A 
ATOM      7  C   UNL     1       1.475   2.675  19.414  0.00  0.00    +0.000 A 
ATOM      8  C   UNL     1       1.675   2.208  20.688  0.00  0.00    +0.000 A 
ATOM      9  C   UNL     1       2.045   3.124  21.689  0.00  0.00    +0.000 A 
ATOM     10  C   UNL     1       2.102   4.539  21.480  0.00  0.00    +0.000 A 
ATOM     11  C   UNL     1       1.896   5.073  20.210  0.00  0.00    +0.000 A 
ENDROOT
BRANCH   1  15
ATOM     12  C   UNL     1       0.666  10.711  20.103  0.00  0.00    +0.000 A 
ATOM     13  C   UNL     1       1.196  10.215  18.931  0.00  0.00    +0.000 A 
ATOM     14  C   UNL     1       1.765   8.937  18.914  0.00  0.00    +0.000 A 
ATOM     15  C   UNL     1       1.780   8.018  20.021  0.00  0.00    +0.000 A 
ATOM     16  C   UNL     1       1.387   8.596  21.226  0.00  0.00    +0.000 A 
ATOM     17  C   UNL     1       0.842   9.926  21.279  0.00  0.00    +0.000 A 
BRANCH  12  19
ATOM     18  C   UNL     1      -1.350  12.004  19.997  0.00  0.00    +0.000 C 
ATOM     19  O   UNL     1       0.078  11.951  20.163  0.00  0.00    +0.000 OA
ENDBRANCH  12  19
BRANCH  17  20
ATOM     20  O   UNL     1       0.546  10.341  22.561  0.00  0.00    +0.000 OA
ATOM     21  C   UNL     1      -0.718   9.970  23.110  0.00  0.00    +0.000 C 
ENDBRANCH  17  20
ENDBRANCH   1  15
BRANCH   2  22
ATOM     22  N   UNL     1       1.367   6.854  17.473  0.00  0.00    +0.000 N 
ATOM     23  H   UNL     1       1.711   6.850  16.503  0.00  0.00    +0.000 HD
ATOM     24  H   UNL     1       1.096   7.802  17.715  0.00  0.00    +0.000 HD
ENDBRANCH   2  22
BRANCH   3  25
ATOM     25  C   UNL     1       4.451   5.189  18.768  0.00  0.00    +0.000 C 
BRANCH  25  26
ATOM     26  C   UNL     1       5.393   4.065  18.327  0.00  0.00    +0.000 C 
BRANCH  26  27
ATOM     27  C   UNL     1       5.939   4.336  16.930  0.00  0.00    +0.000 A 
ATOM     28  C   UNL     1       5.476   3.614  15.818  0.00  0.00    +0.000 A 
ATOM     29  C   UNL     1       5.984   3.866  14.539  0.00  0.00    +0.000 A 
ATOM     30  C   UNL     1       6.972   4.833  14.358  0.00  0.00    +0.000 A 
ATOM     31  C   UNL     1       7.458   5.539  15.454  0.00  0.00    +0.000 A 
ATOM     32  C   UNL     1       6.949   5.291  16.733  0.00  0.00    +0.000 A 
ENDBRANCH  26  27
ENDBRANCH  25  26
ENDBRANCH   3  25
TORSDOF 7
ENDMDL
MODEL 3
REMARK VINA RESULT:      -6.7      4.141      8.875
REMARK  Name = 
REMARK  9 active torsions:
REMARK  status: ('A' for Active; 'I' for Inactive)
REMARK    1  A    between atoms: C_1  and  O_2
REMARK    2  A    between atoms: O_2  and  C_3
REMARK    3  A    between atoms: C_6  and  C_7
REMARK    4  A    between atoms: C_8  and  N_9
REMARK    5  A    between atoms: N_10  and  C_11
REMARK    6  A    between atoms: C_11  and  C_12
REMARK    7  A    between atoms: C_12  and  C_13
REMARK    8  A    between atoms: C_28  and  O_29
REMARK    9  A    between atoms: O_29  and  C_30
REMARK                            x       y       z     vdW  Elec       q    Type
REMARK                         _______ _______ _______ _____ _____    ______ ____
ROOT
ATOM      1  C   UNL     1       1.033   9.328  19.482  0.00  0.00    +0.000 A 
ATOM      2  C   UNL     1       0.980  10.173  18.408  0.00  0.00    +0.000 A 
ATOM      3  N   UNL     1      -0.172  10.941  18.245  0.00  0.00    +0.000 N 
ATOM      4  C   UNL     1      -0.003  12.038  19.068  0.00  0.00    +0.000 A 
ATOM      5  O   UNL     1      -0.014  13.217  18.708  0.00  0.00    +0.000 OA
ATOM      6  C   UNL     1       0.248  11.589  20.481  0.00  0.00    +0.000 A 
ATOM      7  C   UNL     1      -0.228  12.515  21.407  0.00  0.00    +0.000 A 
ATOM      8  C   UNL     1      -0.826  12.013  22.536  0.00  0.00    +0.000 A 
ATOM      9  C   UNL     1      -0.858  10.619  22.715  0.00  0.00    +0.000 A 
ATOM     10  C   UNL     1      -0.187   9.698  21.849  0.00  0.00    +0.000 A 
ATOM     11  C   UNL     1       0.448  10.150  20.694  0.00  0.00    +0.000 A 
ENDROOT
BRANCH   1  15
ATOM     12  C   UNL     1       3.252   5.558  18.712  0.00  0.00    +0.000 A 
ATOM     13  C   UNL     1       2.551   5.792  19.875  0.00  0.00    +0.000 A 
ATOM     14  C   UNL     1       1.992   7.054  20.106  0.00  0.00    +0.000 A 
ATOM     15  C   UNL     1       2.005   8.152  19.176  0.00  0.00    +0.000 A 
ATOM     16  C   UNL     1       2.849   7.946  18.087  0.00  0.00    +0.000 A 
ATOM     17  C   UNL     1       3.474   6.672  17.851  0.00  0.00    +0.000 A 
BRANCH  12  19
ATOM     18  C   UNL     1       3.051   3.465  17.559  0.00  0.00    +0.000 C 
ATOM     19  O   UNL     1       3.800   4.329  18.432  0.00  0.00    +0.000 OA
ENDBRANCH  12  19
BRANCH  17  20
ATOM     20  O   UNL     1       4.302   6.669  16.747  0.00  0.00    +0.000 OA
ATOM     21  C   UNL     1       5.699   6.869  16.959  0.00  0.00    +0.000 C 
ENDBRANCH  17  20
ENDBRANCH   1  15
BRANCH   2  22
ATOM     22  N   UNL     1       2.195  10.691  17.938  0.00  0.00    +0.000 N 
ATOM     23  H   UNL     1       2.031  11.302  17.126  0.00  0.00    +0.000 HD
ATOM     24  H   UNL     1       2.801   9.929  17.649  0.00  0.00    +0.000 HD
ENDBRANCH   2  22
BRANCH   3  25
ATOM     25  C   UNL     1      -1.469  10.187  18.470  0.00  0.00    +0.000 C 
BRANCH  25  26
ATOM     26  C   UNL     1      -2.540  10.360  17.390  0.00  0.00    +0.000 C 
BRANCH  26  27
ATOM     27  C   UNL     1      -3.704  11.193  17.913  0.00  0.00    +0.000 A 
ATOM     28  C   UNL     1      -4.881  11.346  17.163  0.00  0.00    +0.000 A 
ATOM     29  C   UNL     1      -5.945  12.115  17.649  0.00  0.00    +0.000 A 
ATOM     30  C   UNL     1      -5.839  12.752  18.884  0.00  0.00    +0.000 A 
ATOM     31  C   UNL     1      -4.669  12.630  19.627  0.00  0.00    +0.000 A 
ATOM     32  C   UNL     1      -3.606  11.859  19.145  0.00  0.00    +0.000 A 
ENDBRANCH  26  27
ENDBRANCH  25  26
ENDBRANCH   3  25
TORSDOF 7
ENDMDL
MODEL 4
REMARK VINA RESULT:      -6.7      0.729      1.628
REMARK  Name = 
REMARK  9 active torsions:
REMARK  status: ('A' for Active; 'I' for Inactive)
REMARK    1  A    between atoms: C_1  and  O_2
REMARK    2  A    between atoms: O_2  and  C_3
REMARK    3  A    between atoms: C_6  and  C_7
REMARK    4  A    between atoms: C_8  and  N_9
REMARK    5  A    between atoms: N_10  and  C_11
REMARK    6  A    between atoms: C_11  and  C_12
REMARK    7  A    between atoms: C_12  and  C_13
REMARK    8  A    between atoms: C_28  and  O_29
REMARK    9  A    between atoms: O_29  and  C_30
REMARK                            x       y       z     vdW  Elec       q    Type
REMARK                         _______ _______ _______ _____ _____    ______ ____
ROOT
ATOM      1  C   UNL     1       4.604   5.815  17.662  0.00  0.00    +0.000 A 
ATOM      2  C   UNL     1       5.541   5.467  18.597  0.00  0.00    +0.000 A 
ATOM      3  N   UNL     1       6.141   4.216  18.476  0.00  0.00    +0.000 N 
ATOM      4  C   UNL     1       7.158   4.381  17.556  0.00  0.00    +0.000 A 
ATOM      5  O   UNL     1       8.353   4.155  17.755  0.00  0.00    +0.000 OA
ATOM      6  C   UNL     1       6.605   4.930  16.270  0.00  0.00    +0.000 A 
ATOM      7  C   UNL     1       7.347   4.506  15.168  0.00  0.00    +0.000 A 
ATOM      8  C   UNL     1       6.645   4.184  14.034  0.00  0.00    +0.000 A 
ATOM      9  C   UNL     1       5.251   4.365  14.033  0.00  0.00    +0.000 A 
ATOM     10  C   UNL     1       4.536   4.988  15.106  0.00  0.00    +0.000 A 
ATOM     11  C   UNL     1       5.198   5.349  16.278  0.00  0.00    +0.000 A 
ENDROOT
BRANCH   1  15
ATOM     12  C   UNL     1       1.484   8.777  18.769  0.00  0.00    +0.000 A 
ATOM     13  C   UNL     1       2.296   8.919  17.665  0.00  0.00    +0.000 A 
ATOM     14  C   UNL     1       3.348   8.019  17.456  0.00  0.00    +0.000 A 
ATOM     15  C   UNL     1       3.626   6.864  18.267  0.00  0.00    +0.000 A 
ATOM     16  C   UNL     1       2.899   6.832  19.455  0.00  0.00    +0.000 A 
ATOM     17  C   UNL     1       1.844   7.775  19.716  0.00  0.00    +0.000 A 
BRANCH  12  19
ATOM     18  C   UNL     1       0.697  11.035  18.943  0.00  0.00    +0.000 C 
ATOM     19  O   UNL     1       0.428   9.623  19.004  0.00  0.00    +0.000 OA
ENDBRANCH  12  19
BRANCH  17  20
ATOM     20  O   UNL     1       1.264   7.612  20.957  0.00  0.00    +0.000 OA
ATOM     21  C   UNL     1       1.404   8.670  21.905  0.00  0.00    +0.000 C 
ENDBRANCH  17  20
ENDBRANCH   1  15
BRANCH   2  22
ATOM     22  N   UNL     1       6.281   6.505  19.182  0.00  0.00    +0.000 N 
ATOM     23  H   UNL     1       7.285   6.375  18.995  0.00  0.00    +0.000 HD
ATOM     24  H   UNL     1       6.138   6.500  20.187  0.00  0.00    +0.000 HD
ENDBRANCH   2  22
BRANCH   3  25
ATOM     25  C   UNL     1       5.182   3.086  18.149  0.00  0.00    +0.000 C 
BRANCH  25  26
ATOM     26  C   UNL     1       4.593   2.339  19.349  0.00  0.00    +0.000 C 
BRANCH  26  27
ATOM     27  C   UNL     1       3.193   2.851  19.669  0.00  0.00    +0.000 A 
ATOM     28  C   UNL     1       2.745   2.954  20.995  0.00  0.00    +0.000 A 
ATOM     29  C   UNL     1       1.457   3.422  21.281  0.00  0.00    +0.000 A 
ATOM     30  C   UNL     1       0.597   3.777  20.244  0.00  0.00    +0.000 A 
ATOM     31  C   UNL     1       1.020   3.656  18.923  0.00  0.00    +0.000 A 
ATOM     32  C   UNL     1       2.307   3.192  18.635  0.00  0.00    +0.000 A 
ENDBRANCH  26  27
ENDBRANCH  25  26
ENDBRANCH   3  25
TORSDOF 7
ENDMDL
MODEL 5
REMARK VINA RESULT:      -6.7      2.146      5.316
REMARK  Name = 
REMARK  9 active torsions:
REMARK  status: ('A' for Active; 'I' for Inactive)
REMARK    1  A    between atoms: C_1  and  O_2
REMARK    2  A    between atoms: O_2  and  C_3
REMARK    3  A    between atoms: C_6  and  C_7
REMARK    4  A    between atoms: C_8  and  N_9
REMARK    5  A    between atoms: N_10  and  C_11
REMARK    6  A    between atoms: C_11  and  C_12
REMARK    7  A    between atoms: C_12  and  C_13
REMARK    8  A    between atoms: C_28  and  O_29
REMARK    9  A    between atoms: O_29  and  C_30
REMARK                            x       y       z     vdW  Elec       q    Type
REMARK                         _______ _______ _______ _____ _____    ______ ____
ROOT
ATOM      1  C   UNL     1       2.139   6.521  19.718  0.00  0.00    +0.000 A 
ATOM      2  C   UNL     1       2.377   6.422  18.375  0.00  0.00    +0.000 A 
ATOM      3  N   UNL     1       3.204   5.389  17.939  0.00  0.00    +0.000 N 
ATOM      4  C   UNL     1       2.389   4.277  17.850  0.00  0.00    +0.000 A 
ATOM      5  O   UNL     1       2.196   3.605  16.835  0.00  0.00    +0.000 OA
ATOM      6  C   UNL     1       1.722   4.020  19.172  0.00  0.00    +0.000 A 
ATOM      7  C   UNL     1       1.469   2.663  19.367  0.00  0.00    +0.000 A 
ATOM      8  C   UNL     1       1.664   2.169  20.632  0.00  0.00    +0.000 A 
ATOM      9  C   UNL     1       2.034   3.064  21.652  0.00  0.00    +0.000 A 
ATOM     10  C   UNL     1       2.094   4.483  21.471  0.00  0.00    +0.000 A 
ATOM     11  C   UNL     1       1.892   5.043  20.211  0.00  0.00    +0.000 A 
ENDROOT
BRANCH   1  15
ATOM     12  C   UNL     1       0.673  10.685  20.214  0.00  0.00    +0.000 A 
ATOM     13  C   UNL     1       1.202  10.211  19.033  0.00  0.00    +0.000 A 
ATOM     14  C   UNL     1       1.770   8.932  18.991  0.00  0.00    +0.000 A 
ATOM     15  C   UNL     1       1.782   7.992  20.080  0.00  0.00    +0.000 A 
ATOM     16  C   UNL     1       1.390   8.546  21.296  0.00  0.00    +0.000 A 
ATOM     17  C   UNL     1       0.846   9.876  21.375  0.00  0.00    +0.000 A 
BRANCH  12  19
ATOM     18  C   UNL     1       0.964  13.049  20.483  0.00  0.00    +0.000 C 
ATOM     19  O   UNL     1       0.086  11.924  20.298  0.00  0.00    +0.000 OA
ENDBRANCH  12  19
BRANCH  17  20
ATOM     20  O   UNL     1       0.550  10.267  22.665  0.00  0.00    +0.000 OA
ATOM     21  C   UNL     1      -0.806  10.167  23.100  0.00  0.00    +0.000 C 
ENDBRANCH  17  20
ENDBRANCH   1  15
BRANCH   2  22
ATOM     22  N   UNL     1       1.374   6.880  17.509  0.00  0.00    +0.000 N 
ATOM     23  H   UNL     1       0.540   6.280  17.582  0.00  0.00    +0.000 HD
ATOM     24  H   UNL     1       1.709   6.848  16.552  0.00  0.00    +0.000 HD
ENDBRANCH   2  22
BRANCH   3  25
ATOM     25  C   UNL     1       4.451   5.183  18.778  0.00  0.00    +0.000 C 
BRANCH  25  26
ATOM     26  C   UNL     1       5.379   4.050  18.333  0.00  0.00    +0.000 C 
BRANCH  26  27
ATOM     27  C   UNL     1       5.950   4.333  16.948  0.00  0.00    +0.000 A 
ATOM     28  C   UNL     1       6.910   5.337  16.752  0.00  0.00    +0.000 A 
ATOM     29  C   UNL     1       7.428   5.594  15.477  0.00  0.00    +0.000 A 
ATOM     30  C   UNL     1       6.980   4.858  14.381  0.00  0.00    +0.000 A 
ATOM     31  C   UNL     1       6.010   3.876  14.557  0.00  0.00    +0.000 A 
ATOM     32  C   UNL     1       5.495   3.616  15.830  0.00  0.00    +0.000 A 
ENDBRANCH  26  27
ENDBRANCH  25  26
ENDBRANCH   3  25
TORSDOF 7
ENDMDL
MODEL 6
REMARK VINA RESULT:      -6.7      4.051      8.793
REMARK  Name = 
REMARK  9 active torsions:
REMARK  status: ('A' for Active; 'I' for Inactive)
REMARK    1  A    between atoms: C_1  and  O_2
REMARK    2  A    between atoms: O_2  and  C_3
REMARK    3  A    between atoms: C_6  and  C_7
REMARK    4  A    between atoms: C_8  and  N_9
REMARK    5  A    between atoms: N_10  and  C_11
REMARK    6  A    between atoms: C_11  and  C_12
REMARK    7  A    between atoms: C_12  and  C_13
REMARK    8  A    between atoms: C_28  and  O_29
REMARK    9  A    between atoms: O_29  and  C_30
REMARK                            x       y       z     vdW  Elec       q    Type
REMARK                         _______ _______ _______ _____ _____    ______ ____
ROOT
ATOM      1  C   UNL     1       1.031   9.232  19.503  0.00  0.00    +0.000 A 
ATOM      2  C   UNL     1       1.015  10.042  18.401  0.00  0.00    +0.000 A 
ATOM      3  N   UNL     1      -0.108  10.844  18.204  0.00  0.00    +0.000 N 
ATOM      4  C   UNL     1       0.095  11.962  18.991  0.00  0.00    +0.000 A 
ATOM      5  O   UNL     1       0.128  13.127  18.591  0.00  0.00    +0.000 OA
ATOM      6  C   UNL     1       0.322  11.552  20.420  0.00  0.00    +0.000 A 
ATOM      7  C   UNL     1      -0.127  12.525  21.311  0.00  0.00    +0.000 A 
ATOM      8  C   UNL     1      -0.749  12.084  22.452  0.00  0.00    +0.000 A 
ATOM      9  C   UNL     1      -0.831  10.698  22.678  0.00  0.00    +0.000 A 
ATOM     10  C   UNL     1      -0.189   9.725  21.848  0.00  0.00    +0.000 A 
ATOM     11  C   UNL     1       0.469  10.115  20.683  0.00  0.00    +0.000 A 
ENDROOT
BRANCH   1  15
ATOM     12  C   UNL     1       3.122   5.362  18.886  0.00  0.00    +0.000 A 
ATOM     13  C   UNL     1       2.435   5.668  20.041  0.00  0.00    +0.000 A 
ATOM     14  C   UNL     1       1.919   6.957  20.220  0.00  0.00    +0.000 A 
ATOM     15  C   UNL     1       1.963   8.013  19.244  0.00  0.00    +0.000 A 
ATOM     16  C   UNL     1       2.794   7.733  18.161  0.00  0.00    +0.000 A 
ATOM     17  C   UNL     1       3.375   6.430  17.977  0.00  0.00    +0.000 A 
BRANCH  12  19
ATOM     18  C   UNL     1       4.916   3.808  19.223  0.00  0.00    +0.000 C 
ATOM     19  O   UNL     1       3.628   4.105  18.657  0.00  0.00    +0.000 OA
ENDBRANCH  12  19
BRANCH  17  20
ATOM     20  O   UNL     1       4.198   6.353  16.872  0.00  0.00    +0.000 OA
ATOM     21  C   UNL     1       5.522   6.872  16.986  0.00  0.00    +0.000 C 
ENDBRANCH  17  20
ENDBRANCH   1  15
BRANCH   2  22
ATOM     22  N   UNL     1       2.250  10.500  17.922  0.00  0.00    +0.000 N 
ATOM     23  H   UNL     1       2.497  11.393  18.371  0.00  0.00    +0.000 HD
ATOM     24  H   UNL     1       2.193  10.649  16.920  0.00  0.00    +0.000 HD
ENDBRANCH   2  22
BRANCH   3  25
ATOM     25  C   UNL     1      -1.432  10.144  18.445  0.00  0.00    +0.000 C 
BRANCH  25  26
ATOM     26  C   UNL     1      -2.564  10.500  17.477  0.00  0.00    +0.000 C 
BRANCH  26  27
ATOM     27  C   UNL     1      -3.641  11.315  18.182  0.00  0.00    +0.000 A 
ATOM     28  C   UNL     1      -3.363  12.011  19.369  0.00  0.00    +0.000 A 
ATOM     29  C   UNL     1      -4.359  12.755  20.013  0.00  0.00    +0.000 A 
ATOM     30  C   UNL     1      -5.648  12.800  19.486  0.00  0.00    +0.000 A 
ATOM     31  C   UNL     1      -5.944  12.094  18.323  0.00  0.00    +0.000 A 
ATOM     32  C   UNL     1      -4.950  11.353  17.676  0.00  0.00    +0.000 A 
ENDBRANCH  26  27
ENDBRANCH  25  26
ENDBRANCH   3  25
TORSDOF 7
ENDMDL
MODEL 7
REMARK VINA RESULT:      -6.6      2.405      5.451
REMARK  Name = 
REMARK  9 active torsions:
REMARK  status: ('A' for Active; 'I' for Inactive)
REMARK    1  A    between atoms: C_1  and  O_2
REMARK    2  A    between atoms: O_2  and  C_3
REMARK    3  A    between atoms: C_6  and  C_7
REMARK    4  A    between atoms: C_8  and  N_9
REMARK    5  A    between atoms: N_10  and  C_11
REMARK    6  A    between atoms: C_11  and  C_12
REMARK    7  A    between atoms: C_12  and  C_13
REMARK    8  A    between atoms: C_28  and  O_29
REMARK    9  A    between atoms: O_29  and  C_30
REMARK                            x       y       z     vdW  Elec       q    Type
REMARK                         _______ _______ _______ _____ _____    ______ ____
ROOT
ATOM      1  C   UNL     1       2.207   6.270  19.690  0.00  0.00    +0.000 A 
ATOM      2  C   UNL     1       2.467   6.144  18.353  0.00  0.00    +0.000 A 
ATOM      3  N   UNL     1       3.279   5.087  17.948  0.00  0.00    +0.000 N 
ATOM      4  C   UNL     1       2.441   3.991  17.862  0.00  0.00    +0.000 A 
ATOM      5  O   UNL     1       2.252   3.308  16.854  0.00  0.00    +0.000 OA
ATOM      6  C   UNL     1       1.745   3.771  19.176  0.00  0.00    +0.000 A 
ATOM      7  C   UNL     1       1.458   2.423  19.386  0.00  0.00    +0.000 A 
ATOM      8  C   UNL     1       1.620   1.945  20.662  0.00  0.00    +0.000 A 
ATOM      9  C   UNL     1       1.991   2.848  21.675  0.00  0.00    +0.000 A 
ATOM     10  C   UNL     1       2.085   4.262  21.474  0.00  0.00    +0.000 A 
ATOM     11  C   UNL     1       1.918   4.806  20.201  0.00  0.00    +0.000 A 
ENDROOT
BRANCH   1  15
ATOM     12  C   UNL     1       0.809  10.466  20.108  0.00  0.00    +0.000 A 
ATOM     13  C   UNL     1       1.318   9.958  18.932  0.00  0.00    +0.000 A 
ATOM     14  C   UNL     1       1.866   8.669  18.913  0.00  0.00    +0.000 A 
ATOM     15  C   UNL     1       1.876   7.754  20.023  0.00  0.00    +0.000 A 
ATOM     16  C   UNL     1       1.506   8.342  21.230  0.00  0.00    +0.000 A 
ATOM     17  C   UNL     1       0.983   9.681  21.285  0.00  0.00    +0.000 A 
BRANCH  12  19
ATOM     18  C   UNL     1      -0.675  12.068  19.119  0.00  0.00    +0.000 C 
ATOM     19  O   UNL     1       0.242  11.716  20.170  0.00  0.00    +0.000 OA
ENDBRANCH  12  19
BRANCH  17  20
ATOM     20  O   UNL     1       0.707  10.105  22.569  0.00  0.00    +0.000 OA
ATOM     21  C   UNL     1      -0.606   9.880  23.080  0.00  0.00    +0.000 C 
ENDBRANCH  17  20
ENDBRANCH   1  15
BRANCH   2  22
ATOM     22  N   UNL     1       1.490   6.610  17.462  0.00  0.00    +0.000 N 
ATOM     23  H   UNL     1       1.893   6.728  16.522  0.00  0.00    +0.000 HD
ATOM     24  H   UNL     1       1.142   7.510  17.778  0.00  0.00    +0.000 HD
ENDBRANCH   2  22
BRANCH   3  25
ATOM     25  C   UNL     1       4.506   4.867  18.814  0.00  0.00    +0.000 C 
BRANCH  25  26
ATOM     26  C   UNL     1       5.823   4.647  18.065  0.00  0.00    +0.000 C 
BRANCH  26  27
ATOM     27  C   UNL     1       6.659   5.921  18.058  0.00  0.00    +0.000 A 
ATOM     28  C   UNL     1       7.736   6.087  18.944  0.00  0.00    +0.000 A 
ATOM     29  C   UNL     1       8.497   7.261  18.934  0.00  0.00    +0.000 A 
ATOM     30  C   UNL     1       8.183   8.289  18.048  0.00  0.00    +0.000 A 
ATOM     31  C   UNL     1       7.103   8.149  17.181  0.00  0.00    +0.000 A 
ATOM     32  C   UNL     1       6.343   6.975  17.187  0.00  0.00    +0.000 A 
ENDBRANCH  26  27
ENDBRANCH  25  26
ENDBRANCH   3  25
TORSDOF 7
ENDMDL
MODEL 8
REMARK VINA RESULT:      -6.5      2.491      6.898
REMARK  Name = 
REMARK  9 active torsions:
REMARK  status: ('A' for Active; 'I' for Inactive)
REMARK    1  A    between atoms: C_1  and  O_2
REMARK    2  A    between atoms: O_2  and  C_3
REMARK    3  A    between atoms: C_6  and  C_7
REMARK    4  A    between atoms: C_8  and  N_9
REMARK    5  A    between atoms: N_10  and  C_11
REMARK    6  A    between atoms: C_11  and  C_12
REMARK    7  A    between atoms: C_12  and  C_13
REMARK    8  A    between atoms: C_28  and  O_29
REMARK    9  A    between atoms: O_29  and  C_30
REMARK                            x       y       z     vdW  Elec       q    Type
REMARK                         _______ _______ _______ _____ _____    ______ ____
ROOT
ATOM      1  C   UNL     1       4.893   4.256  16.205  0.00  0.00    +0.000 A 
ATOM      2  C   UNL     1       5.848   4.912  16.932  0.00  0.00    +0.000 A 
ATOM      3  N   UNL     1       5.439   5.580  18.085  0.00  0.00    +0.000 N 
ATOM      4  C   UNL     1       5.387   4.613  19.072  0.00  0.00    +0.000 A 
ATOM      5  O   UNL     1       6.016   4.633  20.131  0.00  0.00    +0.000 OA
ATOM      6  C   UNL     1       4.479   3.493  18.648  0.00  0.00    +0.000 A 
ATOM      7  C   UNL     1       3.865   2.886  19.744  0.00  0.00    +0.000 A 
ATOM      8  C   UNL     1       2.552   2.518  19.595  0.00  0.00    +0.000 A 
ATOM      9  C   UNL     1       1.939   2.709  18.344  0.00  0.00    +0.000 A 
ATOM     10  C   UNL     1       2.646   3.149  17.179  0.00  0.00    +0.000 A 
ATOM     11  C   UNL     1       3.985   3.525  17.267  0.00  0.00    +0.000 A 
ENDROOT
BRANCH   1  15
ATOM     12  C   UNL     1       6.799   3.686  12.233  0.00  0.00    +0.000 A 
ATOM     13  C   UNL     1       7.363   4.447  13.234  0.00  0.00    +0.000 A 
ATOM     14  C   UNL     1       6.641   4.694  14.408  0.00  0.00    +0.000 A 
ATOM     15  C   UNL     1       5.350   4.143  14.722  0.00  0.00    +0.000 A 
ATOM     16  C   UNL     1       4.737   3.516  13.640  0.00  0.00    +0.000 A 
ATOM     17  C   UNL     1       5.441   3.289  12.405  0.00  0.00    +0.000 A 
BRANCH  12  19
ATOM     18  C   UNL     1       7.735   2.011  10.796  0.00  0.00    +0.000 C 
ATOM     19  O   UNL     1       7.477   3.399  11.073  0.00  0.00    +0.000 OA
ENDBRANCH  12  19
BRANCH  17  20
ATOM     20  O   UNL     1       4.661   2.689  11.437  0.00  0.00    +0.000 OA
ATOM     21  C   UNL     1       3.682   3.490  10.776  0.00  0.00    +0.000 C 
ENDBRANCH  17  20
ENDBRANCH   1  15
BRANCH   2  22
ATOM     22  N   UNL     1       7.153   4.399  16.890  0.00  0.00    +0.000 N 
ATOM     23  H   UNL     1       7.754   4.902  17.556  0.00  0.00    +0.000 HD
ATOM     24  H   UNL     1       7.535   4.519  15.957  0.00  0.00    +0.000 HD
ENDBRANCH   2  22
BRANCH   3  25
ATOM     25  C   UNL     1       4.160   6.380  17.929  0.00  0.00    +0.000 C 
BRANCH  25  26
ATOM     26  C   UNL     1       3.242   6.422  19.154  0.00  0.00    +0.000 C 
BRANCH  26  27
ATOM     27  C   UNL     1       2.336   7.646  19.108  0.00  0.00    +0.000 A 
ATOM     28  C   UNL     1       2.166   8.378  17.922  0.00  0.00    +0.000 A 
ATOM     29  C   UNL     1       1.334   9.503  17.888  0.00  0.00    +0.000 A 
ATOM     30  C   UNL     1       0.675   9.919  19.043  0.00  0.00    +0.000 A 
ATOM     31  C   UNL     1       0.853   9.218  20.231  0.00  0.00    +0.000 A 
ATOM     32  C   UNL     1       1.681   8.091  20.267  0.00  0.00    +0.000 A 
ENDBRANCH  26  27
ENDBRANCH  25  26
ENDBRANCH   3  25
TORSDOF 7
ENDMDL
MODEL 9
REMARK VINA RESULT:      -6.4      4.260      9.146
REMARK  Name = 
REMARK  9 active torsions:
REMARK  status: ('A' for Active; 'I' for Inactive)
REMARK    1  A    between atoms: C_1  and  O_2
REMARK    2  A    between atoms: O_2  and  C_3
REMARK    3  A    between atoms: C_6  and  C_7
REMARK    4  A    between atoms: C_8  and  N_9
REMARK    5  A    between atoms: N_10  and  C_11
REMARK    6  A    between atoms: C_11  and  C_12
REMARK    7  A    between atoms: C_12  and  C_13
REMARK    8  A    between atoms: C_28  and  O_29
REMARK    9  A    between atoms: O_29  and  C_30
REMARK                            x       y       z     vdW  Elec       q    Type
REMARK                         _______ _______ _______ _____ _____    ______ ____
ROOT
ATOM      1  C   UNL     1       0.639   9.818  19.789  0.00  0.00    +0.000 A 
ATOM      2  C   UNL     1       0.685  10.574  18.650  0.00  0.00    +0.000 A 
ATOM      3  N   UNL     1      -0.383  11.432  18.399  0.00  0.00    +0.000 N 
ATOM      4  C   UNL     1      -0.121  12.572  19.135  0.00  0.00    +0.000 A 
ATOM      5  O   UNL     1      -0.012  13.713  18.681  0.00  0.00    +0.000 OA
ATOM      6  C   UNL     1       0.063  12.218  20.585  0.00  0.00    +0.000 A 
ATOM      7  C   UNL     1      -0.336  13.258  21.423  0.00  0.00    +0.000 A 
ATOM      8  C   UNL     1      -0.997  12.911  22.573  0.00  0.00    +0.000 A 
ATOM      9  C   UNL     1      -1.167  11.545  22.863  0.00  0.00    +0.000 A 
ATOM     10  C   UNL     1      -0.576  10.496  22.089  0.00  0.00    +0.000 A 
ATOM     11  C   UNL     1       0.118  10.789  20.917  0.00  0.00    +0.000 A 
ENDROOT
BRANCH   1  15
ATOM     12  C   UNL     1       2.513   5.805  19.450  0.00  0.00    +0.000 A 
ATOM     13  C   UNL     1       1.918   6.260  20.607  0.00  0.00    +0.000 A 
ATOM     14  C   UNL     1       1.471   7.585  20.682  0.00  0.00    +0.000 A 
ATOM     15  C   UNL     1       1.497   8.534  19.601  0.00  0.00    +0.000 A 
ATOM     16  C   UNL     1       2.241   8.105  18.504  0.00  0.00    +0.000 A 
ATOM     17  C   UNL     1       2.752   6.762  18.422  0.00  0.00    +0.000 A 
BRANCH  12  19
ATOM     18  C   UNL     1       2.146   3.488  19.945  0.00  0.00    +0.000 C 
ATOM     19  O   UNL     1       2.947   4.508  19.322  0.00  0.00    +0.000 OA
ENDBRANCH  12  19
BRANCH  17  20
ATOM     20  O   UNL     1       3.495   6.532  17.282  0.00  0.00    +0.000 OA
ATOM     21  C   UNL     1       4.911   6.691  17.363  0.00  0.00    +0.000 C 
ENDBRANCH  17  20
ENDBRANCH   1  15
BRANCH   2  22
ATOM     22  N   UNL     1       1.953  10.932  18.168  0.00  0.00    +0.000 N 
ATOM     23  H   UNL     1       2.275  10.246  17.472  0.00  0.00    +0.000 HD
ATOM     24  H   UNL     1       2.617  10.949  18.936  0.00  0.00    +0.000 HD
ENDBRANCH   2  22
BRANCH   3  25
ATOM     25  C   UNL     1      -1.751  10.827  18.653  0.00  0.00    +0.000 C 
BRANCH  25  26
ATOM     26  C   UNL     1      -2.930  11.524  17.969  0.00  0.00    +0.000 C 
BRANCH  26  27
ATOM     27  C   UNL     1      -4.018  11.863  18.981  0.00  0.00    +0.000 A 
ATOM     28  C   UNL     1      -3.709  12.512  20.187  0.00  0.00    +0.000 A 
ATOM     29  C   UNL     1      -4.713  12.817  21.113  0.00  0.00    +0.000 A 
ATOM     30  C   UNL     1      -6.036  12.463  20.851  0.00  0.00    +0.000 A 
ATOM     31  C   UNL     1      -6.352  11.797  19.671  0.00  0.00    +0.000 A 
ATOM     32  C   UNL     1      -5.351  11.495  18.742  0.00  0.00    +0.000 A 
ENDBRANCH  26  27
ENDBRANCH  25  26
ENDBRANCH   3  25
TORSDOF 7
ENDMDL
