MODEL 1
REMARK VINA RESULT:      -7.8      0.000      0.000
REMARK  Name = 
REMARK  7 active torsions:
REMARK  status: ('A' for Active; 'I' for Inactive)
REMARK    1  A    between atoms: C_1  and  C_2
REMARK    2  A    between atoms: C_7  and  C_8
REMARK    3  A    between atoms: C_9  and  C_10
REMARK    4  A    between atoms: C_18  and  C_19
REMARK    5  A    between atoms: C_25  and  C_26
REMARK    6  A    between atoms: C_31  and  C_32
REMARK    7  A    between atoms: N_33  and  N_34
REMARK                            x       y       z     vdW  Elec       q    Type
REMARK                         _______ _______ _______ _____ _____    ______ ____
ROOT
ATOM      1  C   UNL     1      -1.445  12.675  23.101  0.00  0.00    +0.000 C 
ATOM      2  C   UNL     1      -2.794  12.367  22.415  0.00  0.00    +0.000 C 
ATOM      3  C   UNL     1      -2.550  12.700  20.988  0.00  0.00    +0.000 C 
ATOM      4  O   UNL     1      -2.536  13.871  20.604  0.00  0.00    +0.000 OA
ATOM      5  C   UNL     1      -2.095  11.548  20.160  0.00  0.00    +0.000 C 
ATOM      6  C   UNL     1      -0.610  11.461  20.627  0.00  0.00    +0.000 C 
ATOM      7  N   UNL     1      -0.389  11.759  22.153  0.00  0.00    +0.000 N 
ENDROOT
BRANCH   1  14
ATOM      8  C   UNL     1       0.379  15.178  22.122  0.00  0.00    +0.000 C 
ATOM      9  C   UNL     1      -0.740  15.299  23.121  0.00  0.00    +0.000 A 
ATOM     10  C   UNL     1      -0.927  16.599  23.660  0.00  0.00    +0.000 A 
ATOM     11  C   UNL     1      -1.851  16.856  24.667  0.00  0.00    +0.000 A 
ATOM     12  C   UNL     1      -2.600  15.804  25.183  0.00  0.00    +0.000 A 
ATOM     13  C   UNL     1      -2.414  14.525  24.665  0.00  0.00    +0.000 A 
ATOM     14  C   UNL     1      -1.520  14.208  23.610  0.00  0.00    +0.000 A 
ENDBRANCH   1  14
BRANCH   6  15
ATOM     15  C   UNL     1       0.347  11.981  19.503  0.00  0.00    +0.000 A 
ATOM     16  C   UNL     1       0.381  13.402  19.344  0.00  0.00    +0.000 A 
ATOM     17  C   UNL     1       1.396  14.070  18.664  0.00  0.00    +0.000 A 
ATOM     18  C   UNL     1       2.445  13.356  18.118  0.00  0.00    +0.000 A 
ATOM     19  C   UNL     1       2.384  11.970  18.154  0.00  0.00    +0.000 A 
ATOM     20  C   UNL     1       1.306  11.272  18.762  0.00  0.00    +0.000 A 
ATOM     21  C   UNL     1       1.290   9.805  18.488  0.00  0.00    +0.000 C 
ENDBRANCH   6  15
BRANCH   2  22
ATOM     22  C   UNL     1      -4.176  12.905  22.762  0.00  0.00    +0.000 A 
ATOM     23  C   UNL     1      -4.842  12.511  23.933  0.00  0.00    +0.000 A 
ATOM     24  C   UNL     1      -6.101  12.981  24.262  0.00  0.00    +0.000 A 
ATOM     25  C   UNL     1      -6.712  13.927  23.445  0.00  0.00    +0.000 A 
ATOM     26  C   UNL     1      -6.016  14.448  22.358  0.00  0.00    +0.000 A 
ATOM     27  C   UNL     1      -4.750  13.956  22.024  0.00  0.00    +0.000 A 
ENDBRANCH   2  22
BRANCH   5  28
ATOM     28  C   UNL     1      -2.662  11.700  18.742  0.00  0.00    +0.000 A 
ATOM     29  C   UNL     1      -4.021  12.015  18.542  0.00  0.00    +0.000 A 
ATOM     30  C   UNL     1      -4.694  11.627  17.391  0.00  0.00    +0.000 A 
ATOM     31  C   UNL     1      -3.975  11.090  16.332  0.00  0.00    +0.000 A 
ATOM     32  C   UNL     1      -2.597  10.955  16.429  0.00  0.00    +0.000 A 
ATOM     33  C   UNL     1      -1.938  11.236  17.635  0.00  0.00    +0.000 A 
ENDBRANCH   5  28
BRANCH   7  34
ATOM     34  N   UNL     1       0.040  10.674  22.797  0.00  0.00    +0.000 NA
ATOM     35  O   UNL     1       1.064  10.194  22.301  0.00  0.00    +0.000 OA
ENDBRANCH   7  34
TORSDOF 5
ENDMDL
MODEL 2
REMARK VINA RESULT:      -7.6      1.013      2.111
REMARK  Name = 
REMARK  7 active torsions:
REMARK  status: ('A' for Active; 'I' for Inactive)
REMARK    1  A    between atoms: C_1  and  C_2
REMARK    2  A    between atoms: C_7  and  C_8
REMARK    3  A    between atoms: C_9  and  C_10
REMARK    4  A    between atoms: C_18  and  C_19
REMARK    5  A    between atoms: C_25  and  C_26
REMARK    6  A    between atoms: C_31  and  C_32
REMARK    7  A    between atoms: N_33  and  N_34
REMARK                            x       y       z     vdW  Elec       q    Type
REMARK                         _______ _______ _______ _____ _____    ______ ____
ROOT
ATOM      1  C   UNL     1      -1.346  12.751  23.047  0.00  0.00    +0.000 C 
ATOM      2  C   UNL     1      -2.608  12.725  22.157  0.00  0.00    +0.000 C 
ATOM      3  C   UNL     1      -2.066  12.600  20.779  0.00  0.00    +0.000 C 
ATOM      4  O   UNL     1      -1.584  13.573  20.198  0.00  0.00    +0.000 OA
ATOM      5  C   UNL     1      -1.942  11.196  20.295  0.00  0.00    +0.000 C 
ATOM      6  C   UNL     1      -0.665  10.764  21.078  0.00  0.00    +0.000 C 
ATOM      7  N   UNL     1      -0.565  11.344  22.534  0.00  0.00    +0.000 N 
ENDROOT
BRANCH   1  14
ATOM      8  C   UNL     1      -2.527  14.856  25.220  0.00  0.00    +0.000 C 
ATOM      9  C   UNL     1      -1.439  15.193  24.237  0.00  0.00    +0.000 A 
ATOM     10  C   UNL     1      -0.977  16.534  24.286  0.00  0.00    +0.000 A 
ATOM     11  C   UNL     1      -0.047  17.029  23.378  0.00  0.00    +0.000 A 
ATOM     12  C   UNL     1       0.429  16.194  22.373  0.00  0.00    +0.000 A 
ATOM     13  C   UNL     1      -0.027  14.880  22.315  0.00  0.00    +0.000 A 
ATOM     14  C   UNL     1      -0.940  14.305  23.236  0.00  0.00    +0.000 A 
ENDBRANCH   1  14
BRANCH   6  15
ATOM     15  C   UNL     1       0.560  10.659  20.109  0.00  0.00    +0.000 A 
ATOM     16  C   UNL     1       0.856   9.338  19.648  0.00  0.00    +0.000 A 
ATOM     17  C   UNL     1       1.657   9.078  18.538  0.00  0.00    +0.000 A 
ATOM     18  C   UNL     1       2.194  10.127  17.816  0.00  0.00    +0.000 A 
ATOM     19  C   UNL     1       2.021  11.415  18.303  0.00  0.00    +0.000 A 
ATOM     20  C   UNL     1       1.285  11.687  19.488  0.00  0.00    +0.000 A 
ATOM     21  C   UNL     1       1.415  13.089  19.984  0.00  0.00    +0.000 C 
ENDBRANCH   6  15
BRANCH   2  22
ATOM     22  C   UNL     1      -3.741  13.740  22.094  0.00  0.00    +0.000 A 
ATOM     23  C   UNL     1      -4.880  13.618  22.905  0.00  0.00    +0.000 A 
ATOM     24  C   UNL     1      -5.925  14.524  22.856  0.00  0.00    +0.000 A 
ATOM     25  C   UNL     1      -5.827  15.635  22.025  0.00  0.00    +0.000 A 
ATOM     26  C   UNL     1      -4.648  15.864  21.321  0.00  0.00    +0.000 A 
ATOM     27  C   UNL     1      -3.603  14.935  21.364  0.00  0.00    +0.000 A 
ENDBRANCH   2  22
BRANCH   5  28
ATOM     28  C   UNL     1      -2.216  11.165  18.786  0.00  0.00    +0.000 A 
ATOM     29  C   UNL     1      -3.302  11.876  18.238  0.00  0.00    +0.000 A 
ATOM     30  C   UNL     1      -3.920  11.467  17.064  0.00  0.00    +0.000 A 
ATOM     31  C   UNL     1      -3.344  10.453  16.310  0.00  0.00    +0.000 A 
ATOM     32  C   UNL     1      -2.157   9.869  16.730  0.00  0.00    +0.000 A 
ATOM     33  C   UNL     1      -1.600  10.202  17.974  0.00  0.00    +0.000 A 
ENDBRANCH   5  28
BRANCH   7  34
ATOM     34  N   UNL     1      -0.644  10.374  23.445  0.00  0.00    +0.000 NA
ATOM     35  O   UNL     1       0.413   9.748  23.573  0.00  0.00    +0.000 OA
ENDBRANCH   7  34
TORSDOF 5
ENDMDL
MODEL 3
REMARK VINA RESULT:      -7.4      0.510      1.472
REMARK  Name = 
REMARK  7 active torsions:
REMARK  status: ('A' for Active; 'I' for Inactive)
REMARK    1  A    between atoms: C_1  and  C_2
REMARK    2  A    between atoms: C_7  and  C_8
REMARK    3  A    between atoms: C_9  and  C_10
REMARK    4  A    between atoms: C_18  and  C_19
REMARK    5  A    between atoms: C_25  and  C_26
REMARK    6  A    between atoms: C_31  and  C_32
REMARK    7  A    between atoms: N_33  and  N_34
REMARK                            x       y       z     vdW  Elec       q    Type
REMARK                         _______ _______ _______ _____ _____    ______ ____
ROOT
ATOM      1  C   UNL     1      -1.575  13.011  23.071  0.00  0.00    +0.000 C 
ATOM      2  C   UNL     1      -2.931  12.727  22.389  0.00  0.00    +0.000 C 
ATOM      3  C   UNL     1      -2.650  12.930  20.944  0.00  0.00    +0.000 C 
ATOM      4  O   UNL     1      -2.561  14.063  20.469  0.00  0.00    +0.000 OA
ATOM      5  C   UNL     1      -2.255  11.690  20.218  0.00  0.00    +0.000 C 
ATOM      6  C   UNL     1      -0.783  11.555  20.716  0.00  0.00    +0.000 C 
ATOM      7  N   UNL     1      -0.563  11.961  22.217  0.00  0.00    +0.000 N 
ENDROOT
BRANCH   1  14
ATOM      8  C   UNL     1      -2.895  14.418  25.683  0.00  0.00    +0.000 C 
ATOM      9  C   UNL     1      -2.108  15.165  24.640  0.00  0.00    +0.000 A 
ATOM     10  C   UNL     1      -2.012  16.565  24.846  0.00  0.00    +0.000 A 
ATOM     11  C   UNL     1      -1.405  17.409  23.922  0.00  0.00    +0.000 A 
ATOM     12  C   UNL     1      -0.898  16.870  22.744  0.00  0.00    +0.000 A 
ATOM     13  C   UNL     1      -0.998  15.497  22.532  0.00  0.00    +0.000 A 
ATOM     14  C   UNL     1      -1.565  14.582  23.455  0.00  0.00    +0.000 A 
ENDBRANCH   1  14
BRANCH   6  15
ATOM     15  C   UNL     1       0.217  11.925  19.571  0.00  0.00    +0.000 A 
ATOM     16  C   UNL     1       0.404  13.328  19.359  0.00  0.00    +0.000 A 
ATOM     17  C   UNL     1       1.481  13.856  18.652  0.00  0.00    +0.000 A 
ATOM     18  C   UNL     1       2.443  13.012  18.130  0.00  0.00    +0.000 A 
ATOM     19  C   UNL     1       2.231  11.643  18.218  0.00  0.00    +0.000 A 
ATOM     20  C   UNL     1       1.088  11.090  18.854  0.00  0.00    +0.000 A 
ATOM     21  C   UNL     1       0.911   9.624  18.635  0.00  0.00    +0.000 C 
ENDBRANCH   6  15
BRANCH   2  22
ATOM     22  C   UNL     1      -4.283  13.372  22.669  0.00  0.00    +0.000 A 
ATOM     23  C   UNL     1      -4.744  14.461  21.914  0.00  0.00    +0.000 A 
ATOM     24  C   UNL     1      -5.965  15.067  22.157  0.00  0.00    +0.000 A 
ATOM     25  C   UNL     1      -6.801  14.547  23.140  0.00  0.00    +0.000 A 
ATOM     26  C   UNL     1      -6.437  13.379  23.804  0.00  0.00    +0.000 A 
ATOM     27  C   UNL     1      -5.195  12.782  23.562  0.00  0.00    +0.000 A 
ENDBRANCH   2  22
BRANCH   5  28
ATOM     28  C   UNL     1      -2.794  11.761  18.783  0.00  0.00    +0.000 A 
ATOM     29  C   UNL     1      -4.164  11.986  18.541  0.00  0.00    +0.000 A 
ATOM     30  C   UNL     1      -4.784  11.520  17.389  0.00  0.00    +0.000 A 
ATOM     31  C   UNL     1      -4.008  10.992  16.366  0.00  0.00    +0.000 A 
ATOM     32  C   UNL     1      -2.627  10.944  16.500  0.00  0.00    +0.000 A 
ATOM     33  C   UNL     1      -2.017  11.304  17.710  0.00  0.00    +0.000 A 
ENDBRANCH   5  28
BRANCH   7  34
ATOM     34  N   UNL     1      -0.208  10.909  22.953  0.00  0.00    +0.000 NA
ATOM     35  O   UNL     1       0.681  10.232  22.426  0.00  0.00    +0.000 OA
ENDBRANCH   7  34
TORSDOF 5
ENDMDL
MODEL 4
REMARK VINA RESULT:      -7.3      8.856     11.519
REMARK  Name = 
REMARK  7 active torsions:
REMARK  status: ('A' for Active; 'I' for Inactive)
REMARK    1  A    between atoms: C_1  and  C_2
REMARK    2  A    between atoms: C_7  and  C_8
REMARK    3  A    between atoms: C_9  and  C_10
REMARK    4  A    between atoms: C_18  and  C_19
REMARK    5  A    between atoms: C_25  and  C_26
REMARK    6  A    between atoms: C_31  and  C_32
REMARK    7  A    between atoms: N_33  and  N_34
REMARK                            x       y       z     vdW  Elec       q    Type
REMARK                         _______ _______ _______ _____ _____    ______ ____
ROOT
ATOM      1  C   UNL     1       8.793  15.917  23.311  0.00  0.00    +0.000 C 
ATOM      2  C   UNL     1       8.906  14.378  23.272  0.00  0.00    +0.000 C 
ATOM      3  C   UNL     1       8.981  14.064  21.821  0.00  0.00    +0.000 C 
ATOM      4  O   UNL     1       7.971  14.084  21.117  0.00  0.00    +0.000 OA
ATOM      5  C   UNL     1      10.368  13.979  21.285  0.00  0.00    +0.000 C 
ATOM      6  C   UNL     1      10.710  15.498  21.205  0.00  0.00    +0.000 C 
ATOM      7  N   UNL     1      10.135  16.359  22.384  0.00  0.00    +0.000 N 
ENDROOT
BRANCH   1  14
ATOM      8  C   UNL     1       6.828  16.174  25.884  0.00  0.00    +0.000 C 
ATOM      9  C   UNL     1       6.387  16.428  24.468  0.00  0.00    +0.000 A 
ATOM     10  C   UNL     1       5.014  16.751  24.314  0.00  0.00    +0.000 A 
ATOM     11  C   UNL     1       4.429  16.916  23.063  0.00  0.00    +0.000 A 
ATOM     12  C   UNL     1       5.205  16.733  21.923  0.00  0.00    +0.000 A 
ATOM     13  C   UNL     1       6.551  16.407  22.068  0.00  0.00    +0.000 A 
ATOM     14  C   UNL     1       7.214  16.269  23.315  0.00  0.00    +0.000 A 
ENDBRANCH   1  14
BRANCH   6  15
ATOM     15  C   UNL     1      10.717  15.978  19.715  0.00  0.00    +0.000 A 
ATOM     16  C   UNL     1      11.934  15.730  19.004  0.00  0.00    +0.000 A 
ATOM     17  C   UNL     1      12.025  15.756  17.614  0.00  0.00    +0.000 A 
ATOM     18  C   UNL     1      10.900  16.013  16.855  0.00  0.00    +0.000 A 
ATOM     19  C   UNL     1       9.732  16.370  17.514  0.00  0.00    +0.000 A 
ATOM     20  C   UNL     1       9.650  16.441  18.930  0.00  0.00    +0.000 A 
ATOM     21  C   UNL     1       8.399  17.075  19.443  0.00  0.00    +0.000 C 
ENDBRANCH   6  15
BRANCH   2  22
ATOM     22  C   UNL     1       7.977  13.345  23.898  0.00  0.00    +0.000 A 
ATOM     23  C   UNL     1       6.986  12.700  23.143  0.00  0.00    +0.000 A 
ATOM     24  C   UNL     1       6.126  11.767  23.693  0.00  0.00    +0.000 A 
ATOM     25  C   UNL     1       6.280  11.398  25.026  0.00  0.00    +0.000 A 
ATOM     26  C   UNL     1       7.347  11.909  25.760  0.00  0.00    +0.000 A 
ATOM     27  C   UNL     1       8.202  12.864  25.200  0.00  0.00    +0.000 A 
ENDBRANCH   2  22
BRANCH   5  28
ATOM     28  C   UNL     1      10.410  12.912  20.183  0.00  0.00    +0.000 A 
ATOM     29  C   UNL     1      11.576  12.153  19.962  0.00  0.00    +0.000 A 
ATOM     30  C   UNL     1      11.872  11.623  18.712  0.00  0.00    +0.000 A 
ATOM     31  C   UNL     1      10.913  11.674  17.709  0.00  0.00    +0.000 A 
ATOM     32  C   UNL     1       9.673  12.241  17.966  0.00  0.00    +0.000 A 
ATOM     33  C   UNL     1       9.422  12.880  19.189  0.00  0.00    +0.000 A 
ENDBRANCH   5  28
BRANCH   7  34
ATOM     34  N   UNL     1      11.113  16.858  23.138  0.00  0.00    +0.000 NA
ATOM     35  O   UNL     1      11.799  17.696  22.544  0.00  0.00    +0.000 OA
ENDBRANCH   7  34
TORSDOF 5
ENDMDL
MODEL 5
REMARK VINA RESULT:      -7.2      2.197      3.699
REMARK  Name = 
REMARK  7 active torsions:
REMARK  status: ('A' for Active; 'I' for Inactive)
REMARK    1  A    between atoms: C_1  and  C_2
REMARK    2  A    between atoms: C_7  and  C_8
REMARK    3  A    between atoms: C_9  and  C_10
REMARK    4  A    between atoms: C_18  and  C_19
REMARK    5  A    between atoms: C_25  and  C_26
REMARK    6  A    between atoms: C_31  and  C_32
REMARK    7  A    between atoms: N_33  and  N_34
REMARK                            x       y       z     vdW  Elec       q    Type
REMARK                         _______ _______ _______ _____ _____    ______ ____
ROOT
ATOM      1  C   UNL     1      -2.933  15.156  23.060  0.00  0.00    +0.000 C 
ATOM      2  C   UNL     1      -3.389  13.693  22.870  0.00  0.00    +0.000 C 
ATOM      3  C   UNL     1      -2.696  13.264  21.628  0.00  0.00    +0.000 C 
ATOM      4  O   UNL     1      -3.106  13.615  20.521  0.00  0.00    +0.000 OA
ATOM      5  C   UNL     1      -1.376  12.611  21.858  0.00  0.00    +0.000 C 
ATOM      6  C   UNL     1      -0.514  13.871  22.172  0.00  0.00    +0.000 C 
ATOM      7  N   UNL     1      -1.254  14.976  23.007  0.00  0.00    +0.000 N 
ENDROOT
BRANCH   1  14
ATOM      8  C   UNL     1      -5.599  16.489  24.348  0.00  0.00    +0.000 C 
ATOM      9  C   UNL     1      -5.163  16.703  22.923  0.00  0.00    +0.000 A 
ATOM     10  C   UNL     1      -6.033  17.507  22.142  0.00  0.00    +0.000 A 
ATOM     11  C   UNL     1      -5.824  17.716  20.783  0.00  0.00    +0.000 A 
ATOM     12  C   UNL     1      -4.744  17.099  20.161  0.00  0.00    +0.000 A 
ATOM     13  C   UNL     1      -3.892  16.302  20.921  0.00  0.00    +0.000 A 
ATOM     14  C   UNL     1      -4.028  16.086  22.316  0.00  0.00    +0.000 A 
ENDBRANCH   1  14
BRANCH   6  15
ATOM     15  C   UNL     1       0.437  14.195  20.972  0.00  0.00    +0.000 A 
ATOM     16  C   UNL     1       1.663  13.457  20.954  0.00  0.00    +0.000 A 
ATOM     17  C   UNL     1       2.466  13.338  19.822  0.00  0.00    +0.000 A 
ATOM     18  C   UNL     1       2.079  13.935  18.638  0.00  0.00    +0.000 A 
ATOM     19  C   UNL     1       0.957  14.751  18.650  0.00  0.00    +0.000 A 
ATOM     20  C   UNL     1       0.182  14.959  19.823  0.00  0.00    +0.000 A 
ATOM     21  C   UNL     1      -0.830  16.050  19.706  0.00  0.00    +0.000 C 
ENDBRANCH   6  15
BRANCH   2  22
ATOM     22  C   UNL     1      -4.809  13.148  22.792  0.00  0.00    +0.000 A 
ATOM     23  C   UNL     1      -5.596  12.987  23.943  0.00  0.00    +0.000 A 
ATOM     24  C   UNL     1      -6.885  12.485  23.895  0.00  0.00    +0.000 A 
ATOM     25  C   UNL     1      -7.455  12.186  22.662  0.00  0.00    +0.000 A 
ATOM     26  C   UNL     1      -6.755  12.474  21.494  0.00  0.00    +0.000 A 
ATOM     27  C   UNL     1      -5.448  12.967  21.552  0.00  0.00    +0.000 A 
ENDBRANCH   2  22
BRANCH   5  28
ATOM     28  C   UNL     1      -1.165  11.528  20.791  0.00  0.00    +0.000 A 
ATOM     29  C   UNL     1      -0.315  10.432  21.039  0.00  0.00    +0.000 A 
ATOM     30  C   UNL     1       0.338   9.772  20.005  0.00  0.00    +0.000 A 
ATOM     31  C   UNL     1       0.001  10.067  18.691  0.00  0.00    +0.000 A 
ATOM     32  C   UNL     1      -0.985  11.006  18.424  0.00  0.00    +0.000 A 
ATOM     33  C   UNL     1      -1.555  11.755  19.464  0.00  0.00    +0.000 A 
ENDBRANCH   5  28
BRANCH   7  34
ATOM     34  N   UNL     1      -0.704  15.117  24.213  0.00  0.00    +0.000 NA
ATOM     35  O   UNL     1       0.275  15.870  24.209  0.00  0.00    +0.000 OA
ENDBRANCH   7  34
TORSDOF 5
ENDMDL
MODEL 6
REMARK VINA RESULT:      -7.1      3.038      5.893
REMARK  Name = 
REMARK  7 active torsions:
REMARK  status: ('A' for Active; 'I' for Inactive)
REMARK    1  A    between atoms: C_1  and  C_2
REMARK    2  A    between atoms: C_7  and  C_8
REMARK    3  A    between atoms: C_9  and  C_10
REMARK    4  A    between atoms: C_18  and  C_19
REMARK    5  A    between atoms: C_25  and  C_26
REMARK    6  A    between atoms: C_31  and  C_32
REMARK    7  A    between atoms: N_33  and  N_34
REMARK                            x       y       z     vdW  Elec       q    Type
REMARK                         _______ _______ _______ _____ _____    ______ ____
ROOT
ATOM      1  C   UNL     1       1.124  12.054  19.587  0.00  0.00    +0.000 C 
ATOM      2  C   UNL     1      -0.067  12.494  18.708  0.00  0.00    +0.000 C 
ATOM      3  C   UNL     1      -0.493  13.784  19.309  0.00  0.00    +0.000 C 
ATOM      4  O   UNL     1      -1.153  13.811  20.349  0.00  0.00    +0.000 OA
ATOM      5  C   UNL     1       0.141  14.984  18.695  0.00  0.00    +0.000 C 
ATOM      6  C   UNL     1       1.556  14.891  19.345  0.00  0.00    +0.000 C 
ATOM      7  N   UNL     1       2.104  13.428  19.505  0.00  0.00    +0.000 N 
ENDROOT
BRANCH   1  14
ATOM      8  C   UNL     1       1.253   8.817  19.817  0.00  0.00    +0.000 C 
ATOM      9  C   UNL     1       0.638   9.706  20.865  0.00  0.00    +0.000 A 
ATOM     10  C   UNL     1       0.062   9.025  21.969  0.00  0.00    +0.000 A 
ATOM     11  C   UNL     1      -0.633   9.695  22.970  0.00  0.00    +0.000 A 
ATOM     12  C   UNL     1      -0.793  11.074  22.877  0.00  0.00    +0.000 A 
ATOM     13  C   UNL     1      -0.237  11.746  21.792  0.00  0.00    +0.000 A 
ATOM     14  C   UNL     1       0.519  11.125  20.764  0.00  0.00    +0.000 A 
ENDBRANCH   1  14
BRANCH   6  15
ATOM     15  C   UNL     1       1.729  15.998  20.437  0.00  0.00    +0.000 A 
ATOM     16  C   UNL     1       2.395  17.185  19.996  0.00  0.00    +0.000 A 
ATOM     17  C   UNL     1       2.339  18.393  20.688  0.00  0.00    +0.000 A 
ATOM     18  C   UNL     1       1.600  18.487  21.851  0.00  0.00    +0.000 A 
ATOM     19  C   UNL     1       1.038  17.327  22.367  0.00  0.00    +0.000 A 
ATOM     20  C   UNL     1       1.167  16.068  21.721  0.00  0.00    +0.000 A 
ATOM     21  C   UNL     1       0.712  14.906  22.541  0.00  0.00    +0.000 C 
ENDBRANCH   6  15
BRANCH   2  22
ATOM     22  C   UNL     1      -1.337  11.719  18.382  0.00  0.00    +0.000 A 
ATOM     23  C   UNL     1      -2.608  12.269  18.610  0.00  0.00    +0.000 A 
ATOM     24  C   UNL     1      -3.775  11.579  18.330  0.00  0.00    +0.000 A 
ATOM     25  C   UNL     1      -3.699  10.320  17.742  0.00  0.00    +0.000 A 
ATOM     26  C   UNL     1      -2.459   9.811  17.368  0.00  0.00    +0.000 A 
ATOM     27  C   UNL     1      -1.285  10.508  17.668  0.00  0.00    +0.000 A 
ENDBRANCH   2  22
BRANCH   5  28
ATOM     28  C   UNL     1      -0.864  16.143  18.714  0.00  0.00    +0.000 A 
ATOM     29  C   UNL     1      -0.683  17.265  17.882  0.00  0.00    +0.000 A 
ATOM     30  C   UNL     1      -1.180  18.515  18.229  0.00  0.00    +0.000 A 
ATOM     31  C   UNL     1      -2.035  18.627  19.317  0.00  0.00    +0.000 A 
ATOM     32  C   UNL     1      -2.390  17.496  20.037  0.00  0.00    +0.000 A 
ATOM     33  C   UNL     1      -1.794  16.257  19.757  0.00  0.00    +0.000 A 
ENDBRANCH   5  28
BRANCH   7  34
ATOM     34  N   UNL     1       3.173  13.228  18.736  0.00  0.00    +0.000 NA
ATOM     35  O   UNL     1       3.515  14.240  18.115  0.00  0.00    +0.000 OA
ENDBRANCH   7  34
TORSDOF 5
ENDMDL
MODEL 7
REMARK VINA RESULT:      -7.0      8.896     12.437
REMARK  Name = 
REMARK  7 active torsions:
REMARK  status: ('A' for Active; 'I' for Inactive)
REMARK    1  A    between atoms: C_1  and  C_2
REMARK    2  A    between atoms: C_7  and  C_8
REMARK    3  A    between atoms: C_9  and  C_10
REMARK    4  A    between atoms: C_18  and  C_19
REMARK    5  A    between atoms: C_25  and  C_26
REMARK    6  A    between atoms: C_31  and  C_32
REMARK    7  A    between atoms: N_33  and  N_34
REMARK                            x       y       z     vdW  Elec       q    Type
REMARK                         _______ _______ _______ _____ _____    ______ ____
ROOT
ATOM      1  C   UNL     1       8.300  15.594  19.838  0.00  0.00    +0.000 C 
ATOM      2  C   UNL     1       8.532  14.087  20.083  0.00  0.00    +0.000 C 
ATOM      3  C   UNL     1       8.510  13.961  21.563  0.00  0.00    +0.000 C 
ATOM      4  O   UNL     1       9.482  14.298  22.241  0.00  0.00    +0.000 OA
ATOM      5  C   UNL     1       7.170  13.641  22.130  0.00  0.00    +0.000 C 
ATOM      6  C   UNL     1       6.497  15.043  22.015  0.00  0.00    +0.000 C 
ATOM      7  N   UNL     1       6.881  15.846  20.721  0.00  0.00    +0.000 N 
ENDROOT
BRANCH   1  14
ATOM      8  C   UNL     1      10.132  16.057  17.197  0.00  0.00    +0.000 C 
ATOM      9  C   UNL     1      10.519  16.523  18.575  0.00  0.00    +0.000 A 
ATOM     10  C   UNL     1      11.787  17.155  18.662  0.00  0.00    +0.000 A 
ATOM     11  C   UNL     1      12.333  17.551  19.878  0.00  0.00    +0.000 A 
ATOM     12  C   UNL     1      11.629  17.299  21.051  0.00  0.00    +0.000 A 
ATOM     13  C   UNL     1      10.388  16.673  20.972  0.00  0.00    +0.000 A 
ATOM     14  C   UNL     1       9.760  16.285  19.760  0.00  0.00    +0.000 A 
ENDBRANCH   1  14
BRANCH   6  15
ATOM     15  C   UNL     1       6.364  15.703  23.428  0.00  0.00    +0.000 A 
ATOM     16  C   UNL     1       5.249  15.255  24.203  0.00  0.00    +0.000 A 
ATOM     17  C   UNL     1       5.150  15.445  25.580  0.00  0.00    +0.000 A 
ATOM     18  C   UNL     1       6.171  16.079  26.262  0.00  0.00    +0.000 A 
ATOM     19  C   UNL     1       7.212  16.626  25.525  0.00  0.00    +0.000 A 
ATOM     20  C   UNL     1       7.277  16.522  24.109  0.00  0.00    +0.000 A 
ATOM     21  C   UNL     1       8.327  17.376  23.478  0.00  0.00    +0.000 C 
ENDBRANCH   6  15
BRANCH   2  22
ATOM     22  C   UNL     1       9.675  13.214  19.584  0.00  0.00    +0.000 A 
ATOM     23  C   UNL     1      10.722  12.824  20.432  0.00  0.00    +0.000 A 
ATOM     24  C   UNL     1      11.776  12.038  19.997  0.00  0.00    +0.000 A 
ATOM     25  C   UNL     1      11.776  11.559  18.691  0.00  0.00    +0.000 A 
ATOM     26  C   UNL     1      10.678  11.805  17.869  0.00  0.00    +0.000 A 
ATOM     27  C   UNL     1       9.626  12.612  18.313  0.00  0.00    +0.000 A 
ENDBRANCH   2  22
BRANCH   5  28
ATOM     28  C   UNL     1       7.353  12.748  23.365  0.00  0.00    +0.000 A 
ATOM     29  C   UNL     1       6.383  11.785  23.705  0.00  0.00    +0.000 A 
ATOM     30  C   UNL     1       6.197  11.374  25.019  0.00  0.00    +0.000 A 
ATOM     31  C   UNL     1       7.108  11.769  25.989  0.00  0.00    +0.000 A 
ATOM     32  C   UNL     1       8.193  12.559  25.638  0.00  0.00    +0.000 A 
ATOM     33  C   UNL     1       8.311  13.070  24.336  0.00  0.00    +0.000 A 
ENDBRANCH   5  28
BRANCH   7  34
ATOM     34  N   UNL     1       5.826  16.008  19.925  0.00  0.00    +0.000 NA
ATOM     35  O   UNL     1       5.133  16.982  20.238  0.00  0.00    +0.000 OA
ENDBRANCH   7  34
TORSDOF 5
ENDMDL
MODEL 8
REMARK VINA RESULT:      -7.0      2.156      4.856
REMARK  Name = 
REMARK  7 active torsions:
REMARK  status: ('A' for Active; 'I' for Inactive)
REMARK    1  A    between atoms: C_1  and  C_2
REMARK    2  A    between atoms: C_7  and  C_8
REMARK    3  A    between atoms: C_9  and  C_10
REMARK    4  A    between atoms: C_18  and  C_19
REMARK    5  A    between atoms: C_25  and  C_26
REMARK    6  A    between atoms: C_31  and  C_32
REMARK    7  A    between atoms: N_33  and  N_34
REMARK                            x       y       z     vdW  Elec       q    Type
REMARK                         _______ _______ _______ _____ _____    ______ ____
ROOT
ATOM      1  C   UNL     1      -3.321  12.820  20.236  0.00  0.00    +0.000 C 
ATOM      2  C   UNL     1      -2.325  13.995  20.131  0.00  0.00    +0.000 C 
ATOM      3  C   UNL     1      -1.001  13.358  20.352  0.00  0.00    +0.000 C 
ATOM      4  O   UNL     1      -0.630  13.046  21.485  0.00  0.00    +0.000 OA
ATOM      5  C   UNL     1      -0.313  12.928  19.103  0.00  0.00    +0.000 C 
ATOM      6  C   UNL     1      -1.132  11.639  18.786  0.00  0.00    +0.000 C 
ATOM      7  N   UNL     1      -2.664  11.744  19.111  0.00  0.00    +0.000 N 
ENDROOT
BRANCH   1  14
ATOM      8  C   UNL     1      -6.148  13.808  21.494  0.00  0.00    +0.000 C 
ATOM      9  C   UNL     1      -5.065  13.138  22.296  0.00  0.00    +0.000 A 
ATOM     10  C   UNL     1      -5.340  13.000  23.681  0.00  0.00    +0.000 A 
ATOM     11  C   UNL     1      -4.402  12.494  24.575  0.00  0.00    +0.000 A 
ATOM     12  C   UNL     1      -3.143  12.135  24.104  0.00  0.00    +0.000 A 
ATOM     13  C   UNL     1      -2.865  12.277  22.747  0.00  0.00    +0.000 A 
ATOM     14  C   UNL     1      -3.793  12.744  21.781  0.00  0.00    +0.000 A 
ENDBRANCH   1  14
BRANCH   6  15
ATOM     15  C   UNL     1      -0.276  10.362  19.083  0.00  0.00    +0.000 A 
ATOM     16  C   UNL     1       0.411   9.817  17.953  0.00  0.00    +0.000 A 
ATOM     17  C   UNL     1       1.473   8.922  18.064  0.00  0.00    +0.000 A 
ATOM     18  C   UNL     1       1.919   8.535  19.312  0.00  0.00    +0.000 A 
ATOM     19  C   UNL     1       1.203   8.954  20.424  0.00  0.00    +0.000 A 
ATOM     20  C   UNL     1       0.059   9.791  20.320  0.00  0.00    +0.000 A 
ATOM     21  C   UNL     1      -0.717   9.933  21.588  0.00  0.00    +0.000 C 
ENDBRANCH   6  15
BRANCH   2  22
ATOM     22  C   UNL     1      -2.320  15.303  20.912  0.00  0.00    +0.000 A 
ATOM     23  C   UNL     1      -1.140  15.816  21.472  0.00  0.00    +0.000 A 
ATOM     24  C   UNL     1      -1.115  16.997  22.194  0.00  0.00    +0.000 A 
ATOM     25  C   UNL     1      -2.282  17.744  22.321  0.00  0.00    +0.000 A 
ATOM     26  C   UNL     1      -3.434  17.338  21.652  0.00  0.00    +0.000 A 
ATOM     27  C   UNL     1      -3.454  16.135  20.938  0.00  0.00    +0.000 A 
ENDBRANCH   2  22
BRANCH   5  28
ATOM     28  C   UNL     1       1.201  13.099  19.285  0.00  0.00    +0.000 A 
ATOM     29  C   UNL     1       1.747  13.350  20.559  0.00  0.00    +0.000 A 
ATOM     30  C   UNL     1       2.942  14.042  20.714  0.00  0.00    +0.000 A 
ATOM     31  C   UNL     1       3.713  14.325  19.595  0.00  0.00    +0.000 A 
ATOM     32  C   UNL     1       3.290  13.908  18.341  0.00  0.00    +0.000 A 
ATOM     33  C   UNL     1       2.029  13.316  18.175  0.00  0.00    +0.000 A 
ENDBRANCH   5  28
BRANCH   7  34
ATOM     34  N   UNL     1      -3.397  11.683  18.000  0.00  0.00    +0.000 NA
ATOM     35  O   UNL     1      -2.731  11.390  17.001  0.00  0.00    +0.000 OA
ENDBRANCH   7  34
TORSDOF 5
ENDMDL
MODEL 9
REMARK VINA RESULT:      -6.9      2.779      6.970
REMARK  Name = 
REMARK  7 active torsions:
REMARK  status: ('A' for Active; 'I' for Inactive)
REMARK    1  A    between atoms: C_1  and  C_2
REMARK    2  A    between atoms: C_7  and  C_8
REMARK    3  A    between atoms: C_9  and  C_10
REMARK    4  A    between atoms: C_18  and  C_19
REMARK    5  A    between atoms: C_25  and  C_26
REMARK    6  A    between atoms: C_31  and  C_32
REMARK    7  A    between atoms: N_33  and  N_34
REMARK                            x       y       z     vdW  Elec       q    Type
REMARK                         _______ _______ _______ _____ _____    ______ ____
ROOT
ATOM      1  C   UNL     1      -0.559  11.874  20.922  0.00  0.00    +0.000 C 
ATOM      2  C   UNL     1       0.862  11.418  20.524  0.00  0.00    +0.000 C 
ATOM      3  C   UNL     1       1.433  12.604  19.833  0.00  0.00    +0.000 C 
ATOM      4  O   UNL     1       1.113  12.877  18.675  0.00  0.00    +0.000 OA
ATOM      5  C   UNL     1       2.196  13.522  20.724  0.00  0.00    +0.000 C 
ATOM      6  C   UNL     1       1.008  14.232  21.443  0.00  0.00    +0.000 C 
ATOM      7  N   UNL     1      -0.213  13.299  21.762  0.00  0.00    +0.000 N 
ENDROOT
BRANCH   1  14
ATOM      8  C   UNL     1      -3.434  13.175  20.155  0.00  0.00    +0.000 C 
ATOM      9  C   UNL     1      -2.778  12.073  19.367  0.00  0.00    +0.000 A 
ATOM     10  C   UNL     1      -3.532  11.591  18.264  0.00  0.00    +0.000 A 
ATOM     11  C   UNL     1      -3.111  10.509  17.498  0.00  0.00    +0.000 A 
ATOM     12  C   UNL     1      -1.928   9.860  17.835  0.00  0.00    +0.000 A 
ATOM     13  C   UNL     1      -1.190  10.323  18.921  0.00  0.00    +0.000 A 
ATOM     14  C   UNL     1      -1.543  11.446  19.713  0.00  0.00    +0.000 A 
ENDBRANCH   1  14
BRANCH   6  15
ATOM     15  C   UNL     1       0.854  15.701  20.923  0.00  0.00    +0.000 A 
ATOM     16  C   UNL     1       1.524  16.694  21.705  0.00  0.00    +0.000 A 
ATOM     17  C   UNL     1       1.801  17.976  21.236  0.00  0.00    +0.000 A 
ATOM     18  C   UNL     1       1.440  18.332  19.951  0.00  0.00    +0.000 A 
ATOM     19  C   UNL     1       0.688  17.432  19.208  0.00  0.00    +0.000 A 
ATOM     20  C   UNL     1       0.316  16.156  19.710  0.00  0.00    +0.000 A 
ATOM     21  C   UNL     1      -0.688  15.435  18.873  0.00  0.00    +0.000 C 
ENDBRANCH   6  15
BRANCH   2  22
ATOM     22  C   UNL     1       1.269  10.197  19.710  0.00  0.00    +0.000 A 
ATOM     23  C   UNL     1       1.754  10.319  18.399  0.00  0.00    +0.000 A 
ATOM     24  C   UNL     1       2.121   9.222  17.640  0.00  0.00    +0.000 A 
ATOM     25  C   UNL     1       2.072   7.952  18.207  0.00  0.00    +0.000 A 
ATOM     26  C   UNL     1       1.738   7.813  19.551  0.00  0.00    +0.000 A 
ATOM     27  C   UNL     1       1.355   8.925  20.307  0.00  0.00    +0.000 A 
ENDBRANCH   2  22
BRANCH   5  28
ATOM     28  C   UNL     1       3.358  14.133  19.930  0.00  0.00    +0.000 A 
ATOM     29  C   UNL     1       4.403  14.808  20.591  0.00  0.00    +0.000 A 
ATOM     30  C   UNL     1       5.129  15.814  19.965  0.00  0.00    +0.000 A 
ATOM     31  C   UNL     1       4.956  16.028  18.604  0.00  0.00    +0.000 A 
ATOM     32  C   UNL     1       4.073  15.235  17.885  0.00  0.00    +0.000 A 
ATOM     33  C   UNL     1       3.257  14.303  18.542  0.00  0.00    +0.000 A 
ENDBRANCH   5  28
BRANCH   7  34
ATOM     34  N   UNL     1      -0.374  13.149  23.076  0.00  0.00    +0.000 NA
ATOM     35  O   UNL     1      -0.736  14.189  23.637  0.00  0.00    +0.000 OA
ENDBRANCH   7  34
TORSDOF 5
ENDMDL
