MODEL 1
REMARK VINA RESULT:      -8.0      0.000      0.000
REMARK  Name = 
REMARK  6 active torsions:
REMARK  status: ('A' for Active; 'I' for Inactive)
REMARK    1  A    between atoms: C_1  and  C_2
REMARK    2  A    between atoms: C_2  and  C_3
REMARK    3  A    between atoms: C_7  and  O_8
REMARK    4  A    between atoms: O_8  and  C_9
REMARK    5  A    between atoms: C_9  and  C_11
REMARK    6  A    between atoms: C_22  and  O_23
REMARK                            x       y       z     vdW  Elec       q    Type
REMARK                         _______ _______ _______ _____ _____    ______ ____
ROOT
ATOM      1  C   UNL     1       2.401   2.894  21.626  0.00  0.00    +0.000 C 
ATOM      2  C   UNL     1       2.164   3.827  20.427  0.00  0.00    +0.000 C 
ATOM      3  C   UNL     1       0.861   3.375  19.740  0.00  0.00    +0.000 C 
ATOM      4  O   UNL     1       1.973   5.161  20.955  0.00  0.00    +0.000 OA
ATOM      5  C   UNL     1       2.089   6.192  20.053  0.00  0.00    +0.000 A 
ATOM      6  C   UNL     1       1.590   7.437  20.458  0.00  0.00    +0.000 A 
ATOM      7  C   UNL     1       1.628   8.522  19.577  0.00  0.00    +0.000 A 
ATOM      8  C   UNL     1       2.211   8.380  18.318  0.00  0.00    +0.000 A 
ATOM      9  C   UNL     1       2.718   7.144  17.922  0.00  0.00    +0.000 A 
ATOM     10  C   UNL     1       2.674   6.046  18.789  0.00  0.00    +0.000 A 
ATOM     11  C   UNL     1       3.228   4.732  18.329  0.00  0.00    +0.000 C 
ATOM     12  C   UNL     1       3.406   3.778  19.503  0.00  0.00    +0.000 C 
ENDROOT
BRANCH  12  13
ATOM     13  O   UNL     1       3.699   2.462  19.026  0.00  0.00    +0.000 OA
ATOM     14  H   UNL     1       4.430   2.095  19.553  0.00  0.00    +0.000 HD
ENDBRANCH  12  13
BRANCH   7  15
ATOM     15  O   UNL     1       1.102   9.753  20.048  0.00  0.00    +0.000 OA
BRANCH  15  16
ATOM     16  C   UNL     1       0.877  10.810  19.176  0.00  0.00    +0.000 C 
ATOM     17  O   UNL     1       1.685  11.641  18.783  0.00  0.00    +0.000 OA
BRANCH  16  18
ATOM     18  C   UNL     1      -0.546  10.865  18.764  0.00  0.00    +0.000 A 
ATOM     19  C   UNL     1      -1.056  10.082  17.718  0.00  0.00    +0.000 A 
ATOM     20  C   UNL     1      -2.391  10.226  17.329  0.00  0.00    +0.000 A 
ATOM     21  C   UNL     1      -3.217  11.144  17.983  0.00  0.00    +0.000 A 
ATOM     22 BR   UNL     1      -5.016  11.346  17.441  0.00  0.00    +0.000 Br
ATOM     23  C   UNL     1      -2.720  11.922  19.027  0.00  0.00    +0.000 A 
ATOM     24  C   UNL     1      -1.385  11.786  19.410  0.00  0.00    +0.000 A 
ENDBRANCH  16  18
ENDBRANCH  15  16
ENDBRANCH   7  15
TORSDOF 4
ENDMDL
MODEL 2
REMARK VINA RESULT:      -7.7      0.425      1.095
REMARK  Name = 
REMARK  6 active torsions:
REMARK  status: ('A' for Active; 'I' for Inactive)
REMARK    1  A    between atoms: C_1  and  C_2
REMARK    2  A    between atoms: C_2  and  C_3
REMARK    3  A    between atoms: C_7  and  O_8
REMARK    4  A    between atoms: O_8  and  C_9
REMARK    5  A    between atoms: C_9  and  C_11
REMARK    6  A    between atoms: C_22  and  O_23
REMARK                            x       y       z     vdW  Elec       q    Type
REMARK                         _______ _______ _______ _____ _____    ______ ____
ROOT
ATOM      1  C   UNL     1       2.874   2.865  21.133  0.00  0.00    +0.000 C 
ATOM      2  C   UNL     1       2.603   3.840  19.975  0.00  0.00    +0.000 C 
ATOM      3  C   UNL     1       1.351   3.336  19.231  0.00  0.00    +0.000 C 
ATOM      4  O   UNL     1       2.307   5.129  20.563  0.00  0.00    +0.000 OA
ATOM      5  C   UNL     1       2.373   6.210  19.716  0.00  0.00    +0.000 A 
ATOM      6  C   UNL     1       1.780   7.396  20.167  0.00  0.00    +0.000 A 
ATOM      7  C   UNL     1       1.763   8.525  19.342  0.00  0.00    +0.000 A 
ATOM      8  C   UNL     1       2.385   8.487  18.094  0.00  0.00    +0.000 A 
ATOM      9  C   UNL     1       2.986   7.310  17.652  0.00  0.00    +0.000 A 
ATOM     10  C   UNL     1       2.997   6.169  18.463  0.00  0.00    +0.000 A 
ATOM     11  C   UNL     1       3.652   4.920  17.954  0.00  0.00    +0.000 C 
ATOM     12  C   UNL     1       3.867   3.922  19.084  0.00  0.00    +0.000 C 
ENDROOT
BRANCH  12  13
ATOM     13  O   UNL     1       4.262   2.655  18.551  0.00  0.00    +0.000 OA
ATOM     14  H   UNL     1       3.461   2.153  18.318  0.00  0.00    +0.000 HD
ENDBRANCH  12  13
BRANCH   7  15
ATOM     15  O   UNL     1       1.143   9.692  19.858  0.00  0.00    +0.000 OA
BRANCH  15  16
ATOM     16  C   UNL     1       0.934  10.802  19.051  0.00  0.00    +0.000 C 
ATOM     17  O   UNL     1       1.767  11.606  18.653  0.00  0.00    +0.000 OA
BRANCH  16  18
ATOM     18  C   UNL     1      -0.504  10.958  18.721  0.00  0.00    +0.000 A 
ATOM     19  C   UNL     1      -1.323  11.900  19.360  0.00  0.00    +0.000 A 
ATOM     20  C   UNL     1      -2.686  11.955  19.057  0.00  0.00    +0.000 A 
ATOM     21  C   UNL     1      -3.231  11.077  18.116  0.00  0.00    +0.000 A 
ATOM     22 BR   UNL     1      -5.078  11.145  17.722  0.00  0.00    +0.000 Br
ATOM     23  C   UNL     1      -2.423  10.141  17.472  0.00  0.00    +0.000 A 
ATOM     24  C   UNL     1      -1.063  10.079  17.781  0.00  0.00    +0.000 A 
ENDBRANCH  16  18
ENDBRANCH  15  16
ENDBRANCH   7  15
TORSDOF 4
ENDMDL
MODEL 3
REMARK VINA RESULT:      -7.5      0.836      1.032
REMARK  Name = 
REMARK  6 active torsions:
REMARK  status: ('A' for Active; 'I' for Inactive)
REMARK    1  A    between atoms: C_1  and  C_2
REMARK    2  A    between atoms: C_2  and  C_3
REMARK    3  A    between atoms: C_7  and  O_8
REMARK    4  A    between atoms: O_8  and  C_9
REMARK    5  A    between atoms: C_9  and  C_11
REMARK    6  A    between atoms: C_22  and  O_23
REMARK                            x       y       z     vdW  Elec       q    Type
REMARK                         _______ _______ _______ _____ _____    ______ ____
ROOT
ATOM      1  C   UNL     1       1.935   3.006  21.537  0.00  0.00    +0.000 C 
ATOM      2  C   UNL     1       2.176   3.723  20.198  0.00  0.00    +0.000 C 
ATOM      3  C   UNL     1       1.122   3.205  19.201  0.00  0.00    +0.000 C 
ATOM      4  O   UNL     1       1.949   5.135  20.423  0.00  0.00    +0.000 OA
ATOM      5  C   UNL     1       2.438   5.987  19.462  0.00  0.00    +0.000 A 
ATOM      6  C   UNL     1       1.952   7.301  19.485  0.00  0.00    +0.000 A 
ATOM      7  C   UNL     1       2.365   8.214  18.509  0.00  0.00    +0.000 A 
ATOM      8  C   UNL     1       3.301   7.833  17.548  0.00  0.00    +0.000 A 
ATOM      9  C   UNL     1       3.792   6.530  17.535  0.00  0.00    +0.000 A 
ATOM     10  C   UNL     1       3.377   5.603  18.497  0.00  0.00    +0.000 A 
ATOM     11  C   UNL     1       3.927   4.208  18.451  0.00  0.00    +0.000 C 
ATOM     12  C   UNL     1       3.637   3.468  19.751  0.00  0.00    +0.000 C 
ENDROOT
BRANCH  12  13
ATOM     13  O   UNL     1       3.945   2.080  19.603  0.00  0.00    +0.000 OA
ATOM     14  H   UNL     1       3.117   1.570  19.651  0.00  0.00    +0.000 HD
ENDBRANCH  12  13
BRANCH   7  15
ATOM     15  O   UNL     1       1.831   9.526  18.588  0.00  0.00    +0.000 OA
BRANCH  15  16
ATOM     16  C   UNL     1       0.868   9.846  19.535  0.00  0.00    +0.000 C 
ATOM     17  O   UNL     1       0.985   9.845  20.753  0.00  0.00    +0.000 OA
BRANCH  16  18
ATOM     18  C   UNL     1      -0.424  10.179  18.887  0.00  0.00    +0.000 A 
ATOM     19  C   UNL     1      -0.807   9.637  17.652  0.00  0.00    +0.000 A 
ATOM     20  C   UNL     1      -2.006  10.040  17.057  0.00  0.00    +0.000 A 
ATOM     21  C   UNL     1      -2.825  10.976  17.694  0.00  0.00    +0.000 A 
ATOM     22 BR   UNL     1      -4.437  11.528  16.878  0.00  0.00    +0.000 Br
ATOM     23  C   UNL     1      -2.456  11.515  18.925  0.00  0.00    +0.000 A 
ATOM     24  C   UNL     1      -1.254  11.121  19.516  0.00  0.00    +0.000 A 
ENDBRANCH  16  18
ENDBRANCH  15  16
ENDBRANCH   7  15
TORSDOF 4
ENDMDL
MODEL 4
REMARK VINA RESULT:      -7.5      1.348      1.555
REMARK  Name = 
REMARK  6 active torsions:
REMARK  status: ('A' for Active; 'I' for Inactive)
REMARK    1  A    between atoms: C_1  and  C_2
REMARK    2  A    between atoms: C_2  and  C_3
REMARK    3  A    between atoms: C_7  and  O_8
REMARK    4  A    between atoms: O_8  and  C_9
REMARK    5  A    between atoms: C_9  and  C_11
REMARK    6  A    between atoms: C_22  and  O_23
REMARK                            x       y       z     vdW  Elec       q    Type
REMARK                         _______ _______ _______ _____ _____    ______ ____
ROOT
ATOM      1  C   UNL     1       3.972   2.523  19.252  0.00  0.00    +0.000 C 
ATOM      2  C   UNL     1       3.594   3.769  18.434  0.00  0.00    +0.000 C 
ATOM      3  C   UNL     1       2.538   3.338  17.398  0.00  0.00    +0.000 C 
ATOM      4  O   UNL     1       2.989   4.713  19.350  0.00  0.00    +0.000 OA
ATOM      5  C   UNL     1       2.894   6.011  18.905  0.00  0.00    +0.000 A 
ATOM      6  C   UNL     1       2.032   6.854  19.618  0.00  0.00    +0.000 A 
ATOM      7  C   UNL     1       1.844   8.175  19.197  0.00  0.00    +0.000 A 
ATOM      8  C   UNL     1       2.556   8.667  18.103  0.00  0.00    +0.000 A 
ATOM      9  C   UNL     1       3.422   7.830  17.404  0.00  0.00    +0.000 A 
ATOM     10  C   UNL     1       3.608   6.502  17.806  0.00  0.00    +0.000 A 
ATOM     11  C   UNL     1       4.548   5.631  17.028  0.00  0.00    +0.000 C 
ATOM     12  C   UNL     1       4.879   4.362  17.805  0.00  0.00    +0.000 C 
ENDROOT
BRANCH  12  13
ATOM     13  O   UNL     1       5.570   3.438  16.961  0.00  0.00    +0.000 OA
ATOM     14  H   UNL     1       6.434   3.819  16.724  0.00  0.00    +0.000 HD
ENDBRANCH  12  13
BRANCH   7  15
ATOM     15  O   UNL     1       0.954   8.974  19.960  0.00  0.00    +0.000 OA
BRANCH  15  16
ATOM     16  C   UNL     1       0.745  10.309  19.640  0.00  0.00    +0.000 C 
ATOM     17  O   UNL     1       1.477  11.260  19.879  0.00  0.00    +0.000 OA
BRANCH  16  18
ATOM     18  C   UNL     1      -0.562  10.494  18.965  0.00  0.00    +0.000 A 
ATOM     19  C   UNL     1      -0.890   9.838  17.770  0.00  0.00    +0.000 A 
ATOM     20  C   UNL     1      -2.110  10.104  17.142  0.00  0.00    +0.000 A 
ATOM     21  C   UNL     1      -3.004  11.018  17.707  0.00  0.00    +0.000 A 
ATOM     22 BR   UNL     1      -4.645  11.385  16.846  0.00  0.00    +0.000 Br
ATOM     23  C   UNL     1      -2.689  11.670  18.897  0.00  0.00    +0.000 A 
ATOM     24  C   UNL     1      -1.467  11.412  19.520  0.00  0.00    +0.000 A 
ENDBRANCH  16  18
ENDBRANCH  15  16
ENDBRANCH   7  15
TORSDOF 4
ENDMDL
MODEL 5
REMARK VINA RESULT:      -7.5      1.451      2.490
REMARK  Name = 
REMARK  6 active torsions:
REMARK  status: ('A' for Active; 'I' for Inactive)
REMARK    1  A    between atoms: C_1  and  C_2
REMARK    2  A    between atoms: C_2  and  C_3
REMARK    3  A    between atoms: C_7  and  O_8
REMARK    4  A    between atoms: O_8  and  C_9
REMARK    5  A    between atoms: C_9  and  C_11
REMARK    6  A    between atoms: C_22  and  O_23
REMARK                            x       y       z     vdW  Elec       q    Type
REMARK                         _______ _______ _______ _____ _____    ______ ____
ROOT
ATOM      1  C   UNL     1       5.206   4.064  16.197  0.00  0.00    +0.000 C 
ATOM      2  C   UNL     1       4.676   4.424  17.595  0.00  0.00    +0.000 C 
ATOM      3  C   UNL     1       5.896   4.618  18.516  0.00  0.00    +0.000 C 
ATOM      4  O   UNL     1       3.978   5.687  17.475  0.00  0.00    +0.000 OA
ATOM      5  C   UNL     1       3.143   6.018  18.515  0.00  0.00    +0.000 A 
ATOM      6  C   UNL     1       2.724   7.353  18.580  0.00  0.00    +0.000 A 
ATOM      7  C   UNL     1       1.912   7.778  19.637  0.00  0.00    +0.000 A 
ATOM      8  C   UNL     1       1.475   6.862  20.593  0.00  0.00    +0.000 A 
ATOM      9  C   UNL     1       1.882   5.532  20.519  0.00  0.00    +0.000 A 
ATOM     10  C   UNL     1       2.706   5.097  19.475  0.00  0.00    +0.000 A 
ATOM     11  C   UNL     1       3.125   3.658  19.428  0.00  0.00    +0.000 C 
ATOM     12  C   UNL     1       3.711   3.308  18.065  0.00  0.00    +0.000 C 
ENDROOT
BRANCH  12  13
ATOM     13  O   UNL     1       4.324   2.018  18.113  0.00  0.00    +0.000 OA
ATOM     14  H   UNL     1       4.445   1.765  19.045  0.00  0.00    +0.000 HD
ENDBRANCH  12  13
BRANCH   7  15
ATOM     15  O   UNL     1       1.528   9.144  19.646  0.00  0.00    +0.000 OA
BRANCH  15  16
ATOM     16  C   UNL     1       1.252   9.812  18.461  0.00  0.00    +0.000 C 
ATOM     17  O   UNL     1       2.037  10.121  17.574  0.00  0.00    +0.000 OA
BRANCH  16  18
ATOM     18  C   UNL     1      -0.183  10.177  18.378  0.00  0.00    +0.000 A 
ATOM     19  C   UNL     1      -1.048   9.614  17.429  0.00  0.00    +0.000 A 
ATOM     20  C   UNL     1      -2.375  10.047  17.354  0.00  0.00    +0.000 A 
ATOM     21  C   UNL     1      -2.841  11.034  18.227  0.00  0.00    +0.000 A 
ATOM     22 BR   UNL     1      -4.631  11.626  18.110  0.00  0.00    +0.000 Br
ATOM     23  C   UNL     1      -1.990  11.595  19.177  0.00  0.00    +0.000 A 
ATOM     24  C   UNL     1      -0.662  11.170  19.246  0.00  0.00    +0.000 A 
ENDBRANCH  16  18
ENDBRANCH  15  16
ENDBRANCH   7  15
TORSDOF 4
ENDMDL
MODEL 6
REMARK VINA RESULT:      -7.5      1.280      1.782
REMARK  Name = 
REMARK  6 active torsions:
REMARK  status: ('A' for Active; 'I' for Inactive)
REMARK    1  A    between atoms: C_1  and  C_2
REMARK    2  A    between atoms: C_2  and  C_3
REMARK    3  A    between atoms: C_7  and  O_8
REMARK    4  A    between atoms: O_8  and  C_9
REMARK    5  A    between atoms: C_9  and  C_11
REMARK    6  A    between atoms: C_22  and  O_23
REMARK                            x       y       z     vdW  Elec       q    Type
REMARK                         _______ _______ _______ _____ _____    ______ ____
ROOT
ATOM      1  C   UNL     1       4.381   2.919  19.788  0.00  0.00    +0.000 C 
ATOM      2  C   UNL     1       3.853   4.028  18.861  0.00  0.00    +0.000 C 
ATOM      3  C   UNL     1       2.785   3.397  17.948  0.00  0.00    +0.000 C 
ATOM      4  O   UNL     1       3.218   5.020  19.702  0.00  0.00    +0.000 OA
ATOM      5  C   UNL     1       2.987   6.245  19.123  0.00  0.00    +0.000 A 
ATOM      6  C   UNL     1       2.094   7.094  19.790  0.00  0.00    +0.000 A 
ATOM      7  C   UNL     1       1.770   8.338  19.238  0.00  0.00    +0.000 A 
ATOM      8  C   UNL     1       2.377   8.755  18.054  0.00  0.00    +0.000 A 
ATOM      9  C   UNL     1       3.275   7.915  17.399  0.00  0.00    +0.000 A 
ATOM     10  C   UNL     1       3.597   6.662  17.934  0.00  0.00    +0.000 A 
ATOM     11  C   UNL     1       4.567   5.784  17.201  0.00  0.00    +0.000 C 
ATOM     12  C   UNL     1       5.047   4.646  18.092  0.00  0.00    +0.000 C 
ENDROOT
BRANCH  12  13
ATOM     13  O   UNL     1       5.770   3.688  17.315  0.00  0.00    +0.000 OA
ATOM     14  H   UNL     1       5.618   2.803  17.692  0.00  0.00    +0.000 HD
ENDBRANCH  12  13
BRANCH   7  15
ATOM     15  O   UNL     1       0.855   9.146  19.961  0.00  0.00    +0.000 OA
BRANCH  15  16
ATOM     16  C   UNL     1       0.724  10.499  19.678  0.00  0.00    +0.000 C 
ATOM     17  O   UNL     1       1.530  11.392  19.902  0.00  0.00    +0.000 OA
BRANCH  16  18
ATOM     18  C   UNL     1      -0.596  10.789  19.068  0.00  0.00    +0.000 A 
ATOM     19  C   UNL     1      -1.494  11.711  19.624  0.00  0.00    +0.000 A 
ATOM     20  C   UNL     1      -2.752  11.893  19.043  0.00  0.00    +0.000 A 
ATOM     21  C   UNL     1      -3.113  11.162  17.908  0.00  0.00    +0.000 A 
ATOM     22 BR   UNL     1      -4.821  11.402  17.137  0.00  0.00    +0.000 Br
ATOM     23  C   UNL     1      -2.225  10.248  17.346  0.00  0.00    +0.000 A 
ATOM     24  C   UNL     1      -0.971  10.058  17.930  0.00  0.00    +0.000 A 
ENDBRANCH  16  18
ENDBRANCH  15  16
ENDBRANCH   7  15
TORSDOF 4
ENDMDL
MODEL 7
REMARK VINA RESULT:      -7.4      2.429      2.863
REMARK  Name = 
REMARK  6 active torsions:
REMARK  status: ('A' for Active; 'I' for Inactive)
REMARK    1  A    between atoms: C_1  and  C_2
REMARK    2  A    between atoms: C_2  and  C_3
REMARK    3  A    between atoms: C_7  and  O_8
REMARK    4  A    between atoms: O_8  and  C_9
REMARK    5  A    between atoms: C_9  and  C_11
REMARK    6  A    between atoms: C_22  and  O_23
REMARK                            x       y       z     vdW  Elec       q    Type
REMARK                         _______ _______ _______ _____ _____    ______ ____
ROOT
ATOM      1  C   UNL     1       4.346   2.301  19.874  0.00  0.00    +0.000 C 
ATOM      2  C   UNL     1       3.681   3.500  19.176  0.00  0.00    +0.000 C 
ATOM      3  C   UNL     1       2.589   2.943  18.242  0.00  0.00    +0.000 C 
ATOM      4  O   UNL     1       3.048   4.296  20.207  0.00  0.00    +0.000 OA
ATOM      5  C   UNL     1       2.697   5.577  19.852  0.00  0.00    +0.000 A 
ATOM      6  C   UNL     1       1.804   6.239  20.704  0.00  0.00    +0.000 A 
ATOM      7  C   UNL     1       1.362   7.527  20.384  0.00  0.00    +0.000 A 
ATOM      8  C   UNL     1       1.851   8.172  19.248  0.00  0.00    +0.000 A 
ATOM      9  C   UNL     1       2.748   7.515  18.409  0.00  0.00    +0.000 A 
ATOM     10  C   UNL     1       3.188   6.221  18.710  0.00  0.00    +0.000 A 
ATOM     11  C   UNL     1       4.154   5.546  17.783  0.00  0.00    +0.000 C 
ATOM     12  C   UNL     1       4.771   4.319  18.444  0.00  0.00    +0.000 C 
ENDROOT
BRANCH  12  13
ATOM     13  O   UNL     1       5.494   3.553  17.476  0.00  0.00    +0.000 OA
ATOM     14  H   UNL     1       6.443   3.750  17.570  0.00  0.00    +0.000 HD
ENDBRANCH  12  13
BRANCH   7  15
ATOM     15  O   UNL     1       0.455   8.140  21.286  0.00  0.00    +0.000 OA
BRANCH  15  16
ATOM     16  C   UNL     1       0.827   9.260  22.018  0.00  0.00    +0.000 C 
ATOM     17  O   UNL     1       1.836   9.412  22.693  0.00  0.00    +0.000 OA
BRANCH  16  18
ATOM     18  C   UNL     1      -0.206  10.320  21.929  0.00  0.00    +0.000 A 
ATOM     19  C   UNL     1      -0.425  11.059  20.757  0.00  0.00    +0.000 A 
ATOM     20  C   UNL     1      -1.366  12.093  20.752  0.00  0.00    +0.000 A 
ATOM     21  C   UNL     1      -2.090  12.386  21.910  0.00  0.00    +0.000 A 
ATOM     22 BR   UNL     1      -3.349  13.796  21.902  0.00  0.00    +0.000 Br
ATOM     23  C   UNL     1      -1.883  11.654  23.077  0.00  0.00    +0.000 A 
ATOM     24  C   UNL     1      -0.937  10.627  23.086  0.00  0.00    +0.000 A 
ENDBRANCH  16  18
ENDBRANCH  15  16
ENDBRANCH   7  15
TORSDOF 4
ENDMDL
MODEL 8
REMARK VINA RESULT:      -7.4      1.558      2.608
REMARK  Name = 
REMARK  6 active torsions:
REMARK  status: ('A' for Active; 'I' for Inactive)
REMARK    1  A    between atoms: C_1  and  C_2
REMARK    2  A    between atoms: C_2  and  C_3
REMARK    3  A    between atoms: C_7  and  O_8
REMARK    4  A    between atoms: O_8  and  C_9
REMARK    5  A    between atoms: C_9  and  C_11
REMARK    6  A    between atoms: C_22  and  O_23
REMARK                            x       y       z     vdW  Elec       q    Type
REMARK                         _______ _______ _______ _____ _____    ______ ____
ROOT
ATOM      1  C   UNL     1       5.401   4.549  16.142  0.00  0.00    +0.000 C 
ATOM      2  C   UNL     1       4.923   5.261  17.420  0.00  0.00    +0.000 C 
ATOM      3  C   UNL     1       6.166   5.857  18.109  0.00  0.00    +0.000 C 
ATOM      4  O   UNL     1       4.057   6.345  17.005  0.00  0.00    +0.000 OA
ATOM      5  C   UNL     1       3.257   6.888  17.982  0.00  0.00    +0.000 A 
ATOM      6  C   UNL     1       2.670   8.126  17.694  0.00  0.00    +0.000 A 
ATOM      7  C   UNL     1       1.882   8.765  18.657  0.00  0.00    +0.000 A 
ATOM      8  C   UNL     1       1.636   8.144  19.882  0.00  0.00    +0.000 A 
ATOM      9  C   UNL     1       2.211   6.907  20.161  0.00  0.00    +0.000 A 
ATOM     10  C   UNL     1       3.012   6.263  19.212  0.00  0.00    +0.000 A 
ATOM     11  C   UNL     1       3.615   4.932  19.548  0.00  0.00    +0.000 C 
ATOM     12  C   UNL     1       4.149   4.247  18.297  0.00  0.00    +0.000 C 
ENDROOT
BRANCH  12  13
ATOM     13  O   UNL     1       4.931   3.106  18.659  0.00  0.00    +0.000 OA
ATOM     14  H   UNL     1       4.348   2.452  19.083  0.00  0.00    +0.000 HD
ENDBRANCH  12  13
BRANCH   7  15
ATOM     15  O   UNL     1       1.321  10.019  18.302  0.00  0.00    +0.000 OA
BRANCH  15  16
ATOM     16  C   UNL     1       0.592  10.758  19.224  0.00  0.00    +0.000 C 
ATOM     17  O   UNL     1       0.992  11.257  20.268  0.00  0.00    +0.000 OA
BRANCH  16  18
ATOM     18  C   UNL     1      -0.830  10.864  18.817  0.00  0.00    +0.000 A 
ATOM     19  C   UNL     1      -1.371  10.099  17.774  0.00  0.00    +0.000 A 
ATOM     20  C   UNL     1      -2.701  10.291  17.389  0.00  0.00    +0.000 A 
ATOM     21  C   UNL     1      -3.491  11.239  18.044  0.00  0.00    +0.000 A 
ATOM     22 BR   UNL     1      -5.283  11.505  17.508  0.00  0.00    +0.000 Br
ATOM     23  C   UNL     1      -2.963  12.000  19.085  0.00  0.00    +0.000 A 
ATOM     24  C   UNL     1      -1.632  11.816  19.464  0.00  0.00    +0.000 A 
ENDBRANCH  16  18
ENDBRANCH  15  16
ENDBRANCH   7  15
TORSDOF 4
ENDMDL
MODEL 9
REMARK VINA RESULT:      -7.4      1.129      2.311
REMARK  Name = 
REMARK  6 active torsions:
REMARK  status: ('A' for Active; 'I' for Inactive)
REMARK    1  A    between atoms: C_1  and  C_2
REMARK    2  A    between atoms: C_2  and  C_3
REMARK    3  A    between atoms: C_7  and  O_8
REMARK    4  A    between atoms: O_8  and  C_9
REMARK    5  A    between atoms: C_9  and  C_11
REMARK    6  A    between atoms: C_22  and  O_23
REMARK                            x       y       z     vdW  Elec       q    Type
REMARK                         _______ _______ _______ _____ _____    ______ ____
ROOT
ATOM      1  C   UNL     1       4.114   3.526  17.311  0.00  0.00    +0.000 C 
ATOM      2  C   UNL     1       3.831   4.546  18.427  0.00  0.00    +0.000 C 
ATOM      3  C   UNL     1       5.186   4.952  19.036  0.00  0.00    +0.000 C 
ATOM      4  O   UNL     1       3.236   5.708  17.801  0.00  0.00    +0.000 OA
ATOM      5  C   UNL     1       2.596   6.587  18.642  0.00  0.00    +0.000 A 
ATOM      6  C   UNL     1       2.310   7.856  18.121  0.00  0.00    +0.000 A 
ATOM      7  C   UNL     1       1.704   8.822  18.932  0.00  0.00    +0.000 A 
ATOM      8  C   UNL     1       1.336   8.505  20.239  0.00  0.00    +0.000 A 
ATOM      9  C   UNL     1       1.610   7.239  20.751  0.00  0.00    +0.000 A 
ATOM     10  C   UNL     1       2.228   6.268  19.955  0.00  0.00    +0.000 A 
ATOM     11  C   UNL     1       2.508   4.916  20.540  0.00  0.00    +0.000 C 
ATOM     12  C   UNL     1       2.852   3.912  19.446  0.00  0.00    +0.000 C 
ENDROOT
BRANCH  12  13
ATOM     13  O   UNL     1       3.351   2.705  20.028  0.00  0.00    +0.000 OA
ATOM     14  H   UNL     1       2.672   2.344  20.624  0.00  0.00    +0.000 HD
ENDBRANCH  12  13
BRANCH   7  15
ATOM     15  O   UNL     1       1.447  10.087  18.344  0.00  0.00    +0.000 OA
BRANCH  15  16
ATOM     16  C   UNL     1       0.831  11.096  19.071  0.00  0.00    +0.000 C 
ATOM     17  O   UNL     1       1.339  11.838  19.901  0.00  0.00    +0.000 OA
BRANCH  16  18
ATOM     18  C   UNL     1      -0.616  11.175  18.752  0.00  0.00    +0.000 A 
ATOM     19  C   UNL     1      -1.484  12.055  19.413  0.00  0.00    +0.000 A 
ATOM     20  C   UNL     1      -2.850  12.037  19.119  0.00  0.00    +0.000 A 
ATOM     21  C   UNL     1      -3.349  11.148  18.164  0.00  0.00    +0.000 A 
ATOM     22 BR   UNL     1      -5.199  11.117  17.782  0.00  0.00    +0.000 Br
ATOM     23  C   UNL     1      -2.493  10.273  17.498  0.00  0.00    +0.000 A 
ATOM     24  C   UNL     1      -1.130  10.284  17.798  0.00  0.00    +0.000 A 
ENDBRANCH  16  18
ENDBRANCH  15  16
ENDBRANCH   7  15
TORSDOF 4
ENDMDL
