MODEL 1
REMARK VINA RESULT:      -7.7      0.000      0.000
REMARK  Name = 
REMARK  3 active torsions:
REMARK  status: ('A' for Active; 'I' for Inactive)
REMARK    1  A    between atoms: C_1  and  C_2
REMARK    2  A    between atoms: C_7  and  C_8
REMARK    3  A    between atoms: C_13  and  C_14
REMARK                            x       y       z     vdW  Elec       q    Type
REMARK                         _______ _______ _______ _____ _____    ______ ____
ROOT
ATOM      1  C   UNL     1       4.090   4.631  18.235  0.00  0.00    +0.000 A 
ATOM      2  C   UNL     1       4.079   3.279  17.814  0.00  0.00    +0.000 A 
ATOM      3  C   UNL     1       2.913   2.523  17.690  0.00  0.00    +0.000 A 
ATOM      4  C   UNL     1       1.698   3.080  18.033  0.00  0.00    +0.000 A 
ATOM      5  C   UNL     1       1.665   4.377  18.533  0.00  0.00    +0.000 A 
ATOM      6  C   UNL     1       2.832   5.177  18.665  0.00  0.00    +0.000 A 
ENDROOT
BRANCH   1  13
ATOM      7  C   UNL     1       4.991   6.613  15.982  0.00  0.00    +0.000 C 
ATOM      8  C   UNL     1       5.814   6.278  17.204  0.00  0.00    +0.000 A 
ATOM      9  C   UNL     1       7.059   6.944  17.298  0.00  0.00    +0.000 A 
ATOM     10  C   UNL     1       7.901   6.763  18.386  0.00  0.00    +0.000 A 
ATOM     11  C   UNL     1       7.544   5.855  19.366  0.00  0.00    +0.000 A 
ATOM     12  C   UNL     1       6.352   5.132  19.249  0.00  0.00    +0.000 A 
ATOM     13  C   UNL     1       5.412   5.359  18.222  0.00  0.00    +0.000 A 
ENDBRANCH   1  13
BRANCH   6  14
ATOM     14  C   UNL     1       2.679   6.523  19.372  0.00  0.00    +0.000 C 
ATOM     15  C   UNL     1       1.639   6.668  20.500  0.00  0.00    +0.000 C 
ATOM     16  C   UNL     1       1.634   8.170  20.709  0.00  0.00    +0.000 C 
ATOM     17  N   UNL     1       1.548   8.660  19.331  0.00  0.00    +0.000 NA
ATOM     18  C   UNL     1       2.393   7.766  18.512  0.00  0.00    +0.000 C 
ATOM     19  H   UNL     1       1.865   9.625  19.267  0.00  0.00    +0.000 HD
ENDBRANCH   6  14
TORSDOF 2
ENDMDL
MODEL 2
REMARK VINA RESULT:      -7.1      2.400      5.377
REMARK  Name = 
REMARK  3 active torsions:
REMARK  status: ('A' for Active; 'I' for Inactive)
REMARK    1  A    between atoms: C_1  and  C_2
REMARK    2  A    between atoms: C_7  and  C_8
REMARK    3  A    between atoms: C_13  and  C_14
REMARK                            x       y       z     vdW  Elec       q    Type
REMARK                         _______ _______ _______ _____ _____    ______ ____
ROOT
ATOM      1  C   UNL     1       2.717   6.054  18.888  0.00  0.00    +0.000 A 
ATOM      2  C   UNL     1       1.839   7.161  18.991  0.00  0.00    +0.000 A 
ATOM      3  C   UNL     1       2.026   8.356  18.294  0.00  0.00    +0.000 A 
ATOM      4  C   UNL     1       3.137   8.513  17.493  0.00  0.00    +0.000 A 
ATOM      5  C   UNL     1       4.073   7.487  17.425  0.00  0.00    +0.000 A 
ATOM      6  C   UNL     1       3.912   6.255  18.115  0.00  0.00    +0.000 A 
ENDROOT
BRANCH   1  13
ATOM      7  C   UNL     1       1.692   3.450  17.478  0.00  0.00    +0.000 C 
ATOM      8  C   UNL     1       1.889   3.593  18.970  0.00  0.00    +0.000 A 
ATOM      9  C   UNL     1       1.592   2.440  19.733  0.00  0.00    +0.000 A 
ATOM     10  C   UNL     1       1.764   2.415  21.111  0.00  0.00    +0.000 A 
ATOM     11  C   UNL     1       2.167   3.570  21.756  0.00  0.00    +0.000 A 
ATOM     12  C   UNL     1       2.391   4.740  21.023  0.00  0.00    +0.000 A 
ATOM     13  C   UNL     1       2.337   4.788  19.615  0.00  0.00    +0.000 A 
ENDBRANCH   1  13
BRANCH   6  14
ATOM     14  C   UNL     1       5.085   5.278  18.080  0.00  0.00    +0.000 C 
ATOM     15  C   UNL     1       6.523   5.820  18.192  0.00  0.00    +0.000 C 
ATOM     16  C   UNL     1       7.334   4.588  17.842  0.00  0.00    +0.000 C 
ATOM     17  N   UNL     1       6.640   4.105  16.646  0.00  0.00    +0.000 NA
ATOM     18  C   UNL     1       5.197   4.321  16.880  0.00  0.00    +0.000 C 
ATOM     19  H   UNL     1       6.843   3.123  16.478  0.00  0.00    +0.000 HD
ENDBRANCH   6  14
TORSDOF 2
ENDMDL
MODEL 3
REMARK VINA RESULT:      -7.1      2.100      4.031
REMARK  Name = 
REMARK  3 active torsions:
REMARK  status: ('A' for Active; 'I' for Inactive)
REMARK    1  A    between atoms: C_1  and  C_2
REMARK    2  A    between atoms: C_7  and  C_8
REMARK    3  A    between atoms: C_13  and  C_14
REMARK                            x       y       z     vdW  Elec       q    Type
REMARK                         _______ _______ _______ _____ _____    ______ ____
ROOT
ATOM      1  C   UNL     1       3.992   6.332  17.801  0.00  0.00    +0.000 A 
ATOM      2  C   UNL     1       3.655   7.661  17.448  0.00  0.00    +0.000 A 
ATOM      3  C   UNL     1       2.698   8.417  18.127  0.00  0.00    +0.000 A 
ATOM      4  C   UNL     1       1.996   7.851  19.172  0.00  0.00    +0.000 A 
ATOM      5  C   UNL     1       2.231   6.520  19.503  0.00  0.00    +0.000 A 
ATOM      6  C   UNL     1       3.202   5.725  18.837  0.00  0.00    +0.000 A 
ENDROOT
BRANCH   1  13
ATOM      7  C   UNL     1       6.743   5.541  19.075  0.00  0.00    +0.000 C 
ATOM      8  C   UNL     1       6.367   5.292  17.633  0.00  0.00    +0.000 A 
ATOM      9  C   UNL     1       7.351   4.640  16.854  0.00  0.00    +0.000 A 
ATOM     10  C   UNL     1       7.127   4.312  15.524  0.00  0.00    +0.000 A 
ATOM     11  C   UNL     1       5.939   4.697  14.930  0.00  0.00    +0.000 A 
ATOM     12  C   UNL     1       4.986   5.409  15.667  0.00  0.00    +0.000 A 
ATOM     13  C   UNL     1       5.119   5.670  17.046  0.00  0.00    +0.000 A 
ENDBRANCH   1  13
BRANCH   6  14
ATOM     14  C   UNL     1       3.249   4.240  19.192  0.00  0.00    +0.000 C 
ATOM     15  C   UNL     1       2.986   3.192  18.092  0.00  0.00    +0.000 C 
ATOM     16  C   UNL     1       2.859   1.924  18.913  0.00  0.00    +0.000 C 
ATOM     17  N   UNL     1       1.960   2.355  19.987  0.00  0.00    +0.000 NA
ATOM     18  C   UNL     1       2.349   3.738  20.334  0.00  0.00    +0.000 C 
ATOM     19  H   UNL     1       2.033   1.739  20.793  0.00  0.00    +0.000 HD
ENDBRANCH   6  14
TORSDOF 2
ENDMDL
MODEL 4
REMARK VINA RESULT:      -7.1      1.613      4.307
REMARK  Name = 
REMARK  3 active torsions:
REMARK  status: ('A' for Active; 'I' for Inactive)
REMARK    1  A    between atoms: C_1  and  C_2
REMARK    2  A    between atoms: C_7  and  C_8
REMARK    3  A    between atoms: C_13  and  C_14
REMARK                            x       y       z     vdW  Elec       q    Type
REMARK                         _______ _______ _______ _____ _____    ______ ____
ROOT
ATOM      1  C   UNL     1       3.885   5.064  18.556  0.00  0.00    +0.000 A 
ATOM      2  C   UNL     1       5.022   4.351  18.104  0.00  0.00    +0.000 A 
ATOM      3  C   UNL     1       6.064   4.942  17.387  0.00  0.00    +0.000 A 
ATOM      4  C   UNL     1       5.987   6.277  17.047  0.00  0.00    +0.000 A 
ATOM      5  C   UNL     1       4.851   7.000  17.393  0.00  0.00    +0.000 A 
ATOM      6  C   UNL     1       3.776   6.432  18.128  0.00  0.00    +0.000 A 
ENDROOT
BRANCH   1  13
ATOM      7  C   UNL     1       1.204   3.849  17.484  0.00  0.00    +0.000 C 
ATOM      8  C   UNL     1       1.673   3.751  18.917  0.00  0.00    +0.000 A 
ATOM      9  C   UNL     1       0.815   3.039  19.788  0.00  0.00    +0.000 A 
ATOM     10  C   UNL     1       1.139   2.837  21.123  0.00  0.00    +0.000 A 
ATOM     11  C   UNL     1       2.293   3.408  21.626  0.00  0.00    +0.000 A 
ATOM     12  C   UNL     1       3.113   4.179  20.795  0.00  0.00    +0.000 A 
ATOM     13  C   UNL     1       2.887   4.323  19.411  0.00  0.00    +0.000 A 
ENDBRANCH   1  13
BRANCH   6  14
ATOM     14  C   UNL     1       2.524   7.289  18.307  0.00  0.00    +0.000 C 
ATOM     15  C   UNL     1       2.450   8.669  17.625  0.00  0.00    +0.000 C 
ATOM     16  C   UNL     1       1.213   9.257  18.275  0.00  0.00    +0.000 C 
ATOM     17  N   UNL     1       1.450   8.958  19.689  0.00  0.00    +0.000 NA
ATOM     18  C   UNL     1       2.066   7.615  19.739  0.00  0.00    +0.000 C 
ATOM     19  H   UNL     1       0.582   8.984  20.217  0.00  0.00    +0.000 HD
ENDBRANCH   6  14
TORSDOF 2
ENDMDL
MODEL 5
REMARK VINA RESULT:      -7.0      1.834      4.772
REMARK  Name = 
REMARK  3 active torsions:
REMARK  status: ('A' for Active; 'I' for Inactive)
REMARK    1  A    between atoms: C_1  and  C_2
REMARK    2  A    between atoms: C_7  and  C_8
REMARK    3  A    between atoms: C_13  and  C_14
REMARK                            x       y       z     vdW  Elec       q    Type
REMARK                         _______ _______ _______ _____ _____    ______ ____
ROOT
ATOM      1  C   UNL     1       2.868   5.421  18.120  0.00  0.00    +0.000 A 
ATOM      2  C   UNL     1       1.918   4.448  17.726  0.00  0.00    +0.000 A 
ATOM      3  C   UNL     1       2.251   3.124  17.433  0.00  0.00    +0.000 A 
ATOM      4  C   UNL     1       3.571   2.726  17.477  0.00  0.00    +0.000 A 
ATOM      5  C   UNL     1       4.552   3.666  17.776  0.00  0.00    +0.000 A 
ATOM      6  C   UNL     1       4.248   5.019  18.085  0.00  0.00    +0.000 A 
ENDROOT
BRANCH   1  13
ATOM      7  C   UNL     1       1.737   6.142  20.951  0.00  0.00    +0.000 C 
ATOM      8  C   UNL     1       1.857   7.119  19.805  0.00  0.00    +0.000 A 
ATOM      9  C   UNL     1       1.432   8.439  20.088  0.00  0.00    +0.000 A 
ATOM     10  C   UNL     1       1.522   9.450  19.141  0.00  0.00    +0.000 A 
ATOM     11  C   UNL     1       1.971   9.141  17.871  0.00  0.00    +0.000 A 
ATOM     12  C   UNL     1       2.324   7.824  17.554  0.00  0.00    +0.000 A 
ATOM     13  C   UNL     1       2.354   6.786  18.507  0.00  0.00    +0.000 A 
ENDBRANCH   1  13
BRANCH   6  14
ATOM     14  C   UNL     1       5.425   5.980  18.240  0.00  0.00    +0.000 C 
ATOM     15  C   UNL     1       6.078   6.583  16.980  0.00  0.00    +0.000 C 
ATOM     16  C   UNL     1       7.322   7.221  17.566  0.00  0.00    +0.000 C 
ATOM     17  N   UNL     1       7.830   6.148  18.424  0.00  0.00    +0.000 NA
ATOM     18  C   UNL     1       6.650   5.504  19.039  0.00  0.00    +0.000 C 
ATOM     19  H   UNL     1       8.460   6.515  19.133  0.00  0.00    +0.000 HD
ENDBRANCH   6  14
TORSDOF 2
ENDMDL
MODEL 6
REMARK VINA RESULT:      -6.9      1.590      1.895
REMARK  Name = 
REMARK  3 active torsions:
REMARK  status: ('A' for Active; 'I' for Inactive)
REMARK    1  A    between atoms: C_1  and  C_2
REMARK    2  A    between atoms: C_7  and  C_8
REMARK    3  A    between atoms: C_13  and  C_14
REMARK                            x       y       z     vdW  Elec       q    Type
REMARK                         _______ _______ _______ _____ _____    ______ ____
ROOT
ATOM      1  C   UNL     1       3.728   4.365  19.631  0.00  0.00    +0.000 A 
ATOM      2  C   UNL     1       3.639   3.086  20.232  0.00  0.00    +0.000 A 
ATOM      3  C   UNL     1       2.510   2.638  20.920  0.00  0.00    +0.000 A 
ATOM      4  C   UNL     1       1.428   3.479  21.079  0.00  0.00    +0.000 A 
ATOM      5  C   UNL     1       1.500   4.775  20.581  0.00  0.00    +0.000 A 
ATOM      6  C   UNL     1       2.630   5.262  19.870  0.00  0.00    +0.000 A 
ENDROOT
BRANCH   1  13
ATOM      7  C   UNL     1       4.078   3.688  16.592  0.00  0.00    +0.000 C 
ATOM      8  C   UNL     1       5.118   4.387  17.437  0.00  0.00    +0.000 A 
ATOM      9  C   UNL     1       6.304   4.753  16.757  0.00  0.00    +0.000 A 
ATOM     10  C   UNL     1       7.328   5.436  17.399  0.00  0.00    +0.000 A 
ATOM     11  C   UNL     1       7.214   5.699  18.752  0.00  0.00    +0.000 A 
ATOM     12  C   UNL     1       6.080   5.276  19.454  0.00  0.00    +0.000 A 
ATOM     13  C   UNL     1       4.966   4.678  18.828  0.00  0.00    +0.000 A 
ENDBRANCH   1  13
BRANCH   6  14
ATOM     14  C   UNL     1       2.644   6.747  19.515  0.00  0.00    +0.000 C 
ATOM     15  C   UNL     1       1.634   7.695  20.192  0.00  0.00    +0.000 C 
ATOM     16  C   UNL     1       1.813   8.956  19.371  0.00  0.00    +0.000 C 
ATOM     17  N   UNL     1       1.782   8.428  18.004  0.00  0.00    +0.000 NA
ATOM     18  C   UNL     1       2.508   7.141  18.034  0.00  0.00    +0.000 C 
ATOM     19  H   UNL     1       2.213   9.078  17.352  0.00  0.00    +0.000 HD
ENDBRANCH   6  14
TORSDOF 2
ENDMDL
MODEL 7
REMARK VINA RESULT:      -6.8      2.339      4.158
REMARK  Name = 
REMARK  3 active torsions:
REMARK  status: ('A' for Active; 'I' for Inactive)
REMARK    1  A    between atoms: C_1  and  C_2
REMARK    2  A    between atoms: C_7  and  C_8
REMARK    3  A    between atoms: C_13  and  C_14
REMARK                            x       y       z     vdW  Elec       q    Type
REMARK                         _______ _______ _______ _____ _____    ______ ____
ROOT
ATOM      1  C   UNL     1       3.982   6.110  17.751  0.00  0.00    +0.000 A 
ATOM      2  C   UNL     1       3.658   7.466  17.504  0.00  0.00    +0.000 A 
ATOM      3  C   UNL     1       2.718   8.179  18.250  0.00  0.00    +0.000 A 
ATOM      4  C   UNL     1       2.022   7.545  19.257  0.00  0.00    +0.000 A 
ATOM      5  C   UNL     1       2.243   6.190  19.484  0.00  0.00    +0.000 A 
ATOM      6  C   UNL     1       3.196   5.436  18.748  0.00  0.00    +0.000 A 
ENDROOT
BRANCH   1  13
ATOM      7  C   UNL     1       6.936   5.792  18.746  0.00  0.00    +0.000 C 
ATOM      8  C   UNL     1       6.435   5.331  17.397  0.00  0.00    +0.000 A 
ATOM      9  C   UNL     1       7.400   4.706  16.573  0.00  0.00    +0.000 A 
ATOM     10  C   UNL     1       7.071   4.198  15.324  0.00  0.00    +0.000 A 
ATOM     11  C   UNL     1       5.785   4.373  14.847  0.00  0.00    +0.000 A 
ATOM     12  C   UNL     1       4.839   5.057  15.619  0.00  0.00    +0.000 A 
ATOM     13  C   UNL     1       5.092   5.494  16.935  0.00  0.00    +0.000 A 
ENDBRANCH   1  13
BRANCH   6  14
ATOM     14  C   UNL     1       3.228   3.928  18.989  0.00  0.00    +0.000 C 
ATOM     15  C   UNL     1       4.489   3.289  19.603  0.00  0.00    +0.000 C 
ATOM     16  C   UNL     1       4.201   1.814  19.408  0.00  0.00    +0.000 C 
ATOM     17  N   UNL     1       3.758   1.780  18.012  0.00  0.00    +0.000 NA
ATOM     18  C   UNL     1       2.946   2.996  17.798  0.00  0.00    +0.000 C 
ATOM     19  H   UNL     1       3.218   0.939  17.822  0.00  0.00    +0.000 HD
ENDBRANCH   6  14
TORSDOF 2
ENDMDL
MODEL 8
REMARK VINA RESULT:      -6.8      2.446      4.265
REMARK  Name = 
REMARK  3 active torsions:
REMARK  status: ('A' for Active; 'I' for Inactive)
REMARK    1  A    between atoms: C_1  and  C_2
REMARK    2  A    between atoms: C_7  and  C_8
REMARK    3  A    between atoms: C_13  and  C_14
REMARK                            x       y       z     vdW  Elec       q    Type
REMARK                         _______ _______ _______ _____ _____    ______ ____
ROOT
ATOM      1  C   UNL     1       3.694   5.498  18.614  0.00  0.00    +0.000 A 
ATOM      2  C   UNL     1       3.250   6.843  18.606  0.00  0.00    +0.000 A 
ATOM      3  C   UNL     1       2.299   7.343  19.497  0.00  0.00    +0.000 A 
ATOM      4  C   UNL     1       1.710   6.497  20.413  0.00  0.00    +0.000 A 
ATOM      5  C   UNL     1       2.049   5.148  20.404  0.00  0.00    +0.000 A 
ATOM      6  C   UNL     1       3.017   4.607  19.516  0.00  0.00    +0.000 A 
ENDROOT
BRANCH   1  13
ATOM      7  C   UNL     1       6.736   5.502  19.363  0.00  0.00    +0.000 C 
ATOM      8  C   UNL     1       6.189   5.102  18.012  0.00  0.00    +0.000 A 
ATOM      9  C   UNL     1       7.157   4.695  17.063  0.00  0.00    +0.000 A 
ATOM     10  C   UNL     1       6.795   4.265  15.794  0.00  0.00    +0.000 A 
ATOM     11  C   UNL     1       5.462   4.304  15.428  0.00  0.00    +0.000 A 
ATOM     12  C   UNL     1       4.502   4.776  16.330  0.00  0.00    +0.000 A 
ATOM     13  C   UNL     1       4.803   5.120  17.663  0.00  0.00    +0.000 A 
ENDBRANCH   1  13
BRANCH   6  14
ATOM     14  C   UNL     1       3.182   3.088  19.505  0.00  0.00    +0.000 C 
ATOM     15  C   UNL     1       4.552   2.475  19.855  0.00  0.00    +0.000 C 
ATOM     16  C   UNL     1       4.340   1.027  19.459  0.00  0.00    +0.000 C 
ATOM     17  N   UNL     1       3.723   1.168  18.137  0.00  0.00    +0.000 NA
ATOM     18  C   UNL     1       2.810   2.328  18.220  0.00  0.00    +0.000 C 
ATOM     19  H   UNL     1       3.221   0.323  17.877  0.00  0.00    +0.000 HD
ENDBRANCH   6  14
TORSDOF 2
ENDMDL
MODEL 9
REMARK VINA RESULT:      -6.8      1.849      4.463
REMARK  Name = 
REMARK  3 active torsions:
REMARK  status: ('A' for Active; 'I' for Inactive)
REMARK    1  A    between atoms: C_1  and  C_2
REMARK    2  A    between atoms: C_7  and  C_8
REMARK    3  A    between atoms: C_13  and  C_14
REMARK                            x       y       z     vdW  Elec       q    Type
REMARK                         _______ _______ _______ _____ _____    ______ ____
ROOT
ATOM      1  C   UNL     1       3.663   4.725  17.460  0.00  0.00    +0.000 A 
ATOM      2  C   UNL     1       4.607   4.125  16.591  0.00  0.00    +0.000 A 
ATOM      3  C   UNL     1       5.546   4.852  15.857  0.00  0.00    +0.000 A 
ATOM      4  C   UNL     1       5.549   6.229  15.926  0.00  0.00    +0.000 A 
ATOM      5  C   UNL     1       4.587   6.870  16.700  0.00  0.00    +0.000 A 
ATOM      6  C   UNL     1       3.621   6.162  17.463  0.00  0.00    +0.000 A 
ENDROOT
BRANCH   1  13
ATOM      7  C   UNL     1       4.647   3.020  19.897  0.00  0.00    +0.000 C 
ATOM      8  C   UNL     1       3.222   3.050  19.395  0.00  0.00    +0.000 A 
ATOM      9  C   UNL     1       2.307   2.250  20.120  0.00  0.00    +0.000 A 
ATOM     10  C   UNL     1       0.958   2.211  19.795  0.00  0.00    +0.000 A 
ATOM     11  C   UNL     1       0.514   2.917  18.692  0.00  0.00    +0.000 A 
ATOM     12  C   UNL     1       1.420   3.653  17.920  0.00  0.00    +0.000 A 
ATOM     13  C   UNL     1       2.777   3.812  18.271  0.00  0.00    +0.000 A 
ENDBRANCH   1  13
BRANCH   6  14
ATOM     14  C   UNL     1       2.527   6.985  18.141  0.00  0.00    +0.000 C 
ATOM     15  C   UNL     1       2.477   8.509  17.911  0.00  0.00    +0.000 C 
ATOM     16  C   UNL     1       1.458   8.934  18.949  0.00  0.00    +0.000 C 
ATOM     17  N   UNL     1       1.926   8.213  20.136  0.00  0.00    +0.000 NA
ATOM     18  C   UNL     1       2.389   6.889  19.670  0.00  0.00    +0.000 C 
ATOM     19  H   UNL     1       1.183   8.122  20.824  0.00  0.00    +0.000 HD
ENDBRANCH   6  14
TORSDOF 2
ENDMDL
