MODEL 1
REMARK VINA RESULT:      -7.9      0.000      0.000
REMARK  Name = 
REMARK  2 active torsions:
REMARK  status: ('A' for Active; 'I' for Inactive)
REMARK    1  A    between atoms: C_7  and  N_8
REMARK    2  A    between atoms: N_8  and  C_9
REMARK                            x       y       z     vdW  Elec       q    Type
REMARK                         _______ _______ _______ _____ _____    ______ ____
ROOT
ATOM      1  N   UNL     1       5.530   4.049  17.976  0.00  0.00    +0.000 N 
ATOM      2  H   UNL     1       6.206   3.729  18.663  0.00  0.00    +0.000 HD
ENDROOT
BRANCH   1   3
ATOM      3  C   UNL     1       6.056   4.305  16.696  0.00  0.00    +0.000 A 
ATOM      4  C   UNL     1       6.960   5.353  16.488  0.00  0.00    +0.000 A 
ATOM      5  N   UNL     1       7.543   5.704  15.316  0.00  0.00    +0.000 NA
ATOM      6  C   UNL     1       7.182   4.935  14.262  0.00  0.00    +0.000 A 
ATOM      7  C   UNL     1       7.575   5.032  12.907  0.00  0.00    +0.000 A 
ATOM      8  C   UNL     1       6.927   4.032  12.214  0.00  0.00    +0.000 A 
ATOM      9  N   UNL     1       6.166   3.326  13.110  0.00  0.00    +0.000 N 
ATOM     10  C   UNL     1       6.300   3.864  14.368  0.00  0.00    +0.000 A 
ATOM     11  C   UNL     1       5.722   3.518  15.590  0.00  0.00    +0.000 A 
ATOM     12  H   UNL     1       5.579   2.534  12.882  0.00  0.00    +0.000 HD
ENDBRANCH   1   3
BRANCH   1  19
ATOM     13  F   UNL     1       0.859   4.708  17.184  0.00  0.00    +0.000 F 
ATOM     14  C   UNL     1       1.831   4.186  17.944  0.00  0.00    +0.000 A 
ATOM     15  C   UNL     1       1.493   3.444  19.065  0.00  0.00    +0.000 A 
ATOM     16  C   UNL     1       2.512   2.901  19.831  0.00  0.00    +0.000 A 
ATOM     17  F   UNL     1       2.207   2.188  20.924  0.00  0.00    +0.000 F 
ATOM     18  C   UNL     1       3.848   3.086  19.488  0.00  0.00    +0.000 A 
ATOM     19  C   UNL     1       4.193   3.846  18.366  0.00  0.00    +0.000 A 
ATOM     20  C   UNL     1       3.163   4.394  17.591  0.00  0.00    +0.000 A 
ENDBRANCH   1  19
TORSDOF 2
ENDMDL
MODEL 2
REMARK VINA RESULT:      -7.9      0.266      1.938
REMARK  Name = 
REMARK  2 active torsions:
REMARK  status: ('A' for Active; 'I' for Inactive)
REMARK    1  A    between atoms: C_7  and  N_8
REMARK    2  A    between atoms: N_8  and  C_9
REMARK                            x       y       z     vdW  Elec       q    Type
REMARK                         _______ _______ _______ _____ _____    ______ ____
ROOT
ATOM      1  N   UNL     1       5.643   4.000  17.904  0.00  0.00    +0.000 N 
ATOM      2  H   UNL     1       6.310   3.579  18.544  0.00  0.00    +0.000 HD
ENDROOT
BRANCH   1   3
ATOM      3  C   UNL     1       6.144   4.281  16.619  0.00  0.00    +0.000 A 
ATOM      4  C   UNL     1       7.020   5.352  16.409  0.00  0.00    +0.000 A 
ATOM      5  N   UNL     1       7.579   5.729  15.232  0.00  0.00    +0.000 NA
ATOM      6  C   UNL     1       7.221   4.960  14.176  0.00  0.00    +0.000 A 
ATOM      7  C   UNL     1       7.592   5.080  12.816  0.00  0.00    +0.000 A 
ATOM      8  C   UNL     1       6.959   4.072  12.123  0.00  0.00    +0.000 A 
ATOM      9  N   UNL     1       6.227   3.339  13.023  0.00  0.00    +0.000 N 
ATOM     10  C   UNL     1       6.366   3.868  14.284  0.00  0.00    +0.000 A 
ATOM     11  C   UNL     1       5.814   3.496  15.511  0.00  0.00    +0.000 A 
ATOM     12  H   UNL     1       5.655   2.535  12.795  0.00  0.00    +0.000 HD
ENDBRANCH   1   3
BRANCH   1  19
ATOM     13  F   UNL     1       2.487   2.784  21.288  0.00  0.00    +0.000 F 
ATOM     14  C   UNL     1       2.725   3.282  20.067  0.00  0.00    +0.000 A 
ATOM     15  C   UNL     1       1.662   3.705  19.286  0.00  0.00    +0.000 A 
ATOM     16  C   UNL     1       1.929   4.230  18.031  0.00  0.00    +0.000 A 
ATOM     17  F   UNL     1       0.914   4.636  17.257  0.00  0.00    +0.000 F 
ATOM     18  C   UNL     1       3.234   4.338  17.559  0.00  0.00    +0.000 A 
ATOM     19  C   UNL     1       4.308   3.899  18.338  0.00  0.00    +0.000 A 
ATOM     20  C   UNL     1       4.039   3.369  19.606  0.00  0.00    +0.000 A 
ENDBRANCH   1  19
TORSDOF 2
ENDMDL
MODEL 3
REMARK VINA RESULT:      -7.6      1.328      1.601
REMARK  Name = 
REMARK  2 active torsions:
REMARK  status: ('A' for Active; 'I' for Inactive)
REMARK    1  A    between atoms: C_7  and  N_8
REMARK    2  A    between atoms: N_8  and  C_9
REMARK                            x       y       z     vdW  Elec       q    Type
REMARK                         _______ _______ _______ _____ _____    ______ ____
ROOT
ATOM      1  N   UNL     1       5.537   4.090  18.236  0.00  0.00    +0.000 N 
ATOM      2  H   UNL     1       6.150   3.547  18.836  0.00  0.00    +0.000 HD
ENDROOT
BRANCH   1   3
ATOM      3  C   UNL     1       6.041   4.349  16.947  0.00  0.00    +0.000 A 
ATOM      4  C   UNL     1       6.920   5.414  16.721  0.00  0.00    +0.000 A 
ATOM      5  N   UNL     1       7.481   5.770  15.539  0.00  0.00    +0.000 NA
ATOM      6  C   UNL     1       7.123   4.986  14.495  0.00  0.00    +0.000 A 
ATOM      7  C   UNL     1       7.497   5.082  13.134  0.00  0.00    +0.000 A 
ATOM      8  C   UNL     1       6.862   4.064  12.457  0.00  0.00    +0.000 A 
ATOM      9  N   UNL     1       6.127   3.348  13.367  0.00  0.00    +0.000 N 
ATOM     10  C   UNL     1       6.266   3.897  14.620  0.00  0.00    +0.000 A 
ATOM     11  C   UNL     1       5.710   3.547  15.851  0.00  0.00    +0.000 A 
ATOM     12  H   UNL     1       5.554   2.542  13.151  0.00  0.00    +0.000 HD
ENDBRANCH   1   3
BRANCH   1  19
ATOM     13  F   UNL     1       1.253   2.057  18.866  0.00  0.00    +0.000 F 
ATOM     14  C   UNL     1       2.052   3.121  19.023  0.00  0.00    +0.000 A 
ATOM     15  C   UNL     1       1.565   4.248  19.666  0.00  0.00    +0.000 A 
ATOM     16  C   UNL     1       2.411   5.334  19.831  0.00  0.00    +0.000 A 
ATOM     17  F   UNL     1       1.957   6.437  20.441  0.00  0.00    +0.000 F 
ATOM     18  C   UNL     1       3.724   5.300  19.369  0.00  0.00    +0.000 A 
ATOM     19  C   UNL     1       4.214   4.171  18.708  0.00  0.00    +0.000 A 
ATOM     20  C   UNL     1       3.360   3.073  18.542  0.00  0.00    +0.000 A 
ENDBRANCH   1  19
TORSDOF 2
ENDMDL
MODEL 4
REMARK VINA RESULT:      -7.6      1.352      1.380
REMARK  Name = 
REMARK  2 active torsions:
REMARK  status: ('A' for Active; 'I' for Inactive)
REMARK    1  A    between atoms: C_7  and  N_8
REMARK    2  A    between atoms: N_8  and  C_9
REMARK                            x       y       z     vdW  Elec       q    Type
REMARK                         _______ _______ _______ _____ _____    ______ ____
ROOT
ATOM      1  N   UNL     1       5.766   4.048  18.596  0.00  0.00    +0.000 N 
ATOM      2  H   UNL     1       6.408   3.481  19.140  0.00  0.00    +0.000 HD
ENDROOT
BRANCH   1   3
ATOM      3  C   UNL     1       6.174   4.310  17.274  0.00  0.00    +0.000 A 
ATOM      4  C   UNL     1       7.033   5.377  16.986  0.00  0.00    +0.000 A 
ATOM      5  N   UNL     1       7.506   5.735  15.767  0.00  0.00    +0.000 NA
ATOM      6  C   UNL     1       7.074   4.952  14.750  0.00  0.00    +0.000 A 
ATOM      7  C   UNL     1       7.347   5.051  13.366  0.00  0.00    +0.000 A 
ATOM      8  C   UNL     1       6.666   4.033  12.735  0.00  0.00    +0.000 A 
ATOM      9  N   UNL     1       6.000   3.314  13.695  0.00  0.00    +0.000 N 
ATOM     10  C   UNL     1       6.229   3.862  14.936  0.00  0.00    +0.000 A 
ATOM     11  C   UNL     1       5.765   3.509  16.204  0.00  0.00    +0.000 A 
ATOM     12  H   UNL     1       5.414   2.508  13.520  0.00  0.00    +0.000 HD
ENDBRANCH   1   3
BRANCH   1  19
ATOM     13  F   UNL     1       2.184   6.794  20.181  0.00  0.00    +0.000 F 
ATOM     14  C   UNL     1       2.680   5.569  19.964  0.00  0.00    +0.000 A 
ATOM     15  C   UNL     1       1.915   4.458  20.285  0.00  0.00    +0.000 A 
ATOM     16  C   UNL     1       2.441   3.199  20.040  0.00  0.00    +0.000 A 
ATOM     17  F   UNL     1       1.720   2.113  20.351  0.00  0.00    +0.000 F 
ATOM     18  C   UNL     1       3.706   3.043  19.482  0.00  0.00    +0.000 A 
ATOM     19  C   UNL     1       4.487   4.160  19.172  0.00  0.00    +0.000 A 
ATOM     20  C   UNL     1       3.956   5.433  19.417  0.00  0.00    +0.000 A 
ENDBRANCH   1  19
TORSDOF 2
ENDMDL
MODEL 5
REMARK VINA RESULT:      -7.6      2.705      3.816
REMARK  Name = 
REMARK  2 active torsions:
REMARK  status: ('A' for Active; 'I' for Inactive)
REMARK    1  A    between atoms: C_7  and  N_8
REMARK    2  A    between atoms: N_8  and  C_9
REMARK                            x       y       z     vdW  Elec       q    Type
REMARK                         _______ _______ _______ _____ _____    ______ ____
ROOT
ATOM      1  N   UNL     1       4.670   3.345  18.015  0.00  0.00    +0.000 N 
ATOM      2  H   UNL     1       4.866   2.617  17.336  0.00  0.00    +0.000 HD
ENDROOT
BRANCH   1   3
ATOM      3  C   UNL     1       5.401   4.536  17.839  0.00  0.00    +0.000 A 
ATOM      4  C   UNL     1       5.094   5.420  16.799  0.00  0.00    +0.000 A 
ATOM      5  N   UNL     1       5.709   6.596  16.522  0.00  0.00    +0.000 NA
ATOM      6  C   UNL     1       6.724   6.905  17.363  0.00  0.00    +0.000 A 
ATOM      7  C   UNL     1       7.585   8.027  17.353  0.00  0.00    +0.000 A 
ATOM      8  C   UNL     1       8.465   7.885  18.403  0.00  0.00    +0.000 A 
ATOM      9  N   UNL     1       8.156   6.718  19.055  0.00  0.00    +0.000 N 
ATOM     10  C   UNL     1       7.098   6.098  18.433  0.00  0.00    +0.000 A 
ATOM     11  C   UNL     1       6.440   4.897  18.702  0.00  0.00    +0.000 A 
ATOM     12  H   UNL     1       8.641   6.355  19.866  0.00  0.00    +0.000 HD
ENDBRANCH   1   3
BRANCH   1  19
ATOM     13  F   UNL     1       2.323   3.562  22.177  0.00  0.00    +0.000 F 
ATOM     14  C   UNL     1       2.323   3.245  20.875  0.00  0.00    +0.000 A 
ATOM     15  C   UNL     1       1.169   2.739  20.299  0.00  0.00    +0.000 A 
ATOM     16  C   UNL     1       1.184   2.430  18.948  0.00  0.00    +0.000 A 
ATOM     17  F   UNL     1       0.081   1.931  18.374  0.00  0.00    +0.000 F 
ATOM     18  C   UNL     1       2.327   2.625  18.177  0.00  0.00    +0.000 A 
ATOM     19  C   UNL     1       3.497   3.122  18.758  0.00  0.00    +0.000 A 
ATOM     20  C   UNL     1       3.482   3.435  20.124  0.00  0.00    +0.000 A 
ENDBRANCH   1  19
TORSDOF 2
ENDMDL
MODEL 6
REMARK VINA RESULT:      -7.6      1.390      2.377
REMARK  Name = 
REMARK  2 active torsions:
REMARK  status: ('A' for Active; 'I' for Inactive)
REMARK    1  A    between atoms: C_7  and  N_8
REMARK    2  A    between atoms: N_8  and  C_9
REMARK                            x       y       z     vdW  Elec       q    Type
REMARK                         _______ _______ _______ _____ _____    ______ ____
ROOT
ATOM      1  N   UNL     1       5.402   4.059  17.783  0.00  0.00    +0.000 N 
ATOM      2  H   UNL     1       5.634   3.161  18.196  0.00  0.00    +0.000 HD
ENDROOT
BRANCH   1   3
ATOM      3  C   UNL     1       5.985   4.306  16.525  0.00  0.00    +0.000 A 
ATOM      4  C   UNL     1       6.939   5.317  16.362  0.00  0.00    +0.000 A 
ATOM      5  N   UNL     1       7.580   5.654  15.216  0.00  0.00    +0.000 NA
ATOM      6  C   UNL     1       7.227   4.910  14.141  0.00  0.00    +0.000 A 
ATOM      7  C   UNL     1       7.673   5.003  12.802  0.00  0.00    +0.000 A 
ATOM      8  C   UNL     1       7.011   4.038  12.076  0.00  0.00    +0.000 A 
ATOM      9  N   UNL     1       6.188   3.356  12.936  0.00  0.00    +0.000 N 
ATOM     10  C   UNL     1       6.298   3.876  14.204  0.00  0.00    +0.000 A 
ATOM     11  C   UNL     1       5.660   3.543  15.400  0.00  0.00    +0.000 A 
ATOM     12  H   UNL     1       5.577   2.591  12.677  0.00  0.00    +0.000 HD
ENDBRANCH   1   3
BRANCH   1  19
ATOM     13  F   UNL     1       2.395   4.429  21.484  0.00  0.00    +0.000 F 
ATOM     14  C   UNL     1       2.798   4.870  20.285  0.00  0.00    +0.000 A 
ATOM     15  C   UNL     1       2.149   5.949  19.705  0.00  0.00    +0.000 A 
ATOM     16  C   UNL     1       2.590   6.400  18.470  0.00  0.00    +0.000 A 
ATOM     17  F   UNL     1       1.970   7.436  17.888  0.00  0.00    +0.000 F 
ATOM     18  C   UNL     1       3.661   5.793  17.822  0.00  0.00    +0.000 A 
ATOM     19  C   UNL     1       4.308   4.696  18.397  0.00  0.00    +0.000 A 
ATOM     20  C   UNL     1       3.864   4.240  19.646  0.00  0.00    +0.000 A 
ENDBRANCH   1  19
TORSDOF 2
ENDMDL
MODEL 7
REMARK VINA RESULT:      -7.5      2.660      3.490
REMARK  Name = 
REMARK  2 active torsions:
REMARK  status: ('A' for Active; 'I' for Inactive)
REMARK    1  A    between atoms: C_7  and  N_8
REMARK    2  A    between atoms: N_8  and  C_9
REMARK                            x       y       z     vdW  Elec       q    Type
REMARK                         _______ _______ _______ _____ _____    ______ ____
ROOT
ATOM      1  N   UNL     1       4.606   3.395  17.839  0.00  0.00    +0.000 N 
ATOM      2  H   UNL     1       4.707   2.735  17.073  0.00  0.00    +0.000 HD
ENDROOT
BRANCH   1   3
ATOM      3  C   UNL     1       5.361   4.576  17.711  0.00  0.00    +0.000 A 
ATOM      4  C   UNL     1       5.094   5.492  16.687  0.00  0.00    +0.000 A 
ATOM      5  N   UNL     1       5.735   6.664  16.455  0.00  0.00    +0.000 NA
ATOM      6  C   UNL     1       6.735   6.933  17.328  0.00  0.00    +0.000 A 
ATOM      7  C   UNL     1       7.614   8.040  17.367  0.00  0.00    +0.000 A 
ATOM      8  C   UNL     1       8.467   7.855  18.433  0.00  0.00    +0.000 A 
ATOM      9  N   UNL     1       8.123   6.678  19.047  0.00  0.00    +0.000 N 
ATOM     10  C   UNL     1       7.070   6.093  18.384  0.00  0.00    +0.000 A 
ATOM     11  C   UNL     1       6.386   4.897  18.607  0.00  0.00    +0.000 A 
ATOM     12  H   UNL     1       8.583   6.286  19.859  0.00  0.00    +0.000 HD
ENDBRANCH   1   3
BRANCH   1  19
ATOM     13  F   UNL     1       0.080   1.931  18.340  0.00  0.00    +0.000 F 
ATOM     14  C   UNL     1       1.210   2.377  18.904  0.00  0.00    +0.000 A 
ATOM     15  C   UNL     1       1.268   2.534  20.280  0.00  0.00    +0.000 A 
ATOM     16  C   UNL     1       2.451   2.983  20.846  0.00  0.00    +0.000 A 
ATOM     17  F   UNL     1       2.524   3.149  22.174  0.00  0.00    +0.000 F 
ATOM     18  C   UNL     1       3.563   3.270  20.060  0.00  0.00    +0.000 A 
ATOM     19  C   UNL     1       3.503   3.127  18.670  0.00  0.00    +0.000 A 
ATOM     20  C   UNL     1       2.309   2.672  18.097  0.00  0.00    +0.000 A 
ENDBRANCH   1  19
TORSDOF 2
ENDMDL
MODEL 8
REMARK VINA RESULT:      -7.3      3.207      6.561
REMARK  Name = 
REMARK  2 active torsions:
REMARK  status: ('A' for Active; 'I' for Inactive)
REMARK    1  A    between atoms: C_7  and  N_8
REMARK    2  A    between atoms: N_8  and  C_9
REMARK                            x       y       z     vdW  Elec       q    Type
REMARK                         _______ _______ _______ _____ _____    ______ ____
ROOT
ATOM      1  N   UNL     1       5.984   4.122  16.371  0.00  0.00    +0.000 N 
ATOM      2  H   UNL     1       6.740   4.422  16.979  0.00  0.00    +0.000 HD
ENDROOT
BRANCH   1   3
ATOM      3  C   UNL     1       4.723   4.026  16.990  0.00  0.00    +0.000 A 
ATOM      4  C   UNL     1       4.000   5.175  17.331  0.00  0.00    +0.000 A 
ATOM      5  N   UNL     1       2.781   5.225  17.921  0.00  0.00    +0.000 NA
ATOM      6  C   UNL     1       2.246   4.011  18.194  0.00  0.00    +0.000 A 
ATOM      7  C   UNL     1       1.017   3.697  18.819  0.00  0.00    +0.000 A 
ATOM      8  C   UNL     1       0.925   2.323  18.885  0.00  0.00    +0.000 A 
ATOM      9  N   UNL     1       2.054   1.798  18.309  0.00  0.00    +0.000 N 
ATOM     10  C   UNL     1       2.880   2.813  17.885  0.00  0.00    +0.000 A 
ATOM     11  C   UNL     1       4.131   2.790  17.267  0.00  0.00    +0.000 A 
ATOM     12  H   UNL     1       2.259   0.812  18.220  0.00  0.00    +0.000 HD
ENDBRANCH   1   3
BRANCH   1  19
ATOM     13  F   UNL     1       8.740   5.845  12.861  0.00  0.00    +0.000 F 
ATOM     14  C   UNL     1       7.713   5.072  13.239  0.00  0.00    +0.000 A 
ATOM     15  C   UNL     1       7.019   4.348  12.282  0.00  0.00    +0.000 A 
ATOM     16  C   UNL     1       5.968   3.544  12.693  0.00  0.00    +0.000 A 
ATOM     17  F   UNL     1       5.279   2.843  11.782  0.00  0.00    +0.000 F 
ATOM     18  C   UNL     1       5.613   3.453  14.036  0.00  0.00    +0.000 A 
ATOM     19  C   UNL     1       6.302   4.192  15.002  0.00  0.00    +0.000 A 
ATOM     20  C   UNL     1       7.365   5.005  14.587  0.00  0.00    +0.000 A 
ENDBRANCH   1  19
TORSDOF 2
ENDMDL
MODEL 9
REMARK VINA RESULT:      -7.3      1.474      1.512
REMARK  Name = 
REMARK  2 active torsions:
REMARK  status: ('A' for Active; 'I' for Inactive)
REMARK    1  A    between atoms: C_7  and  N_8
REMARK    2  A    between atoms: N_8  and  C_9
REMARK                            x       y       z     vdW  Elec       q    Type
REMARK                         _______ _______ _______ _____ _____    ______ ____
ROOT
ATOM      1  N   UNL     1       5.065   3.824  17.558  0.00  0.00    +0.000 N 
ATOM      2  H   UNL     1       5.046   2.834  17.783  0.00  0.00    +0.000 HD
ENDROOT
BRANCH   1   3
ATOM      3  C   UNL     1       5.746   4.152  16.370  0.00  0.00    +0.000 A 
ATOM      4  C   UNL     1       6.669   5.204  16.339  0.00  0.00    +0.000 A 
ATOM      5  N   UNL     1       7.395   5.620  15.272  0.00  0.00    +0.000 NA
ATOM      6  C   UNL     1       7.168   4.916  14.137  0.00  0.00    +0.000 A 
ATOM      7  C   UNL     1       7.727   5.091  12.850  0.00  0.00    +0.000 A 
ATOM      8  C   UNL     1       7.171   4.138  12.024  0.00  0.00    +0.000 A 
ATOM      9  N   UNL     1       6.304   3.385  12.774  0.00  0.00    +0.000 N 
ATOM     10  C   UNL     1       6.280   3.847  14.069  0.00  0.00    +0.000 A 
ATOM     11  C   UNL     1       5.553   3.434  15.187  0.00  0.00    +0.000 A 
ATOM     12  H   UNL     1       5.750   2.613  12.428  0.00  0.00    +0.000 HD
ENDBRANCH   1   3
BRANCH   1  19
ATOM     13  F   UNL     1       2.125   7.587  17.843  0.00  0.00    +0.000 F 
ATOM     14  C   UNL     1       2.651   6.496  18.416  0.00  0.00    +0.000 A 
ATOM     15  C   UNL     1       2.249   6.139  19.694  0.00  0.00    +0.000 A 
ATOM     16  C   UNL     1       2.795   4.999  20.264  0.00  0.00    +0.000 A 
ATOM     17  F   UNL     1       2.426   4.641  21.502  0.00  0.00    +0.000 F 
ATOM     18  C   UNL     1       3.721   4.221  19.576  0.00  0.00    +0.000 A 
ATOM     19  C   UNL     1       4.139   4.587  18.294  0.00  0.00    +0.000 A 
ATOM     20  C   UNL     1       3.588   5.738  17.716  0.00  0.00    +0.000 A 
ENDBRANCH   1  19
TORSDOF 2
ENDMDL
