MODEL 1
REMARK VINA RESULT:      -7.1      0.000      0.000
REMARK  Name = 
REMARK  2 active torsions:
REMARK  status: ('A' for Active; 'I' for Inactive)
REMARK    1  A    between atoms: C_1  and  C_2
REMARK    2  A    between atoms: N_11  and  N_12
REMARK                            x       y       z     vdW  Elec       q    Type
REMARK                         _______ _______ _______ _____ _____    ______ ____
ROOT
ATOM      1  C   UNL     1       2.593   6.994  18.840  0.00  0.00    +0.000 C 
ATOM      2  C   UNL     1       2.793   5.539  18.541  0.00  0.00    +0.000 C 
ATOM      3  C   UNL     1       2.162   4.531  19.180  0.00  0.00    +0.000 C 
ATOM      4  C   UNL     1       1.286   4.648  20.403  0.00  0.00    +0.000 C 
ATOM      5  C   UNL     1       1.139   3.212  20.921  0.00  0.00    +0.000 C 
ATOM      6  C   UNL     1       2.203   2.392  20.202  0.00  0.00    +0.000 C 
ATOM      7  C   UNL     1       2.327   3.073  18.848  0.00  0.00    +0.000 C 
ATOM      8  C   UNL     1       3.627   2.789  18.121  0.00  0.00    +0.000 C 
ATOM      9  C   UNL     1       3.745   3.743  16.940  0.00  0.00    +0.000 C 
ATOM     10  C   UNL     1       3.780   5.189  17.439  0.00  0.00    +0.000 C 
ATOM     11  N   UNL     1       4.586   6.113  16.985  0.00  0.00    +0.000 NA
ENDROOT
BRANCH  11  12
ATOM     12  N   UNL     1       5.467   5.788  15.986  0.00  0.00    +0.000 N 
ATOM     13  C   UNL     1       6.825   5.728  16.162  0.00  0.00    +0.000 C 
ATOM     14  N   UNL     1       7.266   6.076  17.390  0.00  0.00    +0.000 N 
ATOM     15  O   UNL     1       7.587   5.379  15.267  0.00  0.00    +0.000 OA
ATOM     16  H   UNL     1       5.160   5.534  15.061  0.00  0.00    +0.000 HD
ATOM     17  H   UNL     1       6.568   6.059  18.121  0.00  0.00    +0.000 HD
ATOM     18  H   UNL     1       8.230   5.881  17.603  0.00  0.00    +0.000 HD
ENDBRANCH  11  12
TORSDOF 1
ENDMDL
MODEL 2
REMARK VINA RESULT:      -7.1      1.433      2.650
REMARK  Name = 
REMARK  2 active torsions:
REMARK  status: ('A' for Active; 'I' for Inactive)
REMARK    1  A    between atoms: C_1  and  C_2
REMARK    2  A    between atoms: N_11  and  N_12
REMARK                            x       y       z     vdW  Elec       q    Type
REMARK                         _______ _______ _______ _____ _____    ______ ____
ROOT
ATOM      1  C   UNL     1       3.625   1.716  17.740  0.00  0.00    +0.000 C 
ATOM      2  C   UNL     1       3.723   3.056  18.405  0.00  0.00    +0.000 C 
ATOM      3  C   UNL     1       2.948   3.459  19.435  0.00  0.00    +0.000 C 
ATOM      4  C   UNL     1       1.747   2.738  19.996  0.00  0.00    +0.000 C 
ATOM      5  C   UNL     1       1.037   3.778  20.871  0.00  0.00    +0.000 C 
ATOM      6  C   UNL     1       1.644   5.126  20.503  0.00  0.00    +0.000 C 
ATOM      7  C   UNL     1       3.078   4.786  20.133  0.00  0.00    +0.000 C 
ATOM      8  C   UNL     1       3.768   5.827  19.273  0.00  0.00    +0.000 C 
ATOM      9  C   UNL     1       5.069   5.240  18.744  0.00  0.00    +0.000 C 
ATOM     10  C   UNL     1       4.773   4.017  17.873  0.00  0.00    +0.000 C 
ATOM     11  N   UNL     1       5.355   3.760  16.729  0.00  0.00    +0.000 NA
ENDROOT
BRANCH  11  12
ATOM     12  N   UNL     1       6.305   4.631  16.262  0.00  0.00    +0.000 N 
ATOM     13  C   UNL     1       6.801   4.598  14.985  0.00  0.00    +0.000 C 
ATOM     14  N   UNL     1       6.336   3.597  14.208  0.00  0.00    +0.000 N 
ATOM     15  O   UNL     1       7.610   5.423  14.575  0.00  0.00    +0.000 OA
ATOM     16  H   UNL     1       6.672   5.379  16.827  0.00  0.00    +0.000 HD
ATOM     17  H   UNL     1       5.479   3.164  14.527  0.00  0.00    +0.000 HD
ATOM     18  H   UNL     1       6.545   3.644  13.225  0.00  0.00    +0.000 HD
ENDBRANCH  11  12
TORSDOF 1
ENDMDL
MODEL 3
REMARK VINA RESULT:      -6.9      3.586      5.399
REMARK  Name = 
REMARK  2 active torsions:
REMARK  status: ('A' for Active; 'I' for Inactive)
REMARK    1  A    between atoms: C_1  and  C_2
REMARK    2  A    between atoms: N_11  and  N_12
REMARK                            x       y       z     vdW  Elec       q    Type
REMARK                         _______ _______ _______ _____ _____    ______ ____
ROOT
ATOM      1  C   UNL     1       2.903   7.364  18.225  0.00  0.00    +0.000 C 
ATOM      2  C   UNL     1       3.718   6.106  18.208  0.00  0.00    +0.000 C 
ATOM      3  C   UNL     1       4.611   5.785  17.248  0.00  0.00    +0.000 C 
ATOM      4  C   UNL     1       4.838   6.514  15.946  0.00  0.00    +0.000 C 
ATOM      5  C   UNL     1       5.664   5.546  15.092  0.00  0.00    +0.000 C 
ATOM      6  C   UNL     1       5.576   4.191  15.781  0.00  0.00    +0.000 C 
ATOM      7  C   UNL     1       5.463   4.545  17.255  0.00  0.00    +0.000 C 
ATOM      8  C   UNL     1       4.878   3.446  18.121  0.00  0.00    +0.000 C 
ATOM      9  C   UNL     1       4.557   4.023  19.493  0.00  0.00    +0.000 C 
ATOM     10  C   UNL     1       3.514   5.135  19.359  0.00  0.00    +0.000 C 
ATOM     11  N   UNL     1       2.488   5.293  20.155  0.00  0.00    +0.000 NA
ENDROOT
BRANCH  11  12
ATOM     12  N   UNL     1       2.319   4.415  21.194  0.00  0.00    +0.000 N 
ATOM     13  C   UNL     1       1.413   3.386  21.177  0.00  0.00    +0.000 C 
ATOM     14  N   UNL     1       0.634   3.318  20.078  0.00  0.00    +0.000 N 
ATOM     15  O   UNL     1       1.321   2.580  22.097  0.00  0.00    +0.000 OA
ATOM     16  H   UNL     1       2.883   4.452  22.028  0.00  0.00    +0.000 HD
ATOM     17  H   UNL     1       0.977   3.825  19.273  0.00  0.00    +0.000 HD
ATOM     18  H   UNL     1       0.083   2.484  19.956  0.00  0.00    +0.000 HD
ENDBRANCH  11  12
TORSDOF 1
ENDMDL
MODEL 4
REMARK VINA RESULT:      -6.8      1.708      1.791
REMARK  Name = 
REMARK  2 active torsions:
REMARK  status: ('A' for Active; 'I' for Inactive)
REMARK    1  A    between atoms: C_1  and  C_2
REMARK    2  A    between atoms: N_11  and  N_12
REMARK                            x       y       z     vdW  Elec       q    Type
REMARK                         _______ _______ _______ _____ _____    ______ ____
ROOT
ATOM      1  C   UNL     1       5.058   5.480  19.384  0.00  0.00    +0.000 C 
ATOM      2  C   UNL     1       4.033   4.567  18.781  0.00  0.00    +0.000 C 
ATOM      3  C   UNL     1       2.860   4.241  19.364  0.00  0.00    +0.000 C 
ATOM      4  C   UNL     1       2.429   4.575  20.771  0.00  0.00    +0.000 C 
ATOM      5  C   UNL     1       1.217   3.674  21.036  0.00  0.00    +0.000 C 
ATOM      6  C   UNL     1       1.218   2.626  19.929  0.00  0.00    +0.000 C 
ATOM      7  C   UNL     1       1.811   3.362  18.739  0.00  0.00    +0.000 C 
ATOM      8  C   UNL     1       2.380   2.458  17.663  0.00  0.00    +0.000 C 
ATOM      9  C   UNL     1       3.184   3.306  16.687  0.00  0.00    +0.000 C 
ATOM     10  C   UNL     1       4.351   3.975  17.417  0.00  0.00    +0.000 C 
ATOM     11  N   UNL     1       5.569   4.064  16.950  0.00  0.00    +0.000 NA
ENDROOT
BRANCH  11  12
ATOM     12  N   UNL     1       5.842   3.532  15.716  0.00  0.00    +0.000 N 
ATOM     13  C   UNL     1       6.292   4.274  14.654  0.00  0.00    +0.000 C 
ATOM     14  N   UNL     1       6.396   5.601  14.876  0.00  0.00    +0.000 N 
ATOM     15  O   UNL     1       6.582   3.765  13.576  0.00  0.00    +0.000 OA
ATOM     16  H   UNL     1       5.762   2.547  15.525  0.00  0.00    +0.000 HD
ATOM     17  H   UNL     1       6.421   5.875  15.849  0.00  0.00    +0.000 HD
ATOM     18  H   UNL     1       6.880   6.145  14.182  0.00  0.00    +0.000 HD
ENDBRANCH  11  12
TORSDOF 1
ENDMDL
MODEL 5
REMARK VINA RESULT:      -6.7      0.942      1.241
REMARK  Name = 
REMARK  2 active torsions:
REMARK  status: ('A' for Active; 'I' for Inactive)
REMARK    1  A    between atoms: C_1  and  C_2
REMARK    2  A    between atoms: N_11  and  N_12
REMARK                            x       y       z     vdW  Elec       q    Type
REMARK                         _______ _______ _______ _____ _____    ______ ____
ROOT
ATOM      1  C   UNL     1       2.535   6.753  18.891  0.00  0.00    +0.000 C 
ATOM      2  C   UNL     1       3.090   5.368  19.045  0.00  0.00    +0.000 C 
ATOM      3  C   UNL     1       2.485   4.372  19.725  0.00  0.00    +0.000 C 
ATOM      4  C   UNL     1       1.253   4.487  20.589  0.00  0.00    +0.000 C 
ATOM      5  C   UNL     1       1.217   3.186  21.399  0.00  0.00    +0.000 C 
ATOM      6  C   UNL     1       2.590   2.547  21.235  0.00  0.00    +0.000 C 
ATOM      7  C   UNL     1       3.019   2.969  19.839  0.00  0.00    +0.000 C 
ATOM      8  C   UNL     1       4.513   2.898  19.593  0.00  0.00    +0.000 C 
ATOM      9  C   UNL     1       4.828   3.609  18.285  0.00  0.00    +0.000 C 
ATOM     10  C   UNL     1       4.428   5.083  18.383  0.00  0.00    +0.000 C 
ATOM     11  N   UNL     1       5.151   6.081  17.944  0.00  0.00    +0.000 NA
ENDROOT
BRANCH  11  12
ATOM     12  N   UNL     1       6.353   5.810  17.343  0.00  0.00    +0.000 N 
ATOM     13  C   UNL     1       6.555   5.878  15.988  0.00  0.00    +0.000 C 
ATOM     14  N   UNL     1       5.462   6.174  15.253  0.00  0.00    +0.000 N 
ATOM     15  O   UNL     1       7.655   5.686  15.480  0.00  0.00    +0.000 OA
ATOM     16  H   UNL     1       7.178   5.579  17.871  0.00  0.00    +0.000 HD
ATOM     17  H   UNL     1       4.699   6.595  15.764  0.00  0.00    +0.000 HD
ATOM     18  H   UNL     1       5.610   6.398  14.283  0.00  0.00    +0.000 HD
ENDBRANCH  11  12
TORSDOF 1
ENDMDL
MODEL 6
REMARK VINA RESULT:      -6.6      2.113      2.997
REMARK  Name = 
REMARK  2 active torsions:
REMARK  status: ('A' for Active; 'I' for Inactive)
REMARK    1  A    between atoms: C_1  and  C_2
REMARK    2  A    between atoms: N_11  and  N_12
REMARK                            x       y       z     vdW  Elec       q    Type
REMARK                         _______ _______ _______ _____ _____    ______ ____
ROOT
ATOM      1  C   UNL     1       4.883   2.128  20.116  0.00  0.00    +0.000 C 
ATOM      2  C   UNL     1       4.061   3.229  19.515  0.00  0.00    +0.000 C 
ATOM      3  C   UNL     1       2.721   3.188  19.362  0.00  0.00    +0.000 C 
ATOM      4  C   UNL     1       1.823   1.997  19.593  0.00  0.00    +0.000 C 
ATOM      5  C   UNL     1       0.492   2.374  18.931  0.00  0.00    +0.000 C 
ATOM      6  C   UNL     1       0.782   3.587  18.056  0.00  0.00    +0.000 C 
ATOM      7  C   UNL     1       1.890   4.311  18.802  0.00  0.00    +0.000 C 
ATOM      8  C   UNL     1       2.705   5.262  17.947  0.00  0.00    +0.000 C 
ATOM      9  C   UNL     1       3.937   5.692  18.732  0.00  0.00    +0.000 C 
ATOM     10  C   UNL     1       4.804   4.472  19.051  0.00  0.00    +0.000 C 
ATOM     11  N   UNL     1       6.107   4.438  18.950  0.00  0.00    +0.000 NA
ENDROOT
BRANCH  11  12
ATOM     12  N   UNL     1       6.766   5.567  18.537  0.00  0.00    +0.000 N 
ATOM     13  C   UNL     1       7.865   6.080  19.177  0.00  0.00    +0.000 C 
ATOM     14  N   UNL     1       8.236   5.432  20.300  0.00  0.00    +0.000 N 
ATOM     15  O   UNL     1       8.470   7.060  18.754  0.00  0.00    +0.000 OA
ATOM     16  H   UNL     1       6.501   6.071  17.706  0.00  0.00    +0.000 HD
ATOM     17  H   UNL     1       7.873   4.493  20.399  0.00  0.00    +0.000 HD
ATOM     18  H   UNL     1       9.130   5.675  20.696  0.00  0.00    +0.000 HD
ENDBRANCH  11  12
TORSDOF 1
ENDMDL
MODEL 7
REMARK VINA RESULT:      -6.5      3.947      5.222
REMARK  Name = 
REMARK  2 active torsions:
REMARK  status: ('A' for Active; 'I' for Inactive)
REMARK    1  A    between atoms: C_1  and  C_2
REMARK    2  A    between atoms: N_11  and  N_12
REMARK                            x       y       z     vdW  Elec       q    Type
REMARK                         _______ _______ _______ _____ _____    ______ ____
ROOT
ATOM      1  C   UNL     1       3.541   6.568  17.821  0.00  0.00    +0.000 C 
ATOM      2  C   UNL     1       2.866   5.602  18.748  0.00  0.00    +0.000 C 
ATOM      3  C   UNL     1       2.794   4.270  18.544  0.00  0.00    +0.000 C 
ATOM      4  C   UNL     1       3.209   3.523  17.301  0.00  0.00    +0.000 C 
ATOM      5  C   UNL     1       2.584   2.131  17.450  0.00  0.00    +0.000 C 
ATOM      6  C   UNL     1       1.561   2.244  18.574  0.00  0.00    +0.000 C 
ATOM      7  C   UNL     1       2.157   3.294  19.497  0.00  0.00    +0.000 C 
ATOM      8  C   UNL     1       1.155   3.958  20.421  0.00  0.00    +0.000 C 
ATOM      9  C   UNL     1       1.816   5.166  21.071  0.00  0.00    +0.000 C 
ATOM     10  C   UNL     1       2.223   6.178  19.998  0.00  0.00    +0.000 C 
ATOM     11  N   UNL     1       2.053   7.472  20.093  0.00  0.00    +0.000 NA
ENDROOT
BRANCH  11  12
ATOM     12  N   UNL     1       1.478   7.980  21.229  0.00  0.00    +0.000 N 
ATOM     13  C   UNL     1       0.721   9.123  21.249  0.00  0.00    +0.000 C 
ATOM     14  N   UNL     1       0.619   9.771  20.069  0.00  0.00    +0.000 N 
ATOM     15  O   UNL     1       0.170   9.526  22.268  0.00  0.00    +0.000 OA
ATOM     16  H   UNL     1       1.549   7.518  22.120  0.00  0.00    +0.000 HD
ATOM     17  H   UNL     1       0.848   9.221  19.253  0.00  0.00    +0.000 HD
ATOM     18  H   UNL     1      -0.062  10.510  20.010  0.00  0.00    +0.000 HD
ENDBRANCH  11  12
TORSDOF 1
ENDMDL
MODEL 8
REMARK VINA RESULT:      -6.5      1.664      2.669
REMARK  Name = 
REMARK  2 active torsions:
REMARK  status: ('A' for Active; 'I' for Inactive)
REMARK    1  A    between atoms: C_1  and  C_2
REMARK    2  A    between atoms: N_11  and  N_12
REMARK                            x       y       z     vdW  Elec       q    Type
REMARK                         _______ _______ _______ _____ _____    ______ ____
ROOT
ATOM      1  C   UNL     1       4.922   2.306  20.197  0.00  0.00    +0.000 C 
ATOM      2  C   UNL     1       4.082   3.371  19.557  0.00  0.00    +0.000 C 
ATOM      3  C   UNL     1       2.747   3.287  19.374  0.00  0.00    +0.000 C 
ATOM      4  C   UNL     1       1.879   2.074  19.607  0.00  0.00    +0.000 C 
ATOM      5  C   UNL     1       0.554   2.399  18.908  0.00  0.00    +0.000 C 
ATOM      6  C   UNL     1       0.829   3.604  18.017  0.00  0.00    +0.000 C 
ATOM      7  C   UNL     1       1.897   4.375  18.775  0.00  0.00    +0.000 C 
ATOM      8  C   UNL     1       2.704   5.334  17.921  0.00  0.00    +0.000 C 
ATOM      9  C   UNL     1       3.904   5.814  18.725  0.00  0.00    +0.000 C 
ATOM     10  C   UNL     1       4.798   4.626  19.087  0.00  0.00    +0.000 C 
ATOM     11  N   UNL     1       6.104   4.629  19.016  0.00  0.00    +0.000 NA
ENDROOT
BRANCH  11  12
ATOM     12  N   UNL     1       6.739   5.770  18.597  0.00  0.00    +0.000 N 
ATOM     13  C   UNL     1       7.350   5.892  17.376  0.00  0.00    +0.000 C 
ATOM     14  N   UNL     1       7.346   4.780  16.612  0.00  0.00    +0.000 N 
ATOM     15  O   UNL     1       7.863   6.942  17.002  0.00  0.00    +0.000 OA
ATOM     16  H   UNL     1       6.762   6.608  19.155  0.00  0.00    +0.000 HD
ATOM     17  H   UNL     1       6.663   4.080  16.870  0.00  0.00    +0.000 HD
ATOM     18  H   UNL     1       7.631   4.882  15.652  0.00  0.00    +0.000 HD
ENDBRANCH  11  12
TORSDOF 1
ENDMDL
MODEL 9
REMARK VINA RESULT:      -6.5      0.786      1.037
REMARK  Name = 
REMARK  2 active torsions:
REMARK  status: ('A' for Active; 'I' for Inactive)
REMARK    1  A    between atoms: C_1  and  C_2
REMARK    2  A    between atoms: N_11  and  N_12
REMARK                            x       y       z     vdW  Elec       q    Type
REMARK                         _______ _______ _______ _____ _____    ______ ____
ROOT
ATOM      1  C   UNL     1       3.259   6.596  19.214  0.00  0.00    +0.000 C 
ATOM      2  C   UNL     1       3.229   5.176  18.734  0.00  0.00    +0.000 C 
ATOM      3  C   UNL     1       2.273   4.279  19.056  0.00  0.00    +0.000 C 
ATOM      4  C   UNL     1       1.171   4.459  20.071  0.00  0.00    +0.000 C 
ATOM      5  C   UNL     1       0.619   3.049  20.308  0.00  0.00    +0.000 C 
ATOM      6  C   UNL     1       1.637   2.089  19.706  0.00  0.00    +0.000 C 
ATOM      7  C   UNL     1       2.217   2.867  18.536  0.00  0.00    +0.000 C 
ATOM      8  C   UNL     1       3.569   2.372  18.062  0.00  0.00    +0.000 C 
ATOM      9  C   UNL     1       4.155   3.396  17.100  0.00  0.00    +0.000 C 
ATOM     10  C   UNL     1       4.360   4.731  17.821  0.00  0.00    +0.000 C 
ATOM     11  N   UNL     1       5.421   5.486  17.701  0.00  0.00    +0.000 NA
ENDROOT
BRANCH  11  12
ATOM     12  N   UNL     1       6.431   5.077  16.870  0.00  0.00    +0.000 N 
ATOM     13  C   UNL     1       6.595   5.543  15.591  0.00  0.00    +0.000 C 
ATOM     14  N   UNL     1       5.648   6.403  15.161  0.00  0.00    +0.000 N 
ATOM     15  O   UNL     1       7.541   5.203  14.887  0.00  0.00    +0.000 OA
ATOM     16  H   UNL     1       7.143   4.430  17.167  0.00  0.00    +0.000 HD
ATOM     17  H   UNL     1       5.097   6.838  15.888  0.00  0.00    +0.000 HD
ATOM     18  H   UNL     1       5.829   6.891  14.299  0.00  0.00    +0.000 HD
ENDBRANCH  11  12
TORSDOF 1
ENDMDL
