MODEL 1
REMARK VINA RESULT:      -7.7      0.000      0.000
REMARK  Name = 
REMARK  7 active torsions:
REMARK  status: ('A' for Active; 'I' for Inactive)
REMARK    1  A    between atoms: C_1  and  C_2
REMARK    2  A    between atoms: C_2  and  C_3
REMARK    3  A    between atoms: C_2  and  C_4
REMARK    4  A    between atoms: N_6  and  C_7
REMARK    5  A    between atoms: C_9  and  S_10
REMARK    6  A    between atoms: S_10  and  N_13
REMARK    7  A    between atoms: N_13  and  C_14
REMARK                            x       y       z     vdW  Elec       q    Type
REMARK                         _______ _______ _______ _____ _____    ______ ____
ROOT
ATOM      1  C   UNL     1       2.493   6.951  19.584  0.00  0.00    +0.000 A 
ATOM      2  C   UNL     1       1.724   7.920  20.234  0.00  0.00    +0.000 A 
ATOM      3  C   UNL     1       1.336   9.085  19.571  0.00  0.00    +0.000 A 
ATOM      4  C   UNL     1       1.771   9.343  18.270  0.00  0.00    +0.000 A 
ATOM      5  C   UNL     1       2.571   8.400  17.620  0.00  0.00    +0.000 A 
ATOM      6  C   UNL     1       2.926   7.209  18.271  0.00  0.00    +0.000 A 
ATOM      7 CL   UNL     1       3.877   6.056  17.400  0.00  0.00    +0.000 Cl
ENDROOT
BRANCH   1  10
ATOM      8  C   UNL     1       2.211   4.520  20.035  0.00  0.00    +0.000 C 
ATOM      9  O   UNL     1       1.335   4.316  19.204  0.00  0.00    +0.000 OA
ATOM     10  N   UNL     1       2.849   5.736  20.225  0.00  0.00    +0.000 N 
ATOM     11  H   UNL     1       3.729   5.738  20.730  0.00  0.00    +0.000 HD
BRANCH   8  13
ATOM     12  C   UNL     1       1.563   2.671  21.632  0.00  0.00    +0.000 C 
ATOM     13  C   UNL     1       2.715   3.395  20.939  0.00  0.00    +0.000 C 
ATOM     14  C   UNL     1       3.523   2.399  20.101  0.00  0.00    +0.000 C 
ENDBRANCH   8  13
ENDBRANCH   1  10
BRANCH   3  15
ATOM     15  S   UNL     1       0.307  10.256  20.434  0.00  0.00    +0.000 S 
ATOM     16  O   UNL     1      -0.817   9.546  21.003  0.00  0.00    +0.000 OA
ATOM     17  O   UNL     1       1.188  11.052  21.263  0.00  0.00    +0.000 OA
BRANCH  15  18
ATOM     18  N   UNL     1      -0.228  11.278  19.206  0.00  0.00    +0.000 N 
ATOM     19  H   UNL     1       0.528  11.606  18.610  0.00  0.00    +0.000 HD
BRANCH  18  20
ATOM     20  C   UNL     1      -1.509  11.094  18.618  0.00  0.00    +0.000 A 
ATOM     21  C   UNL     1      -1.680  10.161  17.595  0.00  0.00    +0.000 A 
ATOM     22  C   UNL     1      -2.950   9.942  17.056  0.00  0.00    +0.000 A 
ATOM     23  C   UNL     1      -4.042  10.678  17.520  0.00  0.00    +0.000 A 
ATOM     24  C   UNL     1      -3.854  11.632  18.518  0.00  0.00    +0.000 A 
ATOM     25 CL   UNL     1      -5.194  12.553  19.083  0.00  0.00    +0.000 Cl
ATOM     26  C   UNL     1      -2.594  11.839  19.078  0.00  0.00    +0.000 A 
ENDBRANCH  18  20
ENDBRANCH  15  18
ENDBRANCH   3  15
TORSDOF 5
ENDMDL
MODEL 2
REMARK VINA RESULT:      -7.6      1.111      1.481
REMARK  Name = 
REMARK  7 active torsions:
REMARK  status: ('A' for Active; 'I' for Inactive)
REMARK    1  A    between atoms: C_1  and  C_2
REMARK    2  A    between atoms: C_2  and  C_3
REMARK    3  A    between atoms: C_2  and  C_4
REMARK    4  A    between atoms: N_6  and  C_7
REMARK    5  A    between atoms: C_9  and  S_10
REMARK    6  A    between atoms: S_10  and  N_13
REMARK    7  A    between atoms: N_13  and  C_14
REMARK                            x       y       z     vdW  Elec       q    Type
REMARK                         _______ _______ _______ _____ _____    ______ ____
ROOT
ATOM      1  C   UNL     1       2.481   6.803  19.654  0.00  0.00    +0.000 A 
ATOM      2  C   UNL     1       1.744   7.758  20.359  0.00  0.00    +0.000 A 
ATOM      3  C   UNL     1       1.357   8.952  19.749  0.00  0.00    +0.000 A 
ATOM      4  C   UNL     1       1.762   9.251  18.448  0.00  0.00    +0.000 A 
ATOM      5  C   UNL     1       2.530   8.322  17.742  0.00  0.00    +0.000 A 
ATOM      6  C   UNL     1       2.884   7.102  18.340  0.00  0.00    +0.000 A 
ATOM      7 CL   UNL     1       3.794   5.968  17.403  0.00  0.00    +0.000 Cl
ENDROOT
BRANCH   1  10
ATOM      8  C   UNL     1       1.941   4.557  20.580  0.00  0.00    +0.000 C 
ATOM      9  O   UNL     1       0.746   4.569  20.310  0.00  0.00    +0.000 OA
ATOM     10  N   UNL     1       2.835   5.560  20.241  0.00  0.00    +0.000 N 
ATOM     11  H   UNL     1       3.826   5.341  20.261  0.00  0.00    +0.000 HD
BRANCH   8  13
ATOM     12  C   UNL     1       1.508   2.412  21.844  0.00  0.00    +0.000 C 
ATOM     13  C   UNL     1       2.569   3.370  21.309  0.00  0.00    +0.000 C 
ATOM     14  C   UNL     1       3.503   2.626  20.350  0.00  0.00    +0.000 C 
ENDBRANCH   8  13
ENDBRANCH   1  10
BRANCH   3  15
ATOM     15  S   UNL     1       0.369  10.105  20.681  0.00  0.00    +0.000 S 
ATOM     16  O   UNL     1      -0.815   9.420  21.149  0.00  0.00    +0.000 OA
ATOM     17  O   UNL     1       1.265  10.769  21.606  0.00  0.00    +0.000 OA
BRANCH  15  18
ATOM     18  N   UNL     1      -0.059  11.263  19.534  0.00  0.00    +0.000 N 
ATOM     19  H   UNL     1       0.732  11.572  18.974  0.00  0.00    +0.000 HD
BRANCH  18  20
ATOM     20  C   UNL     1      -1.340  11.235  18.920  0.00  0.00    +0.000 A 
ATOM     21  C   UNL     1      -2.403  11.935  19.491  0.00  0.00    +0.000 A 
ATOM     22  C   UNL     1      -3.648  11.952  18.857  0.00  0.00    +0.000 A 
ATOM     23  C   UNL     1      -3.835  11.244  17.669  0.00  0.00    +0.000 A 
ATOM     24  C   UNL     1      -2.776  10.520  17.124  0.00  0.00    +0.000 A 
ATOM     25 CL   UNL     1      -3.006   9.632  15.667  0.00  0.00    +0.000 Cl
ATOM     26  C   UNL     1      -1.525  10.518  17.739  0.00  0.00    +0.000 A 
ENDBRANCH  18  20
ENDBRANCH  15  18
ENDBRANCH   3  15
TORSDOF 5
ENDMDL
MODEL 3
REMARK VINA RESULT:      -7.5      4.974      8.785
REMARK  Name = 
REMARK  7 active torsions:
REMARK  status: ('A' for Active; 'I' for Inactive)
REMARK    1  A    between atoms: C_1  and  C_2
REMARK    2  A    between atoms: C_2  and  C_3
REMARK    3  A    between atoms: C_2  and  C_4
REMARK    4  A    between atoms: N_6  and  C_7
REMARK    5  A    between atoms: C_9  and  S_10
REMARK    6  A    between atoms: S_10  and  N_13
REMARK    7  A    between atoms: N_13  and  C_14
REMARK                            x       y       z     vdW  Elec       q    Type
REMARK                         _______ _______ _______ _____ _____    ______ ____
ROOT
ATOM      1  C   UNL     1       2.901   6.015  19.346  0.00  0.00    +0.000 A 
ATOM      2  C   UNL     1       4.015   6.366  18.580  0.00  0.00    +0.000 A 
ATOM      3  C   UNL     1       4.643   5.425  17.762  0.00  0.00    +0.000 A 
ATOM      4  C   UNL     1       4.218   4.097  17.748  0.00  0.00    +0.000 A 
ATOM      5  C   UNL     1       3.126   3.722  18.536  0.00  0.00    +0.000 A 
ATOM      6  C   UNL     1       2.468   4.677  19.327  0.00  0.00    +0.000 A 
ATOM      7 CL   UNL     1       1.093   4.168  20.244  0.00  0.00    +0.000 Cl
ENDROOT
BRANCH   1  10
ATOM      8  C   UNL     1       1.751   8.196  19.686  0.00  0.00    +0.000 C 
ATOM      9  O   UNL     1       1.766   8.555  18.515  0.00  0.00    +0.000 OA
ATOM     10  N   UNL     1       2.217   6.972  20.140  0.00  0.00    +0.000 N 
ATOM     11  H   UNL     1       1.918   6.660  21.058  0.00  0.00    +0.000 HD
BRANCH   8  13
ATOM     12  C   UNL     1       0.357  10.245  20.180  0.00  0.00    +0.000 C 
ATOM     13  C   UNL     1       1.158   9.089  20.774  0.00  0.00    +0.000 C 
ATOM     14  C   UNL     1       0.256   8.248  21.683  0.00  0.00    +0.000 C 
ENDBRANCH   8  13
ENDBRANCH   1  10
BRANCH   3  15
ATOM     15  S   UNL     1       6.025   5.947  16.766  0.00  0.00    +0.000 S 
ATOM     16  O   UNL     1       5.545   6.877  15.768  0.00  0.00    +0.000 OA
ATOM     17  O   UNL     1       7.084   6.314  17.683  0.00  0.00    +0.000 OA
BRANCH  15  18
ATOM     18  N   UNL     1       6.525   4.521  16.021  0.00  0.00    +0.000 N 
ATOM     19  H   UNL     1       6.189   3.689  16.500  0.00  0.00    +0.000 HD
BRANCH  18  20
ATOM     20  C   UNL     1       6.685   4.459  14.610  0.00  0.00    +0.000 A 
ATOM     21  C   UNL     1       7.641   5.257  13.980  0.00  0.00    +0.000 A 
ATOM     22  C   UNL     1       7.836   5.155  12.600  0.00  0.00    +0.000 A 
ATOM     23  C   UNL     1       7.055   4.275  11.849  0.00  0.00    +0.000 A 
ATOM     24  C   UNL     1       6.080   3.507  12.483  0.00  0.00    +0.000 A 
ATOM     25 CL   UNL     1       5.103   2.432  11.558  0.00  0.00    +0.000 Cl
ATOM     26  C   UNL     1       5.896   3.586  13.862  0.00  0.00    +0.000 A 
ENDBRANCH  18  20
ENDBRANCH  15  18
ENDBRANCH   3  15
TORSDOF 5
ENDMDL
MODEL 4
REMARK VINA RESULT:      -7.2      5.256      7.450
REMARK  Name = 
REMARK  7 active torsions:
REMARK  status: ('A' for Active; 'I' for Inactive)
REMARK    1  A    between atoms: C_1  and  C_2
REMARK    2  A    between atoms: C_2  and  C_3
REMARK    3  A    between atoms: C_2  and  C_4
REMARK    4  A    between atoms: N_6  and  C_7
REMARK    5  A    between atoms: C_9  and  S_10
REMARK    6  A    between atoms: S_10  and  N_13
REMARK    7  A    between atoms: N_13  and  C_14
REMARK                            x       y       z     vdW  Elec       q    Type
REMARK                         _______ _______ _______ _____ _____    ______ ____
ROOT
ATOM      1  C   UNL     1       6.160   5.226  16.625  0.00  0.00    +0.000 A 
ATOM      2  C   UNL     1       5.269   4.215  16.994  0.00  0.00    +0.000 A 
ATOM      3  C   UNL     1       4.922   4.023  18.332  0.00  0.00    +0.000 A 
ATOM      4  C   UNL     1       5.515   4.787  19.338  0.00  0.00    +0.000 A 
ATOM      5  C   UNL     1       6.436   5.778  18.988  0.00  0.00    +0.000 A 
ATOM      6  C   UNL     1       6.753   6.000  17.639  0.00  0.00    +0.000 A 
ATOM      7 CL   UNL     1       7.861   7.272  17.260  0.00  0.00    +0.000 Cl
ENDROOT
BRANCH   1  10
ATOM      8  C   UNL     1       6.498   4.509  14.266  0.00  0.00    +0.000 C 
ATOM      9  O   UNL     1       6.125   3.351  14.408  0.00  0.00    +0.000 OA
ATOM     10  N   UNL     1       6.480   5.471  15.264  0.00  0.00    +0.000 N 
ATOM     11  H   UNL     1       6.545   6.445  14.988  0.00  0.00    +0.000 HD
BRANCH   8  13
ATOM     12  C   UNL     1       8.353   5.702  13.031  0.00  0.00    +0.000 C 
ATOM     13  C   UNL     1       6.995   5.014  12.912  0.00  0.00    +0.000 C 
ATOM     14  C   UNL     1       7.095   3.835  11.939  0.00  0.00    +0.000 C 
ENDBRANCH   8  13
ENDBRANCH   1  10
BRANCH   3  15
ATOM     15  S   UNL     1       3.737   2.755  18.733  0.00  0.00    +0.000 S 
ATOM     16  O   UNL     1       3.804   1.727  17.719  0.00  0.00    +0.000 OA
ATOM     17  O   UNL     1       3.923   2.439  20.134  0.00  0.00    +0.000 OA
BRANCH  15  18
ATOM     18  N   UNL     1       2.260   3.560  18.629  0.00  0.00    +0.000 N 
ATOM     19  H   UNL     1       1.464   2.938  18.744  0.00  0.00    +0.000 HD
BRANCH  18  20
ATOM     20  C   UNL     1       2.131   4.899  19.090  0.00  0.00    +0.000 A 
ATOM     21  C   UNL     1       1.823   5.150  20.427  0.00  0.00    +0.000 A 
ATOM     22  C   UNL     1       1.750   6.466  20.891  0.00  0.00    +0.000 A 
ATOM     23  C   UNL     1       1.957   7.529  20.010  0.00  0.00    +0.000 A 
ATOM     24  C   UNL     1       2.232   7.268  18.669  0.00  0.00    +0.000 A 
ATOM     25 CL   UNL     1       2.472   8.575  17.575  0.00  0.00    +0.000 Cl
ATOM     26  C   UNL     1       2.329   5.957  18.204  0.00  0.00    +0.000 A 
ENDBRANCH  18  20
ENDBRANCH  15  18
ENDBRANCH   3  15
TORSDOF 5
ENDMDL
MODEL 5
REMARK VINA RESULT:      -7.2      5.456      7.294
REMARK  Name = 
REMARK  7 active torsions:
REMARK  status: ('A' for Active; 'I' for Inactive)
REMARK    1  A    between atoms: C_1  and  C_2
REMARK    2  A    between atoms: C_2  and  C_3
REMARK    3  A    between atoms: C_2  and  C_4
REMARK    4  A    between atoms: N_6  and  C_7
REMARK    5  A    between atoms: C_9  and  S_10
REMARK    6  A    between atoms: S_10  and  N_13
REMARK    7  A    between atoms: N_13  and  C_14
REMARK                            x       y       z     vdW  Elec       q    Type
REMARK                         _______ _______ _______ _____ _____    ______ ____
ROOT
ATOM      1  C   UNL     1       5.921   5.501  16.747  0.00  0.00    +0.000 A 
ATOM      2  C   UNL     1       4.665   6.085  16.933  0.00  0.00    +0.000 A 
ATOM      3  C   UNL     1       4.167   6.312  18.217  0.00  0.00    +0.000 A 
ATOM      4  C   UNL     1       4.880   5.894  19.341  0.00  0.00    +0.000 A 
ATOM      5  C   UNL     1       6.121   5.276  19.170  0.00  0.00    +0.000 A 
ATOM      6  C   UNL     1       6.641   5.085  17.881  0.00  0.00    +0.000 A 
ATOM      7 CL   UNL     1       8.204   4.359  17.731  0.00  0.00    +0.000 Cl
ENDROOT
BRANCH   1  10
ATOM      8  C   UNL     1       6.418   4.128  14.731  0.00  0.00    +0.000 C 
ATOM      9  O   UNL     1       5.798   3.130  15.076  0.00  0.00    +0.000 OA
ATOM     10  N   UNL     1       6.466   5.312  15.450  0.00  0.00    +0.000 N 
ATOM     11  H   UNL     1       6.767   6.151  14.965  0.00  0.00    +0.000 HD
BRANCH   8  13
ATOM     12  C   UNL     1       6.292   3.792  12.230  0.00  0.00    +0.000 C 
ATOM     13  C   UNL     1       7.187   4.159  13.411  0.00  0.00    +0.000 C 
ATOM     14  C   UNL     1       7.773   5.559  13.201  0.00  0.00    +0.000 C 
ENDBRANCH   8  13
ENDBRANCH   1  10
BRANCH   3  15
ATOM     15  S   UNL     1       2.585   7.113  18.389  0.00  0.00    +0.000 S 
ATOM     16  O   UNL     1       2.387   7.442  19.783  0.00  0.00    +0.000 OA
ATOM     17  O   UNL     1       2.520   8.132  17.362  0.00  0.00    +0.000 OA
BRANCH  15  18
ATOM     18  N   UNL     1       1.494   5.915  17.927  0.00  0.00    +0.000 N 
ATOM     19  H   UNL     1       1.109   6.071  16.998  0.00  0.00    +0.000 HD
BRANCH  18  20
ATOM     20  C   UNL     1       1.666   4.572  18.360  0.00  0.00    +0.000 A 
ATOM     21  C   UNL     1       2.073   3.593  17.454  0.00  0.00    +0.000 A 
ATOM     22  C   UNL     1       2.295   2.285  17.892  0.00  0.00    +0.000 A 
ATOM     23  C   UNL     1       2.082   1.952  19.231  0.00  0.00    +0.000 A 
ATOM     24  C   UNL     1       1.643   2.930  20.121  0.00  0.00    +0.000 A 
ATOM     25 CL   UNL     1       1.363   2.522  21.770  0.00  0.00    +0.000 Cl
ATOM     26  C   UNL     1       1.442   4.243  19.696  0.00  0.00    +0.000 A 
ENDBRANCH  18  20
ENDBRANCH  15  18
ENDBRANCH   3  15
TORSDOF 5
ENDMDL
MODEL 6
REMARK VINA RESULT:      -7.2      4.498      8.552
REMARK  Name = 
REMARK  7 active torsions:
REMARK  status: ('A' for Active; 'I' for Inactive)
REMARK    1  A    between atoms: C_1  and  C_2
REMARK    2  A    between atoms: C_2  and  C_3
REMARK    3  A    between atoms: C_2  and  C_4
REMARK    4  A    between atoms: N_6  and  C_7
REMARK    5  A    between atoms: C_9  and  S_10
REMARK    6  A    between atoms: S_10  and  N_13
REMARK    7  A    between atoms: N_13  and  C_14
REMARK                            x       y       z     vdW  Elec       q    Type
REMARK                         _______ _______ _______ _____ _____    ______ ____
ROOT
ATOM      1  C   UNL     1       2.835   5.794  19.970  0.00  0.00    +0.000 A 
ATOM      2  C   UNL     1       4.151   6.056  19.578  0.00  0.00    +0.000 A 
ATOM      3  C   UNL     1       4.955   5.042  19.057  0.00  0.00    +0.000 A 
ATOM      4  C   UNL     1       4.488   3.729  18.984  0.00  0.00    +0.000 A 
ATOM      5  C   UNL     1       3.187   3.444  19.404  0.00  0.00    +0.000 A 
ATOM      6  C   UNL     1       2.363   4.472  19.890  0.00  0.00    +0.000 A 
ATOM      7 CL   UNL     1       0.745   4.071  20.351  0.00  0.00    +0.000 Cl
ENDROOT
BRANCH   1  10
ATOM      8  C   UNL     1       1.755   8.030  19.806  0.00  0.00    +0.000 C 
ATOM      9  O   UNL     1       2.161   8.309  18.685  0.00  0.00    +0.000 OA
ATOM     10  N   UNL     1       1.986   6.825  20.450  0.00  0.00    +0.000 N 
ATOM     11  H   UNL     1       1.394   6.585  21.239  0.00  0.00    +0.000 HD
BRANCH   8  13
ATOM     12  C   UNL     1       0.075   9.913  19.675  0.00  0.00    +0.000 C 
ATOM     13  C   UNL     1       0.894   9.014  20.597  0.00  0.00    +0.000 C 
ATOM     14  C   UNL     1      -0.041   8.234  21.526  0.00  0.00    +0.000 C 
ENDBRANCH   8  13
ENDBRANCH   1  10
BRANCH   3  15
ATOM     15  S   UNL     1       6.605   5.451  18.522  0.00  0.00    +0.000 S 
ATOM     16  O   UNL     1       6.550   6.684  17.768  0.00  0.00    +0.000 OA
ATOM     17  O   UNL     1       7.462   5.320  19.682  0.00  0.00    +0.000 OA
BRANCH  15  18
ATOM     18  N   UNL     1       7.006   4.175  17.498  0.00  0.00    +0.000 N 
ATOM     19  H   UNL     1       6.932   3.268  17.952  0.00  0.00    +0.000 HD
BRANCH  18  20
ATOM     20  C   UNL     1       6.727   4.248  16.106  0.00  0.00    +0.000 A 
ATOM     21  C   UNL     1       5.551   3.695  15.600  0.00  0.00    +0.000 A 
ATOM     22  C   UNL     1       5.251   3.815  14.241  0.00  0.00    +0.000 A 
ATOM     23  C   UNL     1       6.143   4.464  13.385  0.00  0.00    +0.000 A 
ATOM     24  C   UNL     1       7.331   4.984  13.894  0.00  0.00    +0.000 A 
ATOM     25 CL   UNL     1       8.442   5.771  12.840  0.00  0.00    +0.000 Cl
ATOM     26  C   UNL     1       7.625   4.888  15.254  0.00  0.00    +0.000 A 
ENDBRANCH  18  20
ENDBRANCH  15  18
ENDBRANCH   3  15
TORSDOF 5
ENDMDL
MODEL 7
REMARK VINA RESULT:      -7.1      4.378      8.392
REMARK  Name = 
REMARK  7 active torsions:
REMARK  status: ('A' for Active; 'I' for Inactive)
REMARK    1  A    between atoms: C_1  and  C_2
REMARK    2  A    between atoms: C_2  and  C_3
REMARK    3  A    between atoms: C_2  and  C_4
REMARK    4  A    between atoms: N_6  and  C_7
REMARK    5  A    between atoms: C_9  and  S_10
REMARK    6  A    between atoms: S_10  and  N_13
REMARK    7  A    between atoms: N_13  and  C_14
REMARK                            x       y       z     vdW  Elec       q    Type
REMARK                         _______ _______ _______ _____ _____    ______ ____
ROOT
ATOM      1  C   UNL     1       3.209   5.765  18.587  0.00  0.00    +0.000 A 
ATOM      2  C   UNL     1       3.972   6.035  17.448  0.00  0.00    +0.000 A 
ATOM      3  C   UNL     1       4.472   4.996  16.661  0.00  0.00    +0.000 A 
ATOM      4  C   UNL     1       4.282   3.665  17.035  0.00  0.00    +0.000 A 
ATOM      5  C   UNL     1       3.551   3.379  18.191  0.00  0.00    +0.000 A 
ATOM      6  C   UNL     1       3.014   4.423  18.960  0.00  0.00    +0.000 A 
ATOM      7 CL   UNL     1       2.076   4.010  20.353  0.00  0.00    +0.000 Cl
ENDROOT
BRANCH   1  10
ATOM      8  C   UNL     1       2.020   7.934  18.856  0.00  0.00    +0.000 C 
ATOM      9  O   UNL     1       1.766   8.112  17.671  0.00  0.00    +0.000 OA
ATOM     10  N   UNL     1       2.648   6.809  19.367  0.00  0.00    +0.000 N 
ATOM     11  H   UNL     1       2.568   6.630  20.363  0.00  0.00    +0.000 HD
BRANCH   8  13
ATOM     12  C   UNL     1       0.617   9.977  19.352  0.00  0.00    +0.000 C 
ATOM     13  C   UNL     1       1.613   8.963  19.910  0.00  0.00    +0.000 C 
ATOM     14  C   UNL     1       0.997   8.239  21.111  0.00  0.00    +0.000 C 
ENDBRANCH   8  13
ENDBRANCH   1  10
BRANCH   3  15
ATOM     15  S   UNL     1       5.389   5.405  15.190  0.00  0.00    +0.000 S 
ATOM     16  O   UNL     1       5.122   4.397  14.188  0.00  0.00    +0.000 OA
ATOM     17  O   UNL     1       5.146   6.808  14.924  0.00  0.00    +0.000 OA
BRANCH  15  18
ATOM     18  N   UNL     1       6.993   5.297  15.693  0.00  0.00    +0.000 N 
ATOM     19  H   UNL     1       7.651   5.318  14.917  0.00  0.00    +0.000 HD
BRANCH  18  20
ATOM     20  C   UNL     1       7.405   5.863  16.930  0.00  0.00    +0.000 A 
ATOM     21  C   UNL     1       7.551   5.052  18.055  0.00  0.00    +0.000 A 
ATOM     22  C   UNL     1       8.008   5.600  19.256  0.00  0.00    +0.000 A 
ATOM     23  C   UNL     1       8.290   6.965  19.337  0.00  0.00    +0.000 A 
ATOM     24  C   UNL     1       8.109   7.773  18.217  0.00  0.00    +0.000 A 
ATOM     25 CL   UNL     1       8.440   9.460  18.316  0.00  0.00    +0.000 Cl
ATOM     26  C   UNL     1       7.676   7.229  17.009  0.00  0.00    +0.000 A 
ENDBRANCH  18  20
ENDBRANCH  15  18
ENDBRANCH   3  15
TORSDOF 5
ENDMDL
MODEL 8
REMARK VINA RESULT:      -7.1      5.612      8.795
REMARK  Name = 
REMARK  7 active torsions:
REMARK  status: ('A' for Active; 'I' for Inactive)
REMARK    1  A    between atoms: C_1  and  C_2
REMARK    2  A    between atoms: C_2  and  C_3
REMARK    3  A    between atoms: C_2  and  C_4
REMARK    4  A    between atoms: N_6  and  C_7
REMARK    5  A    between atoms: C_9  and  S_10
REMARK    6  A    between atoms: S_10  and  N_13
REMARK    7  A    between atoms: N_13  and  C_14
REMARK                            x       y       z     vdW  Elec       q    Type
REMARK                         _______ _______ _______ _____ _____    ______ ____
ROOT
ATOM      1  C   UNL     1       3.327   5.497  17.881  0.00  0.00    +0.000 A 
ATOM      2  C   UNL     1       4.265   4.731  17.184  0.00  0.00    +0.000 A 
ATOM      3  C   UNL     1       5.322   5.342  16.506  0.00  0.00    +0.000 A 
ATOM      4  C   UNL     1       5.422   6.732  16.448  0.00  0.00    +0.000 A 
ATOM      5  C   UNL     1       4.471   7.512  17.110  0.00  0.00    +0.000 A 
ATOM      6  C   UNL     1       3.433   6.898  17.827  0.00  0.00    +0.000 A 
ATOM      7 CL   UNL     1       2.312   7.912  18.669  0.00  0.00    +0.000 Cl
ENDROOT
BRANCH   1  10
ATOM      8  C   UNL     1       2.455   3.962  19.635  0.00  0.00    +0.000 C 
ATOM      9  O   UNL     1       3.541   3.637  20.100  0.00  0.00    +0.000 OA
ATOM     10  N   UNL     1       2.279   4.890  18.621  0.00  0.00    +0.000 N 
ATOM     11  H   UNL     1       1.355   5.289  18.496  0.00  0.00    +0.000 HD
BRANCH   8  13
ATOM     12  C   UNL     1       0.594   2.293  19.267  0.00  0.00    +0.000 C 
ATOM     13  C   UNL     1       1.157   3.375  20.186  0.00  0.00    +0.000 C 
ATOM     14  C   UNL     1       1.418   2.789  21.577  0.00  0.00    +0.000 C 
ENDBRANCH   8  13
ENDBRANCH   1  10
BRANCH   3  15
ATOM     15  S   UNL     1       6.518   4.309  15.683  0.00  0.00    +0.000 S 
ATOM     16  O   UNL     1       7.817   4.557  16.267  0.00  0.00    +0.000 OA
ATOM     17  O   UNL     1       5.957   2.974  15.643  0.00  0.00    +0.000 OA
BRANCH  15  18
ATOM     18  N   UNL     1       6.490   4.874  14.096  0.00  0.00    +0.000 N 
ATOM     19  H   UNL     1       7.163   5.620  13.932  0.00  0.00    +0.000 HD
BRANCH  18  20
ATOM     20  C   UNL     1       6.195   3.995  13.019  0.00  0.00    +0.000 A 
ATOM     21  C   UNL     1       7.200   3.197  12.474  0.00  0.00    +0.000 A 
ATOM     22  C   UNL     1       6.897   2.294  11.452  0.00  0.00    +0.000 A 
ATOM     23  C   UNL     1       5.594   2.211  10.957  0.00  0.00    +0.000 A 
ATOM     24  C   UNL     1       4.604   3.037  11.486  0.00  0.00    +0.000 A 
ATOM     25 CL   UNL     1       2.999   2.951  10.869  0.00  0.00    +0.000 Cl
ATOM     26  C   UNL     1       4.894   3.924  12.522  0.00  0.00    +0.000 A 
ENDBRANCH  18  20
ENDBRANCH  15  18
ENDBRANCH   3  15
TORSDOF 5
ENDMDL
MODEL 9
REMARK VINA RESULT:      -7.1      4.746      8.680
REMARK  Name = 
REMARK  7 active torsions:
REMARK  status: ('A' for Active; 'I' for Inactive)
REMARK    1  A    between atoms: C_1  and  C_2
REMARK    2  A    between atoms: C_2  and  C_3
REMARK    3  A    between atoms: C_2  and  C_4
REMARK    4  A    between atoms: N_6  and  C_7
REMARK    5  A    between atoms: C_9  and  S_10
REMARK    6  A    between atoms: S_10  and  N_13
REMARK    7  A    between atoms: N_13  and  C_14
REMARK                            x       y       z     vdW  Elec       q    Type
REMARK                         _______ _______ _______ _____ _____    ______ ____
ROOT
ATOM      1  C   UNL     1       2.737   5.340  20.108  0.00  0.00    +0.000 A 
ATOM      2  C   UNL     1       3.689   5.789  19.189  0.00  0.00    +0.000 A 
ATOM      3  C   UNL     1       4.522   4.886  18.527  0.00  0.00    +0.000 A 
ATOM      4  C   UNL     1       4.473   3.524  18.823  0.00  0.00    +0.000 A 
ATOM      5  C   UNL     1       3.551   3.063  19.766  0.00  0.00    +0.000 A 
ATOM      6  C   UNL     1       2.685   3.966  20.402  0.00  0.00    +0.000 A 
ATOM      7 CL   UNL     1       1.530   3.334  21.524  0.00  0.00    +0.000 Cl
ENDROOT
BRANCH   1  10
ATOM      8  C   UNL     1       1.658   7.564  20.391  0.00  0.00    +0.000 C 
ATOM      9  O   UNL     1       2.150   8.094  19.402  0.00  0.00    +0.000 OA
ATOM     10  N   UNL     1       1.845   6.239  20.750  0.00  0.00    +0.000 N 
ATOM     11  H   UNL     1       1.194   5.828  21.410  0.00  0.00    +0.000 HD
BRANCH   8  13
ATOM     12  C   UNL     1       1.514   9.119  22.378  0.00  0.00    +0.000 C 
ATOM     13  C   UNL     1       0.730   8.345  21.321  0.00  0.00    +0.000 C 
ATOM     14  C   UNL     1      -0.118   9.315  20.492  0.00  0.00    +0.000 C 
ENDBRANCH   8  13
ENDBRANCH   1  10
BRANCH   3  15
ATOM     15  S   UNL     1       5.676   5.514  17.324  0.00  0.00    +0.000 S 
ATOM     16  O   UNL     1       4.987   6.465  16.480  0.00  0.00    +0.000 OA
ATOM     17  O   UNL     1       6.873   5.887  18.051  0.00  0.00    +0.000 OA
BRANCH  15  18
ATOM     18  N   UNL     1       6.083   4.147  16.428  0.00  0.00    +0.000 N 
ATOM     19  H   UNL     1       5.597   3.311  16.744  0.00  0.00    +0.000 HD
BRANCH  18  20
ATOM     20  C   UNL     1       6.394   4.254  15.045  0.00  0.00    +0.000 A 
ATOM     21  C   UNL     1       7.448   5.066  14.627  0.00  0.00    +0.000 A 
ATOM     22  C   UNL     1       7.788   5.128  13.273  0.00  0.00    +0.000 A 
ATOM     23  C   UNL     1       7.055   4.398  12.336  0.00  0.00    +0.000 A 
ATOM     24  C   UNL     1       5.983   3.615  12.760  0.00  0.00    +0.000 A 
ATOM     25 CL   UNL     1       5.065   2.726  11.606  0.00  0.00    +0.000 Cl
ATOM     26  C   UNL     1       5.652   3.531  14.111  0.00  0.00    +0.000 A 
ENDBRANCH  18  20
ENDBRANCH  15  18
ENDBRANCH   3  15
TORSDOF 5
ENDMDL
