MODEL 1
REMARK VINA RESULT:      -8.7      0.000      0.000
REMARK  Name = 
REMARK  6 active torsions:
REMARK  status: ('A' for Active; 'I' for Inactive)
REMARK    1  A    between atoms: C_6  and  O_7
REMARK    2  A    between atoms: O_7  and  C_8
REMARK    3  A    between atoms: C_8  and  C_9
REMARK    4  A    between atoms: C_9  and  N_10
REMARK    5  A    between atoms: N_13  and  C_14
REMARK    6  A    between atoms: C_14  and  C_15
REMARK                            x       y       z     vdW  Elec       q    Type
REMARK                         _______ _______ _______ _____ _____    ______ ____
ROOT
ATOM      1  O   UNL     1       8.828   8.803  18.949  0.00  0.00    +0.000 OA
ENDROOT
BRANCH   1   7
ATOM      2  O   UNL     1      11.250  14.879  16.503  0.00  0.00    +0.000 OA
ATOM      3  C   UNL     1      10.888  14.242  17.492  0.00  0.00    +0.000 A 
ATOM      4  O   UNL     1      10.517  12.913  17.398  0.00  0.00    +0.000 OA
ATOM      5  C   UNL     1      10.084  12.166  18.509  0.00  0.00    +0.000 A 
ATOM      6  C   UNL     1       9.696  10.851  18.251  0.00  0.00    +0.000 A 
ATOM      7  C   UNL     1       9.235  10.063  19.297  0.00  0.00    +0.000 A 
ATOM      8  C   UNL     1       9.204  10.595  20.589  0.00  0.00    +0.000 A 
ATOM      9  C   UNL     1       9.598  11.911  20.829  0.00  0.00    +0.000 A 
ATOM     10  C   UNL     1      10.036  12.732  19.785  0.00  0.00    +0.000 A 
ATOM     11  C   UNL     1      10.421  14.132  19.956  0.00  0.00    +0.000 A 
ATOM     12  C   UNL     1      10.387  14.792  21.200  0.00  0.00    +0.000 A 
ATOM     13  C   UNL     1      10.754  16.132  21.322  0.00  0.00    +0.000 A 
ATOM     14  C   UNL     1      11.162  16.845  20.204  0.00  0.00    +0.000 A 
ATOM     15  C   UNL     1      11.201  16.216  18.962  0.00  0.00    +0.000 A 
ATOM     16  C   UNL     1      10.833  14.868  18.838  0.00  0.00    +0.000 A 
ENDBRANCH   1   7
BRANCH   1  17
ATOM     17  C   UNL     1       7.947   8.782  17.829  0.00  0.00    +0.000 C 
BRANCH  17  18
ATOM     18  C   UNL     1       7.674   7.349  17.376  0.00  0.00    +0.000 C 
BRANCH  18  19
ATOM     19  N   UNL     1       6.299   7.190  16.858  0.00  0.00    +0.000 NA
ATOM     20  C   UNL     1       6.233   6.051  15.912  0.00  0.00    +0.000 C 
ATOM     21  C   UNL     1       6.226   4.646  16.578  0.00  0.00    +0.000 C 
ATOM     22  N   UNL     1       5.240   4.481  17.676  0.00  0.00    +0.000 NA
ATOM     23  C   UNL     1       5.436   5.598  18.621  0.00  0.00    +0.000 C 
ATOM     24  C   UNL     1       5.304   6.975  17.936  0.00  0.00    +0.000 C 
BRANCH  22  25
ATOM     25  C   UNL     1       3.863   4.434  17.129  0.00  0.00    +0.000 C 
BRANCH  25  26
ATOM     26  C   UNL     1       2.827   3.887  18.092  0.00  0.00    +0.000 A 
ATOM     27  C   UNL     1       2.411   2.547  18.028  0.00  0.00    +0.000 A 
ATOM     28  C   UNL     1       1.385   2.081  18.856  0.00  0.00    +0.000 A 
ATOM     29  C   UNL     1       0.805   2.936  19.788  0.00  0.00    +0.000 A 
ATOM     30  C   UNL     1       1.255   4.248  19.909  0.00  0.00    +0.000 A 
ATOM     31  C   UNL     1       2.257   4.725  19.058  0.00  0.00    +0.000 A 
ENDBRANCH  25  26
ENDBRANCH  22  25
ENDBRANCH  18  19
ENDBRANCH  17  18
ENDBRANCH   1  17
TORSDOF 6
ENDMDL
MODEL 2
REMARK VINA RESULT:      -8.6      2.774     11.768
REMARK  Name = 
REMARK  6 active torsions:
REMARK  status: ('A' for Active; 'I' for Inactive)
REMARK    1  A    between atoms: C_6  and  O_7
REMARK    2  A    between atoms: O_7  and  C_8
REMARK    3  A    between atoms: C_8  and  C_9
REMARK    4  A    between atoms: C_9  and  N_10
REMARK    5  A    between atoms: N_13  and  C_14
REMARK    6  A    between atoms: C_14  and  C_15
REMARK                            x       y       z     vdW  Elec       q    Type
REMARK                         _______ _______ _______ _____ _____    ______ ____
ROOT
ATOM      1  O   UNL     1       7.972   7.598  17.602  0.00  0.00    +0.000 OA
ENDROOT
BRANCH   1   7
ATOM      2  O   UNL     1       4.950   2.000  20.483  0.00  0.00    +0.000 OA
ATOM      3  C   UNL     1       4.823   2.952  19.713  0.00  0.00    +0.000 A 
ATOM      4  O   UNL     1       5.876   3.809  19.447  0.00  0.00    +0.000 OA
ATOM      5  C   UNL     1       5.754   4.915  18.586  0.00  0.00    +0.000 A 
ATOM      6  C   UNL     1       6.888   5.716  18.453  0.00  0.00    +0.000 A 
ATOM      7  C   UNL     1       6.832   6.838  17.637  0.00  0.00    +0.000 A 
ATOM      8  C   UNL     1       5.652   7.118  16.942  0.00  0.00    +0.000 A 
ATOM      9  C   UNL     1       4.529   6.304  17.085  0.00  0.00    +0.000 A 
ATOM     10  C   UNL     1       4.553   5.187  17.925  0.00  0.00    +0.000 A 
ATOM     11  C   UNL     1       3.403   4.317  18.157  0.00  0.00    +0.000 A 
ATOM     12  C   UNL     1       2.149   4.523  17.550  0.00  0.00    +0.000 A 
ATOM     13  C   UNL     1       1.070   3.676  17.803  0.00  0.00    +0.000 A 
ATOM     14  C   UNL     1       1.219   2.602  18.670  0.00  0.00    +0.000 A 
ATOM     15  C   UNL     1       2.447   2.379  19.286  0.00  0.00    +0.000 A 
ATOM     16  C   UNL     1       3.533   3.230  19.031  0.00  0.00    +0.000 A 
ENDBRANCH   1   7
BRANCH   1  17
ATOM     17  C   UNL     1       7.762   8.951  17.996  0.00  0.00    +0.000 C 
BRANCH  17  18
ATOM     18  C   UNL     1       9.093   9.684  18.156  0.00  0.00    +0.000 C 
BRANCH  18  19
ATOM     19  N   UNL     1       8.950  10.909  18.972  0.00  0.00    +0.000 NA
ATOM     20  C   UNL     1      10.041  10.993  19.971  0.00  0.00    +0.000 C 
ATOM     21  C   UNL     1      11.416  11.442  19.402  0.00  0.00    +0.000 C 
ATOM     22  N   UNL     1      11.375  12.663  18.559  0.00  0.00    +0.000 NA
ATOM     23  C   UNL     1      10.333  12.460  17.534  0.00  0.00    +0.000 C 
ATOM     24  C   UNL     1       8.955  12.145  18.152  0.00  0.00    +0.000 C 
BRANCH  22  25
ATOM     25  C   UNL     1      11.121  13.859  19.397  0.00  0.00    +0.000 C 
BRANCH  25  26
ATOM     26  C   UNL     1      11.148  15.171  18.637  0.00  0.00    +0.000 A 
ATOM     27  C   UNL     1      12.286  15.570  17.915  0.00  0.00    +0.000 A 
ATOM     28  C   UNL     1      12.333  16.825  17.301  0.00  0.00    +0.000 A 
ATOM     29  C   UNL     1      11.227  17.668  17.359  0.00  0.00    +0.000 A 
ATOM     30  C   UNL     1      10.069  17.257  18.013  0.00  0.00    +0.000 A 
ATOM     31  C   UNL     1      10.032  16.016  18.657  0.00  0.00    +0.000 A 
ENDBRANCH  25  26
ENDBRANCH  22  25
ENDBRANCH  18  19
ENDBRANCH  17  18
ENDBRANCH   1  17
TORSDOF 6
ENDMDL
MODEL 3
REMARK VINA RESULT:      -8.5      2.767     11.639
REMARK  Name = 
REMARK  6 active torsions:
REMARK  status: ('A' for Active; 'I' for Inactive)
REMARK    1  A    between atoms: C_6  and  O_7
REMARK    2  A    between atoms: O_7  and  C_8
REMARK    3  A    between atoms: C_8  and  C_9
REMARK    4  A    between atoms: C_9  and  N_10
REMARK    5  A    between atoms: N_13  and  C_14
REMARK    6  A    between atoms: C_14  and  C_15
REMARK                            x       y       z     vdW  Elec       q    Type
REMARK                         _______ _______ _______ _____ _____    ______ ____
ROOT
ATOM      1  O   UNL     1       8.201   7.675  18.104  0.00  0.00    +0.000 OA
ENDROOT
BRANCH   1   7
ATOM      2  O   UNL     1       4.865   1.982  20.389  0.00  0.00    +0.000 OA
ATOM      3  C   UNL     1       4.805   2.997  19.696  0.00  0.00    +0.000 A 
ATOM      4  O   UNL     1       5.897   3.832  19.544  0.00  0.00    +0.000 OA
ATOM      5  C   UNL     1       5.851   5.008  18.773  0.00  0.00    +0.000 A 
ATOM      6  C   UNL     1       7.017   5.774  18.752  0.00  0.00    +0.000 A 
ATOM      7  C   UNL     1       7.036   6.959  18.030  0.00  0.00    +0.000 A 
ATOM      8  C   UNL     1       5.898   7.338  17.312  0.00  0.00    +0.000 A 
ATOM      9  C   UNL     1       4.743   6.559  17.341  0.00  0.00    +0.000 A 
ATOM     10  C   UNL     1       4.691   5.377  18.088  0.00  0.00    +0.000 A 
ATOM     11  C   UNL     1       3.502   4.535  18.200  0.00  0.00    +0.000 A 
ATOM     12  C   UNL     1       2.284   4.837  17.561  0.00  0.00    +0.000 A 
ATOM     13  C   UNL     1       1.167   4.013  17.699  0.00  0.00    +0.000 A 
ATOM     14  C   UNL     1       1.240   2.868  18.480  0.00  0.00    +0.000 A 
ATOM     15  C   UNL     1       2.432   2.550  19.125  0.00  0.00    +0.000 A 
ATOM     16  C   UNL     1       3.557   3.377  18.986  0.00  0.00    +0.000 A 
ENDBRANCH   1   7
BRANCH   1  17
ATOM     17  C   UNL     1       8.033   9.062  17.820  0.00  0.00    +0.000 C 
BRANCH  17  18
ATOM     18  C   UNL     1       8.902   9.916  18.740  0.00  0.00    +0.000 C 
BRANCH  18  19
ATOM     19  N   UNL     1       9.680  10.920  17.982  0.00  0.00    +0.000 NA
ATOM     20  C   UNL     1       8.929  12.195  17.895  0.00  0.00    +0.000 C 
ATOM     21  C   UNL     1       8.942  13.053  19.191  0.00  0.00    +0.000 C 
ATOM     22  N   UNL     1      10.286  13.269  19.784  0.00  0.00    +0.000 NA
ATOM     23  C   UNL     1      10.927  11.947  19.926  0.00  0.00    +0.000 C 
ATOM     24  C   UNL     1      11.008  11.187  18.586  0.00  0.00    +0.000 C 
BRANCH  22  25
ATOM     25  C   UNL     1      11.077  14.196  18.940  0.00  0.00    +0.000 C 
BRANCH  25  26
ATOM     26  C   UNL     1      10.530  15.609  18.884  0.00  0.00    +0.000 A 
ATOM     27  C   UNL     1      10.330  16.264  17.657  0.00  0.00    +0.000 A 
ATOM     28  C   UNL     1       9.919  17.600  17.624  0.00  0.00    +0.000 A 
ATOM     29  C   UNL     1       9.657  18.275  18.813  0.00  0.00    +0.000 A 
ATOM     30  C   UNL     1       9.785  17.617  20.033  0.00  0.00    +0.000 A 
ATOM     31  C   UNL     1      10.229  16.291  20.070  0.00  0.00    +0.000 A 
ENDBRANCH  25  26
ENDBRANCH  22  25
ENDBRANCH  18  19
ENDBRANCH  17  18
ENDBRANCH   1  17
TORSDOF 6
ENDMDL
MODEL 4
REMARK VINA RESULT:      -8.4      1.614      2.030
REMARK  Name = 
REMARK  6 active torsions:
REMARK  status: ('A' for Active; 'I' for Inactive)
REMARK    1  A    between atoms: C_6  and  O_7
REMARK    2  A    between atoms: O_7  and  C_8
REMARK    3  A    between atoms: C_8  and  C_9
REMARK    4  A    between atoms: C_9  and  N_10
REMARK    5  A    between atoms: N_13  and  C_14
REMARK    6  A    between atoms: C_14  and  C_15
REMARK                            x       y       z     vdW  Elec       q    Type
REMARK                         _______ _______ _______ _____ _____    ______ ____
ROOT
ATOM      1  O   UNL     1       8.340   8.822  17.291  0.00  0.00    +0.000 OA
ENDROOT
BRANCH   1   7
ATOM      2  O   UNL     1       8.038  15.781  17.783  0.00  0.00    +0.000 OA
ATOM      3  C   UNL     1       8.369  14.728  18.327  0.00  0.00    +0.000 A 
ATOM      4  O   UNL     1       8.233  13.511  17.683  0.00  0.00    +0.000 OA
ATOM      5  C   UNL     1       8.587  12.291  18.287  0.00  0.00    +0.000 A 
ATOM      6  C   UNL     1       8.349  11.141  17.533  0.00  0.00    +0.000 A 
ATOM      7  C   UNL     1       8.652   9.900  18.076  0.00  0.00    +0.000 A 
ATOM      8  C   UNL     1       9.222   9.834  19.351  0.00  0.00    +0.000 A 
ATOM      9  C   UNL     1       9.455  10.994  20.089  0.00  0.00    +0.000 A 
ATOM     10  C   UNL     1       9.129  12.252  19.574  0.00  0.00    +0.000 A 
ATOM     11  C   UNL     1       9.304  13.504  20.308  0.00  0.00    +0.000 A 
ATOM     12  C   UNL     1       9.825  13.561  21.616  0.00  0.00    +0.000 A 
ATOM     13  C   UNL     1       9.969  14.774  22.288  0.00  0.00    +0.000 A 
ATOM     14  C   UNL     1       9.597  15.959  21.670  0.00  0.00    +0.000 A 
ATOM     15  C   UNL     1       9.076  15.929  20.379  0.00  0.00    +0.000 A 
ATOM     16  C   UNL     1       8.931  14.709  19.701  0.00  0.00    +0.000 A 
ENDBRANCH   1   7
BRANCH   1  17
ATOM     17  C   UNL     1       7.760   7.742  18.017  0.00  0.00    +0.000 C 
BRANCH  17  18
ATOM     18  C   UNL     1       7.173   6.699  17.067  0.00  0.00    +0.000 C 
BRANCH  18  19
ATOM     19  N   UNL     1       6.962   5.400  17.740  0.00  0.00    +0.000 NA
ATOM     20  C   UNL     1       5.893   5.516  18.760  0.00  0.00    +0.000 C 
ATOM     21  C   UNL     1       4.446   5.542  18.192  0.00  0.00    +0.000 C 
ATOM     22  N   UNL     1       4.138   4.462  17.221  0.00  0.00    +0.000 NA
ATOM     23  C   UNL     1       5.194   4.477  16.190  0.00  0.00    +0.000 C 
ATOM     24  C   UNL     1       6.605   4.317  16.793  0.00  0.00    +0.000 C 
BRANCH  22  25
ATOM     25  C   UNL     1       4.042   3.156  17.917  0.00  0.00    +0.000 C 
BRANCH  25  26
ATOM     26  C   UNL     1       3.069   3.140  19.080  0.00  0.00    +0.000 A 
ATOM     27  C   UNL     1       3.495   2.823  20.380  0.00  0.00    +0.000 A 
ATOM     28  C   UNL     1       2.571   2.715  21.424  0.00  0.00    +0.000 A 
ATOM     29  C   UNL     1       1.225   2.973  21.187  0.00  0.00    +0.000 A 
ATOM     30  C   UNL     1       0.798   3.354  19.918  0.00  0.00    +0.000 A 
ATOM     31  C   UNL     1       1.715   3.429  18.866  0.00  0.00    +0.000 A 
ENDBRANCH  25  26
ENDBRANCH  22  25
ENDBRANCH  18  19
ENDBRANCH  17  18
ENDBRANCH   1  17
TORSDOF 6
ENDMDL
MODEL 5
REMARK VINA RESULT:      -8.4      7.092     11.447
REMARK  Name = 
REMARK  6 active torsions:
REMARK  status: ('A' for Active; 'I' for Inactive)
REMARK    1  A    between atoms: C_6  and  O_7
REMARK    2  A    between atoms: O_7  and  C_8
REMARK    3  A    between atoms: C_8  and  C_9
REMARK    4  A    between atoms: C_9  and  N_10
REMARK    5  A    between atoms: N_13  and  C_14
REMARK    6  A    between atoms: C_14  and  C_15
REMARK                            x       y       z     vdW  Elec       q    Type
REMARK                         _______ _______ _______ _____ _____    ______ ____
ROOT
ATOM      1  O   UNL     1       0.850   8.919  20.548  0.00  0.00    +0.000 OA
ENDROOT
BRANCH   1   7
ATOM      2  O   UNL     1       4.464   3.067  19.339  0.00  0.00    +0.000 OA
ATOM      3  C   UNL     1       4.170   4.193  18.937  0.00  0.00    +0.000 A 
ATOM      4  O   UNL     1       3.367   5.037  19.682  0.00  0.00    +0.000 OA
ATOM      5  C   UNL     1       3.001   6.321  19.240  0.00  0.00    +0.000 A 
ATOM      6  C   UNL     1       2.147   7.039  20.078  0.00  0.00    +0.000 A 
ATOM      7  C   UNL     1       1.727   8.305  19.693  0.00  0.00    +0.000 A 
ATOM      8  C   UNL     1       2.196   8.844  18.491  0.00  0.00    +0.000 A 
ATOM      9  C   UNL     1       3.051   8.113  17.668  0.00  0.00    +0.000 A 
ATOM     10  C   UNL     1       3.463   6.824  18.021  0.00  0.00    +0.000 A 
ATOM     11  C   UNL     1       4.321   5.985  17.187  0.00  0.00    +0.000 A 
ATOM     12  C   UNL     1       4.819   6.400  15.936  0.00  0.00    +0.000 A 
ATOM     13  C   UNL     1       5.628   5.567  15.163  0.00  0.00    +0.000 A 
ATOM     14  C   UNL     1       5.958   4.300  15.622  0.00  0.00    +0.000 A 
ATOM     15  C   UNL     1       5.476   3.865  16.853  0.00  0.00    +0.000 A 
ATOM     16  C   UNL     1       4.662   4.702  17.632  0.00  0.00    +0.000 A 
ENDBRANCH   1   7
BRANCH   1  17
ATOM     17  C   UNL     1       0.087   9.952  19.930  0.00  0.00    +0.000 C 
BRANCH  17  18
ATOM     18  C   UNL     1      -0.347  10.997  20.957  0.00  0.00    +0.000 C 
BRANCH  18  19
ATOM     19  N   UNL     1       0.621  12.112  21.046  0.00  0.00    +0.000 NA
ATOM     20  C   UNL     1       1.071  12.513  19.692  0.00  0.00    +0.000 C 
ATOM     21  C   UNL     1       0.048  13.364  18.887  0.00  0.00    +0.000 C 
ATOM     22  N   UNL     1      -0.515  14.524  19.624  0.00  0.00    +0.000 NA
ATOM     23  C   UNL     1      -1.026  14.024  20.915  0.00  0.00    +0.000 C 
ATOM     24  C   UNL     1       0.061  13.299  21.735  0.00  0.00    +0.000 C 
BRANCH  22  25
ATOM     25  C   UNL     1       0.515  15.577  19.790  0.00  0.00    +0.000 C 
BRANCH  25  26
ATOM     26  C   UNL     1       0.598  16.556  18.634  0.00  0.00    +0.000 A 
ATOM     27  C   UNL     1       1.830  16.877  18.040  0.00  0.00    +0.000 A 
ATOM     28  C   UNL     1       1.905  17.853  17.042  0.00  0.00    +0.000 A 
ATOM     29  C   UNL     1       0.744  18.477  16.595  0.00  0.00    +0.000 A 
ATOM     30  C   UNL     1      -0.492  18.119  17.127  0.00  0.00    +0.000 A 
ATOM     31  C   UNL     1      -0.564  17.168  18.149  0.00  0.00    +0.000 A 
ENDBRANCH  25  26
ENDBRANCH  22  25
ENDBRANCH  18  19
ENDBRANCH  17  18
ENDBRANCH   1  17
TORSDOF 6
ENDMDL
MODEL 6
REMARK VINA RESULT:      -8.3      1.552      1.975
REMARK  Name = 
REMARK  6 active torsions:
REMARK  status: ('A' for Active; 'I' for Inactive)
REMARK    1  A    between atoms: C_6  and  O_7
REMARK    2  A    between atoms: O_7  and  C_8
REMARK    3  A    between atoms: C_8  and  C_9
REMARK    4  A    between atoms: C_9  and  N_10
REMARK    5  A    between atoms: N_13  and  C_14
REMARK    6  A    between atoms: C_14  and  C_15
REMARK                            x       y       z     vdW  Elec       q    Type
REMARK                         _______ _______ _______ _____ _____    ______ ____
ROOT
ATOM      1  O   UNL     1       7.400   9.066  17.683  0.00  0.00    +0.000 OA
ENDROOT
BRANCH   1   7
ATOM      2  O   UNL     1       8.156  16.008  17.598  0.00  0.00    +0.000 OA
ATOM      3  C   UNL     1       8.644  14.926  17.926  0.00  0.00    +0.000 A 
ATOM      4  O   UNL     1       8.023  13.731  17.616  0.00  0.00    +0.000 OA
ATOM      5  C   UNL     1       8.549  12.482  17.993  0.00  0.00    +0.000 A 
ATOM      6  C   UNL     1       7.786  11.365  17.650  0.00  0.00    +0.000 A 
ATOM      7  C   UNL     1       8.234  10.102  18.013  0.00  0.00    +0.000 A 
ATOM      8  C   UNL     1       9.455   9.977  18.680  0.00  0.00    +0.000 A 
ATOM      9  C   UNL     1      10.206  11.104  19.012  0.00  0.00    +0.000 A 
ATOM     10  C   UNL     1       9.759  12.388  18.685  0.00  0.00    +0.000 A 
ATOM     11  C   UNL     1      10.471  13.614  19.040  0.00  0.00    +0.000 A 
ATOM     12  C   UNL     1      11.687  13.617  19.751  0.00  0.00    +0.000 A 
ATOM     13  C   UNL     1      12.333  14.809  20.080  0.00  0.00    +0.000 A 
ATOM     14  C   UNL     1      11.779  16.025  19.706  0.00  0.00    +0.000 A 
ATOM     15  C   UNL     1      10.577  16.048  19.005  0.00  0.00    +0.000 A 
ATOM     16  C   UNL     1       9.926  14.850  18.673  0.00  0.00    +0.000 A 
ENDBRANCH   1   7
BRANCH   1  17
ATOM     17  C   UNL     1       7.999   7.784  17.850  0.00  0.00    +0.000 C 
BRANCH  17  18
ATOM     18  C   UNL     1       7.394   6.769  16.881  0.00  0.00    +0.000 C 
BRANCH  18  19
ATOM     19  N   UNL     1       7.210   5.447  17.515  0.00  0.00    +0.000 NA
ATOM     20  C   UNL     1       6.252   5.544  18.641  0.00  0.00    +0.000 C 
ATOM     21  C   UNL     1       4.757   5.636  18.223  0.00  0.00    +0.000 C 
ATOM     22  N   UNL     1       4.320   4.611  17.242  0.00  0.00    +0.000 NA
ATOM     23  C   UNL     1       5.268   4.645  16.111  0.00  0.00    +0.000 C 
ATOM     24  C   UNL     1       6.726   4.419  16.562  0.00  0.00    +0.000 C 
BRANCH  22  25
ATOM     25  C   UNL     1       4.251   3.277  17.886  0.00  0.00    +0.000 C 
BRANCH  25  26
ATOM     26  C   UNL     1       3.173   3.151  18.945  0.00  0.00    +0.000 A 
ATOM     27  C   UNL     1       1.812   3.266  18.614  0.00  0.00    +0.000 A 
ATOM     28  C   UNL     1       0.834   3.246  19.613  0.00  0.00    +0.000 A 
ATOM     29  C   UNL     1       1.204   3.061  20.942  0.00  0.00    +0.000 A 
ATOM     30  C   UNL     1       2.544   2.878  21.276  0.00  0.00    +0.000 A 
ATOM     31  C   UNL     1       3.526   2.932  20.282  0.00  0.00    +0.000 A 
ENDBRANCH  25  26
ENDBRANCH  22  25
ENDBRANCH  18  19
ENDBRANCH  17  18
ENDBRANCH   1  17
TORSDOF 6
ENDMDL
MODEL 7
REMARK VINA RESULT:      -8.3      6.580      8.854
REMARK  Name = 
REMARK  6 active torsions:
REMARK  status: ('A' for Active; 'I' for Inactive)
REMARK    1  A    between atoms: C_6  and  O_7
REMARK    2  A    between atoms: O_7  and  C_8
REMARK    3  A    between atoms: C_8  and  C_9
REMARK    4  A    between atoms: C_9  and  N_10
REMARK    5  A    between atoms: N_13  and  C_14
REMARK    6  A    between atoms: C_14  and  C_15
REMARK                            x       y       z     vdW  Elec       q    Type
REMARK                         _______ _______ _______ _____ _____    ______ ____
ROOT
ATOM      1  O   UNL     1       2.944   6.964  18.084  0.00  0.00    +0.000 OA
ENDROOT
BRANCH   1   7
ATOM      2  O   UNL     1       0.142   9.600  23.911  0.00  0.00    +0.000 OA
ATOM      3  C   UNL     1       0.272   9.715  22.693  0.00  0.00    +0.000 A 
ATOM      4  O   UNL     1       0.966   8.776  21.950  0.00  0.00    +0.000 OA
ATOM      5  C   UNL     1       1.145   8.891  20.560  0.00  0.00    +0.000 A 
ATOM      6  C   UNL     1       1.908   7.892  19.955  0.00  0.00    +0.000 A 
ATOM      7  C   UNL     1       2.145   7.955  18.589  0.00  0.00    +0.000 A 
ATOM      8  C   UNL     1       1.585   8.999  17.846  0.00  0.00    +0.000 A 
ATOM      9  C   UNL     1       0.823   9.988  18.468  0.00  0.00    +0.000 A 
ATOM     10  C   UNL     1       0.598   9.961  19.847  0.00  0.00    +0.000 A 
ATOM     11  C   UNL     1      -0.153  10.986  20.571  0.00  0.00    +0.000 A 
ATOM     12  C   UNL     1      -0.724  12.108  19.940  0.00  0.00    +0.000 A 
ATOM     13  C   UNL     1      -1.426  13.071  20.666  0.00  0.00    +0.000 A 
ATOM     14  C   UNL     1      -1.572  12.935  22.039  0.00  0.00    +0.000 A 
ATOM     15  C   UNL     1      -1.013  11.837  22.686  0.00  0.00    +0.000 A 
ATOM     16  C   UNL     1      -0.308  10.867  21.958  0.00  0.00    +0.000 A 
ENDBRANCH   1   7
BRANCH   1  17
ATOM     17  C   UNL     1       2.815   5.725  18.777  0.00  0.00    +0.000 C 
BRANCH  17  18
ATOM     18  C   UNL     1       4.045   5.454  19.642  0.00  0.00    +0.000 C 
BRANCH  18  19
ATOM     19  N   UNL     1       4.968   4.495  18.997  0.00  0.00    +0.000 NA
ATOM     20  C   UNL     1       4.493   4.159  17.634  0.00  0.00    +0.000 C 
ATOM     21  C   UNL     1       4.757   5.252  16.561  0.00  0.00    +0.000 C 
ATOM     22  N   UNL     1       6.149   5.768  16.524  0.00  0.00    +0.000 NA
ATOM     23  C   UNL     1       6.510   6.169  17.898  0.00  0.00    +0.000 C 
ATOM     24  C   UNL     1       6.355   5.011  18.907  0.00  0.00    +0.000 C 
BRANCH  22  25
ATOM     25  C   UNL     1       7.064   4.740  15.973  0.00  0.00    +0.000 C 
BRANCH  25  26
ATOM     26  C   UNL     1       6.951   4.544  14.473  0.00  0.00    +0.000 A 
ATOM     27  C   UNL     1       6.097   3.569  13.930  0.00  0.00    +0.000 A 
ATOM     28  C   UNL     1       6.076   3.332  12.552  0.00  0.00    +0.000 A 
ATOM     29  C   UNL     1       6.868   4.100  11.705  0.00  0.00    +0.000 A 
ATOM     30  C   UNL     1       7.668   5.115  12.224  0.00  0.00    +0.000 A 
ATOM     31  C   UNL     1       7.716   5.331  13.604  0.00  0.00    +0.000 A 
ENDBRANCH  25  26
ENDBRANCH  22  25
ENDBRANCH  18  19
ENDBRANCH  17  18
ENDBRANCH   1  17
TORSDOF 6
ENDMDL
MODEL 8
REMARK VINA RESULT:      -8.3      7.143     11.421
REMARK  Name = 
REMARK  6 active torsions:
REMARK  status: ('A' for Active; 'I' for Inactive)
REMARK    1  A    between atoms: C_6  and  O_7
REMARK    2  A    between atoms: O_7  and  C_8
REMARK    3  A    between atoms: C_8  and  C_9
REMARK    4  A    between atoms: C_9  and  N_10
REMARK    5  A    between atoms: N_13  and  C_14
REMARK    6  A    between atoms: C_14  and  C_15
REMARK                            x       y       z     vdW  Elec       q    Type
REMARK                         _______ _______ _______ _____ _____    ______ ____
ROOT
ATOM      1  O   UNL     1       0.854   8.267  20.865  0.00  0.00    +0.000 OA
ENDROOT
BRANCH   1   7
ATOM      2  O   UNL     1       4.400   2.565  18.947  0.00  0.00    +0.000 OA
ATOM      3  C   UNL     1       4.124   3.737  18.690  0.00  0.00    +0.000 A 
ATOM      4  O   UNL     1       3.326   4.491  19.531  0.00  0.00    +0.000 OA
ATOM      5  C   UNL     1       2.981   5.826  19.252  0.00  0.00    +0.000 A 
ATOM      6  C   UNL     1       2.130   6.444  20.169  0.00  0.00    +0.000 A 
ATOM      7  C   UNL     1       1.729   7.754  19.945  0.00  0.00    +0.000 A 
ATOM      8  C   UNL     1       2.216   8.434  18.825  0.00  0.00    +0.000 A 
ATOM      9  C   UNL     1       3.068   7.802  17.921  0.00  0.00    +0.000 A 
ATOM     10  C   UNL     1       3.460   6.473  18.110  0.00  0.00    +0.000 A 
ATOM     11  C   UNL     1       4.314   5.735  17.182  0.00  0.00    +0.000 A 
ATOM     12  C   UNL     1       4.827   6.298  15.997  0.00  0.00    +0.000 A 
ATOM     13  C   UNL     1       5.632   5.558  15.131  0.00  0.00    +0.000 A 
ATOM     14  C   UNL     1       5.942   4.239  15.426  0.00  0.00    +0.000 A 
ATOM     15  C   UNL     1       5.443   3.658  16.589  0.00  0.00    +0.000 A 
ATOM     16  C   UNL     1       4.634   4.401  17.463  0.00  0.00    +0.000 A 
ENDBRANCH   1   7
BRANCH   1  17
ATOM     17  C   UNL     1       0.994   9.672  21.059  0.00  0.00    +0.000 C 
BRANCH  17  18
ATOM     18  C   UNL     1      -0.218  10.421  20.508  0.00  0.00    +0.000 C 
BRANCH  18  19
ATOM     19  N   UNL     1      -0.308  11.793  21.054  0.00  0.00    +0.000 NA
ATOM     20  C   UNL     1       0.964  12.520  20.831  0.00  0.00    +0.000 C 
ATOM     21  C   UNL     1       1.181  13.031  19.379  0.00  0.00    +0.000 C 
ATOM     22  N   UNL     1       0.035  13.779  18.802  0.00  0.00    +0.000 NA
ATOM     23  C   UNL     1      -1.172  12.946  18.978  0.00  0.00    +0.000 C 
ATOM     24  C   UNL     1      -1.418  12.573  20.454  0.00  0.00    +0.000 C 
BRANCH  22  25
ATOM     25  C   UNL     1      -0.092  15.106  19.450  0.00  0.00    +0.000 C 
BRANCH  25  26
ATOM     26  C   UNL     1       0.314  16.271  18.567  0.00  0.00    +0.000 A 
ATOM     27  C   UNL     1      -0.644  17.150  18.036  0.00  0.00    +0.000 A 
ATOM     28  C   UNL     1      -0.266  18.159  17.145  0.00  0.00    +0.000 A 
ATOM     29  C   UNL     1       1.076  18.330  16.820  0.00  0.00    +0.000 A 
ATOM     30  C   UNL     1       2.044  17.509  17.393  0.00  0.00    +0.000 A 
ATOM     31  C   UNL     1       1.664  16.478  18.257  0.00  0.00    +0.000 A 
ENDBRANCH  25  26
ENDBRANCH  22  25
ENDBRANCH  18  19
ENDBRANCH  17  18
ENDBRANCH   1  17
TORSDOF 6
ENDMDL
MODEL 9
REMARK VINA RESULT:      -8.3      1.379      1.432
REMARK  Name = 
REMARK  6 active torsions:
REMARK  status: ('A' for Active; 'I' for Inactive)
REMARK    1  A    between atoms: C_6  and  O_7
REMARK    2  A    between atoms: O_7  and  C_8
REMARK    3  A    between atoms: C_8  and  C_9
REMARK    4  A    between atoms: C_9  and  N_10
REMARK    5  A    between atoms: N_13  and  C_14
REMARK    6  A    between atoms: C_14  and  C_15
REMARK                            x       y       z     vdW  Elec       q    Type
REMARK                         _______ _______ _______ _____ _____    ______ ____
ROOT
ATOM      1  O   UNL     1       9.262   9.200  18.814  0.00  0.00    +0.000 OA
ENDROOT
BRANCH   1   7
ATOM      2  O   UNL     1       8.673  16.017  17.420  0.00  0.00    +0.000 OA
ATOM      3  C   UNL     1       8.820  15.156  18.287  0.00  0.00    +0.000 A 
ATOM      4  O   UNL     1       8.935  13.817  17.962  0.00  0.00    +0.000 OA
ATOM      5  C   UNL     1       9.087  12.811  18.933  0.00  0.00    +0.000 A 
ATOM      6  C   UNL     1       9.142  11.501  18.456  0.00  0.00    +0.000 A 
ATOM      7  C   UNL     1       9.267  10.456  19.361  0.00  0.00    +0.000 A 
ATOM      8  C   UNL     1       9.371  10.743  20.725  0.00  0.00    +0.000 A 
ATOM      9  C   UNL     1       9.317  12.059  21.183  0.00  0.00    +0.000 A 
ATOM     10  C   UNL     1       9.159  13.125  20.292  0.00  0.00    +0.000 A 
ATOM     11  C   UNL     1       9.050  14.523  20.705  0.00  0.00    +0.000 A 
ATOM     12  C   UNL     1       9.094  14.932  22.052  0.00  0.00    +0.000 A 
ATOM     13  C   UNL     1       8.978  16.275  22.408  0.00  0.00    +0.000 A 
ATOM     14  C   UNL     1       8.814  17.242  21.426  0.00  0.00    +0.000 A 
ATOM     15  C   UNL     1       8.763  16.863  20.088  0.00  0.00    +0.000 A 
ATOM     16  C   UNL     1       8.882  15.512  19.728  0.00  0.00    +0.000 A 
ENDBRANCH   1   7
BRANCH   1  17
ATOM     17  C   UNL     1       8.116   8.938  18.009  0.00  0.00    +0.000 C 
BRANCH  17  18
ATOM     18  C   UNL     1       7.884   7.435  17.862  0.00  0.00    +0.000 C 
BRANCH  18  19
ATOM     19  N   UNL     1       6.679   7.142  17.057  0.00  0.00    +0.000 NA
ATOM     20  C   UNL     1       6.952   6.042  16.103  0.00  0.00    +0.000 C 
ATOM     21  C   UNL     1       6.970   4.620  16.732  0.00  0.00    +0.000 C 
ATOM     22  N   UNL     1       5.800   4.301  17.588  0.00  0.00    +0.000 NA
ATOM     23  C   UNL     1       5.656   5.395  18.569  0.00  0.00    +0.000 C 
ATOM     24  C   UNL     1       5.510   6.774  17.892  0.00  0.00    +0.000 C 
BRANCH  22  25
ATOM     25  C   UNL     1       4.587   4.121  16.756  0.00  0.00    +0.000 C 
BRANCH  25  26
ATOM     26  C   UNL     1       3.394   3.560  17.506  0.00  0.00    +0.000 A 
ATOM     27  C   UNL     1       3.407   2.252  18.020  0.00  0.00    +0.000 A 
ATOM     28  C   UNL     1       2.266   1.713  18.622  0.00  0.00    +0.000 A 
ATOM     29  C   UNL     1       1.122   2.494  18.761  0.00  0.00    +0.000 A 
ATOM     30  C   UNL     1       1.118   3.814  18.318  0.00  0.00    +0.000 A 
ATOM     31  C   UNL     1       2.247   4.343  17.685  0.00  0.00    +0.000 A 
ENDBRANCH  25  26
ENDBRANCH  22  25
ENDBRANCH  18  19
ENDBRANCH  17  18
ENDBRANCH   1  17
TORSDOF 6
ENDMDL
