MODEL 1
REMARK VINA RESULT:      -6.8      0.000      0.000
REMARK  Name = 
REMARK  4 active torsions:
REMARK  status: ('A' for Active; 'I' for Inactive)
REMARK    1  A    between atoms: C_1  and  C_2
REMARK    2  A    between atoms: C_4  and  C_5
REMARK    3  A    between atoms: N_12  and  C_13
REMARK    4  A    between atoms: C_16  and  C_17
REMARK                            x       y       z     vdW  Elec       q    Type
REMARK                         _______ _______ _______ _____ _____    ______ ____
ROOT
ATOM      1  C   UNL     1      -0.622   8.656  21.946  0.00  0.00    +0.000 C 
ATOM      2  C   UNL     1       0.458   8.342  20.954  0.00  0.00    +0.000 A 
ATOM      3  C   UNL     1       0.769   9.222  19.919  0.00  0.00    +0.000 A 
ATOM      4  C   UNL     1       1.779   8.913  18.984  0.00  0.00    +0.000 A 
ATOM      5  C   UNL     1       2.065   9.895  17.878  0.00  0.00    +0.000 C 
ATOM      6  C   UNL     1       2.501   7.712  19.070  0.00  0.00    +0.000 A 
ATOM      7  N   UNL     1       3.456   7.388  18.166  0.00  0.00    +0.000 NA
ATOM      8  C   UNL     1       4.140   6.214  18.247  0.00  0.00    +0.000 A 
ATOM      9  N   UNL     1       4.988   5.889  17.203  0.00  0.00    +0.000 N 
ATOM     10  C   UNL     1       4.808   6.598  15.924  0.00  0.00    +0.000 C 
ATOM     11  C   UNL     1       5.299   5.674  14.780  0.00  0.00    +0.000 C 
ATOM     12  N   UNL     1       6.707   5.244  14.963  0.00  0.00    +0.000 NA
ATOM     13  C   UNL     1       7.121   4.347  13.889  0.00  0.00    +0.000 C 
ATOM     14  C   UNL     1       6.846   4.581  16.283  0.00  0.00    +0.000 C 
ATOM     15  C   UNL     1       6.392   5.509  17.437  0.00  0.00    +0.000 C 
ATOM     16  C   UNL     1       3.869   5.318  19.289  0.00  0.00    +0.000 A 
ATOM     17  C   UNL     1       2.890   5.644  20.229  0.00  0.00    +0.000 A 
ATOM     18  C   UNL     1       2.183   6.840  20.128  0.00  0.00    +0.000 A 
ATOM     19  C   UNL     1       1.172   7.149  21.051  0.00  0.00    +0.000 A 
ENDROOT
BRANCH  16  20
ATOM     20  C   UNL     1       4.483   4.023  19.392  0.00  0.00    +0.000 C 
ATOM     21  N   UNL     1       4.938   2.960  19.488  0.00  0.00    +0.000 NA
ENDBRANCH  16  20
TORSDOF 1
ENDMDL
MODEL 2
REMARK VINA RESULT:      -6.5      2.578      6.590
REMARK  Name = 
REMARK  4 active torsions:
REMARK  status: ('A' for Active; 'I' for Inactive)
REMARK    1  A    between atoms: C_1  and  C_2
REMARK    2  A    between atoms: C_4  and  C_5
REMARK    3  A    between atoms: N_12  and  C_13
REMARK    4  A    between atoms: C_16  and  C_17
REMARK                            x       y       z     vdW  Elec       q    Type
REMARK                         _______ _______ _______ _____ _____    ______ ____
ROOT
ATOM      1  C   UNL     1       4.433   2.910  19.610  0.00  0.00    +0.000 C 
ATOM      2  C   UNL     1       3.904   4.275  19.285  0.00  0.00    +0.000 A 
ATOM      3  C   UNL     1       4.304   4.952  18.134  0.00  0.00    +0.000 A 
ATOM      4  C   UNL     1       3.810   6.240  17.842  0.00  0.00    +0.000 A 
ATOM      5  C   UNL     1       4.286   6.931  16.592  0.00  0.00    +0.000 C 
ATOM      6  C   UNL     1       2.899   6.876  18.701  0.00  0.00    +0.000 A 
ATOM      7  N   UNL     1       2.434   8.124  18.449  0.00  0.00    +0.000 NA
ATOM      8  C   UNL     1       1.565   8.740  19.295  0.00  0.00    +0.000 A 
ATOM      9  N   UNL     1       1.256  10.067  19.048  0.00  0.00    +0.000 N 
ATOM     10  C   UNL     1       2.157  10.829  18.166  0.00  0.00    +0.000 C 
ATOM     11  C   UNL     1       2.078  12.326  18.564  0.00  0.00    +0.000 C 
ATOM     12  N   UNL     1       0.694  12.855  18.507  0.00  0.00    +0.000 NA
ATOM     13  C   UNL     1       0.653  14.254  18.924  0.00  0.00    +0.000 C 
ATOM     14  C   UNL     1      -0.181  12.025  19.371  0.00  0.00    +0.000 C 
ATOM     15  C   UNL     1      -0.139  10.533  18.959  0.00  0.00    +0.000 C 
ATOM     16  C   UNL     1       1.123   8.078  20.448  0.00  0.00    +0.000 A 
ATOM     17  C   UNL     1       1.592   6.791  20.714  0.00  0.00    +0.000 A 
ATOM     18  C   UNL     1       2.496   6.175  19.852  0.00  0.00    +0.000 A 
ATOM     19  C   UNL     1       2.997   4.896  20.141  0.00  0.00    +0.000 A 
ENDROOT
BRANCH  16  20
ATOM     20  C   UNL     1       0.278   8.694  21.433  0.00  0.00    +0.000 C 
ATOM     21  N   UNL     1      -0.419   9.150  22.241  0.00  0.00    +0.000 NA
ENDBRANCH  16  20
TORSDOF 1
ENDMDL
MODEL 3
REMARK VINA RESULT:      -6.2      3.309      7.075
REMARK  Name = 
REMARK  4 active torsions:
REMARK  status: ('A' for Active; 'I' for Inactive)
REMARK    1  A    between atoms: C_1  and  C_2
REMARK    2  A    between atoms: C_4  and  C_5
REMARK    3  A    between atoms: N_12  and  C_13
REMARK    4  A    between atoms: C_16  and  C_17
REMARK                            x       y       z     vdW  Elec       q    Type
REMARK                         _______ _______ _______ _____ _____    ______ ____
ROOT
ATOM      1  C   UNL     1       2.998   3.521  20.288  0.00  0.00    +0.000 C 
ATOM      2  C   UNL     1       2.670   4.943  19.939  0.00  0.00    +0.000 A 
ATOM      3  C   UNL     1       3.158   5.534  18.775  0.00  0.00    +0.000 A 
ATOM      4  C   UNL     1       2.854   6.875  18.461  0.00  0.00    +0.000 A 
ATOM      5  C   UNL     1       3.418   7.467  17.197  0.00  0.00    +0.000 C 
ATOM      6  C   UNL     1       2.048   7.651  19.310  0.00  0.00    +0.000 A 
ATOM      7  N   UNL     1       1.767   8.948  19.036  0.00  0.00    +0.000 NA
ATOM      8  C   UNL     1       1.000   9.698  19.873  0.00  0.00    +0.000 A 
ATOM      9  N   UNL     1       0.885  11.051  19.603  0.00  0.00    +0.000 N 
ATOM     10  C   UNL     1       1.882  11.659  18.705  0.00  0.00    +0.000 C 
ATOM     11  C   UNL     1       2.022  13.158  19.076  0.00  0.00    +0.000 C 
ATOM     12  N   UNL     1       0.728  13.881  19.011  0.00  0.00    +0.000 NA
ATOM     13  C   UNL     1       0.892  15.278  19.403  0.00  0.00    +0.000 C 
ATOM     14  C   UNL     1      -0.253  13.202  19.892  0.00  0.00    +0.000 C 
ATOM     15  C   UNL     1      -0.429  11.712  19.508  0.00  0.00    +0.000 C 
ATOM     16  C   UNL     1       0.472   9.127  21.038  0.00  0.00    +0.000 A 
ATOM     17  C   UNL     1       0.752   7.791  21.327  0.00  0.00    +0.000 A 
ATOM     18  C   UNL     1       1.553   7.035  20.474  0.00  0.00    +0.000 A 
ATOM     19  C   UNL     1       1.866   5.703  20.786  0.00  0.00    +0.000 A 
ENDROOT
BRANCH  16  20
ATOM     20  C   UNL     1      -0.270   9.877  22.014  0.00  0.00    +0.000 C 
ATOM     21  N   UNL     1      -0.856  10.451  22.834  0.00  0.00    +0.000 NA
ENDBRANCH  16  20
TORSDOF 1
ENDMDL
MODEL 4
REMARK VINA RESULT:      -6.2      3.907      7.602
REMARK  Name = 
REMARK  4 active torsions:
REMARK  status: ('A' for Active; 'I' for Inactive)
REMARK    1  A    between atoms: C_1  and  C_2
REMARK    2  A    between atoms: C_4  and  C_5
REMARK    3  A    between atoms: N_12  and  C_13
REMARK    4  A    between atoms: C_16  and  C_17
REMARK                            x       y       z     vdW  Elec       q    Type
REMARK                         _______ _______ _______ _____ _____    ______ ____
ROOT
ATOM      1  C   UNL     1       2.217   4.396  20.770  0.00  0.00    +0.000 C 
ATOM      2  C   UNL     1       1.989   5.823  20.369  0.00  0.00    +0.000 A 
ATOM      3  C   UNL     1       2.483   6.326  19.167  0.00  0.00    +0.000 A 
ATOM      4  C   UNL     1       2.274   7.672  18.803  0.00  0.00    +0.000 A 
ATOM      5  C   UNL     1       2.841   8.166  17.498  0.00  0.00    +0.000 C 
ATOM      6  C   UNL     1       1.559   8.544  19.641  0.00  0.00    +0.000 A 
ATOM      7  N   UNL     1       1.372   9.847  19.320  0.00  0.00    +0.000 NA
ATOM      8  C   UNL     1       0.694  10.690  20.146  0.00  0.00    +0.000 A 
ATOM      9  N   UNL     1       0.676  12.035  19.820  0.00  0.00    +0.000 N 
ATOM     10  C   UNL     1       1.686  12.525  18.867  0.00  0.00    +0.000 C 
ATOM     11  C   UNL     1       1.955  14.022  19.168  0.00  0.00    +0.000 C 
ATOM     12  N   UNL     1       0.720  14.842  19.110  0.00  0.00    +0.000 NA
ATOM     13  C   UNL     1       1.006  16.236  19.435  0.00  0.00    +0.000 C 
ATOM     14  C   UNL     1      -0.281  14.279  20.049  0.00  0.00    +0.000 C 
ATOM     15  C   UNL     1      -0.585  12.793  19.735  0.00  0.00    +0.000 C 
ATOM     16  C   UNL     1       0.162  10.211  21.350  0.00  0.00    +0.000 A 
ATOM     17  C   UNL     1       0.347   8.869  21.688  0.00  0.00    +0.000 A 
ATOM     18  C   UNL     1       1.057   8.018  20.846  0.00  0.00    +0.000 A 
ATOM     19  C   UNL     1       1.275   6.680  21.206  0.00  0.00    +0.000 A 
ENDROOT
BRANCH  16  20
ATOM     20  C   UNL     1      -0.487  11.056  22.313  0.00  0.00    +0.000 C 
ATOM     21  N   UNL     1      -1.031  11.762  23.056  0.00  0.00    +0.000 NA
ENDBRANCH  16  20
TORSDOF 1
ENDMDL
MODEL 5
REMARK VINA RESULT:      -6.2      7.861     10.955
REMARK  Name = 
REMARK  4 active torsions:
REMARK  status: ('A' for Active; 'I' for Inactive)
REMARK    1  A    between atoms: C_1  and  C_2
REMARK    2  A    between atoms: C_4  and  C_5
REMARK    3  A    between atoms: N_12  and  C_13
REMARK    4  A    between atoms: C_16  and  C_17
REMARK                            x       y       z     vdW  Elec       q    Type
REMARK                         _______ _______ _______ _____ _____    ______ ____
ROOT
ATOM      1  C   UNL     1      -3.029  10.007  14.454  0.00  0.00    +0.000 C 
ATOM      2  C   UNL     1      -3.289  10.597  15.808  0.00  0.00    +0.000 A 
ATOM      3  C   UNL     1      -4.544  11.097  16.151  0.00  0.00    +0.000 A 
ATOM      4  C   UNL     1      -4.777  11.661  17.423  0.00  0.00    +0.000 A 
ATOM      5  C   UNL     1      -6.149  12.197  17.736  0.00  0.00    +0.000 C 
ATOM      6  C   UNL     1      -3.752  11.731  18.381  0.00  0.00    +0.000 A 
ATOM      7  N   UNL     1      -3.951  12.293  19.597  0.00  0.00    +0.000 NA
ATOM      8  C   UNL     1      -2.948  12.374  20.513  0.00  0.00    +0.000 A 
ATOM      9  N   UNL     1      -3.188  13.095  21.670  0.00  0.00    +0.000 N 
ATOM     10  C   UNL     1      -4.320  14.037  21.670  0.00  0.00    +0.000 C 
ATOM     11  C   UNL     1      -4.009  15.173  22.679  0.00  0.00    +0.000 C 
ATOM     12  N   UNL     1      -3.737  14.660  24.044  0.00  0.00    +0.000 NA
ATOM     13  C   UNL     1      -3.412  15.752  24.956  0.00  0.00    +0.000 C 
ATOM     14  C   UNL     1      -2.625  13.679  23.983  0.00  0.00    +0.000 C 
ATOM     15  C   UNL     1      -2.941  12.520  23.004  0.00  0.00    +0.000 C 
ATOM     16  C   UNL     1      -1.681  11.858  20.210  0.00  0.00    +0.000 A 
ATOM     17  C   UNL     1      -1.467  11.274  18.961  0.00  0.00    +0.000 A 
ATOM     18  C   UNL     1      -2.495  11.212  18.023  0.00  0.00    +0.000 A 
ATOM     19  C   UNL     1      -2.267  10.659  16.753  0.00  0.00    +0.000 A 
ENDROOT
BRANCH  16  20
ATOM     20  C   UNL     1      -0.551  11.985  21.087  0.00  0.00    +0.000 C 
ATOM     21  N   UNL     1       0.336  12.113  21.825  0.00  0.00    +0.000 NA
ENDBRANCH  16  20
TORSDOF 1
ENDMDL
MODEL 6
REMARK VINA RESULT:      -6.1      3.100      7.228
REMARK  Name = 
REMARK  4 active torsions:
REMARK  status: ('A' for Active; 'I' for Inactive)
REMARK    1  A    between atoms: C_1  and  C_2
REMARK    2  A    between atoms: C_4  and  C_5
REMARK    3  A    between atoms: N_12  and  C_13
REMARK    4  A    between atoms: C_16  and  C_17
REMARK                            x       y       z     vdW  Elec       q    Type
REMARK                         _______ _______ _______ _____ _____    ______ ____
ROOT
ATOM      1  C   UNL     1       3.772   1.831  17.567  0.00  0.00    +0.000 C 
ATOM      2  C   UNL     1       3.297   2.986  18.397  0.00  0.00    +0.000 A 
ATOM      3  C   UNL     1       2.907   2.812  19.724  0.00  0.00    +0.000 A 
ATOM      4  C   UNL     1       2.452   3.902  20.494  0.00  0.00    +0.000 A 
ATOM      5  C   UNL     1       2.031   3.656  21.919  0.00  0.00    +0.000 C 
ATOM      6  C   UNL     1       2.380   5.194  19.947  0.00  0.00    +0.000 A 
ATOM      7  N   UNL     1       1.920   6.247  20.664  0.00  0.00    +0.000 NA
ATOM      8  C   UNL     1       1.837   7.492  20.121  0.00  0.00    +0.000 A 
ATOM      9  N   UNL     1       1.217   8.480  20.866  0.00  0.00    +0.000 N 
ATOM     10  C   UNL     1       0.354   8.059  21.983  0.00  0.00    +0.000 C 
ATOM     11  C   UNL     1      -0.726   9.150  22.203  0.00  0.00    +0.000 C 
ATOM     12  N   UNL     1      -0.137  10.488  22.454  0.00  0.00    +0.000 NA
ATOM     13  C   UNL     1      -1.182  11.494  22.618  0.00  0.00    +0.000 C 
ATOM     14  C   UNL     1       0.760  10.844  21.327  0.00  0.00    +0.000 C 
ATOM     15  C   UNL     1       1.866   9.778  21.121  0.00  0.00    +0.000 C 
ATOM     16  C   UNL     1       2.245   7.706  18.798  0.00  0.00    +0.000 A 
ATOM     17  C   UNL     1       2.724   6.629  18.052  0.00  0.00    +0.000 A 
ATOM     18  C   UNL     1       2.788   5.354  18.610  0.00  0.00    +0.000 A 
ATOM     19  C   UNL     1       3.234   4.265  17.847  0.00  0.00    +0.000 A 
ENDROOT
BRANCH  16  20
ATOM     20  C   UNL     1       2.105   8.969  18.128  0.00  0.00    +0.000 C 
ATOM     21  N   UNL     1       2.006   9.968  17.547  0.00  0.00    +0.000 NA
ENDBRANCH  16  20
TORSDOF 1
ENDMDL
MODEL 7
REMARK VINA RESULT:      -5.8      8.355     11.643
REMARK  Name = 
REMARK  4 active torsions:
REMARK  status: ('A' for Active; 'I' for Inactive)
REMARK    1  A    between atoms: C_1  and  C_2
REMARK    2  A    between atoms: C_4  and  C_5
REMARK    3  A    between atoms: N_12  and  C_13
REMARK    4  A    between atoms: C_16  and  C_17
REMARK                            x       y       z     vdW  Elec       q    Type
REMARK                         _______ _______ _______ _____ _____    ______ ____
ROOT
ATOM      1  C   UNL     1      -2.686   9.833  15.238  0.00  0.00    +0.000 C 
ATOM      2  C   UNL     1      -3.144  10.557  16.470  0.00  0.00    +0.000 A 
ATOM      3  C   UNL     1      -4.465  10.976  16.614  0.00  0.00    +0.000 A 
ATOM      4  C   UNL     1      -4.885  11.665  17.770  0.00  0.00    +0.000 A 
ATOM      5  C   UNL     1      -6.321  12.107  17.868  0.00  0.00    +0.000 C 
ATOM      6  C   UNL     1      -3.984  11.946  18.811  0.00  0.00    +0.000 A 
ATOM      7  N   UNL     1      -4.364  12.630  19.917  0.00  0.00    +0.000 NA
ATOM      8  C   UNL     1      -3.480  12.913  20.913  0.00  0.00    +0.000 A 
ATOM      9  N   UNL     1      -3.906  13.743  21.935  0.00  0.00    +0.000 N 
ATOM     10  C   UNL     1      -5.101  14.571  21.695  0.00  0.00    +0.000 C 
ATOM     11  C   UNL     1      -4.997  15.844  22.574  0.00  0.00    +0.000 C 
ATOM     12  N   UNL     1      -4.843  15.527  24.015  0.00  0.00    +0.000 NA
ATOM     13  C   UNL     1      -4.711  16.747  24.806  0.00  0.00    +0.000 C 
ATOM     14  C   UNL     1      -3.658  14.653  24.197  0.00  0.00    +0.000 C 
ATOM     15  C   UNL     1      -3.767  13.360  23.351  0.00  0.00    +0.000 C 
ATOM     16  C   UNL     1      -2.151  12.484  20.811  0.00  0.00    +0.000 A 
ATOM     17  C   UNL     1      -1.750  11.775  19.677  0.00  0.00    +0.000 A 
ATOM     18  C   UNL     1      -2.657  11.505  18.655  0.00  0.00    +0.000 A 
ATOM     19  C   UNL     1      -2.243  10.827  17.498  0.00  0.00    +0.000 A 
ENDROOT
BRANCH  16  20
ATOM     20  C   UNL     1      -1.141  12.820  21.776  0.00  0.00    +0.000 C 
ATOM     21  N   UNL     1      -0.319  13.132  22.533  0.00  0.00    +0.000 NA
ENDBRANCH  16  20
TORSDOF 1
ENDMDL
MODEL 8
REMARK VINA RESULT:      -5.8      6.616     11.263
REMARK  Name = 
REMARK  4 active torsions:
REMARK  status: ('A' for Active; 'I' for Inactive)
REMARK    1  A    between atoms: C_1  and  C_2
REMARK    2  A    between atoms: C_4  and  C_5
REMARK    3  A    between atoms: N_12  and  C_13
REMARK    4  A    between atoms: C_16  and  C_17
REMARK                            x       y       z     vdW  Elec       q    Type
REMARK                         _______ _______ _______ _____ _____    ______ ____
ROOT
ATOM      1  C   UNL     1       1.520   9.118  17.755  0.00  0.00    +0.000 C 
ATOM      2  C   UNL     1       0.493   9.961  18.451  0.00  0.00    +0.000 A 
ATOM      3  C   UNL     1       0.793  10.643  19.628  0.00  0.00    +0.000 A 
ATOM      4  C   UNL     1      -0.182  11.425  20.282  0.00  0.00    +0.000 A 
ATOM      5  C   UNL     1       0.193  12.131  21.558  0.00  0.00    +0.000 C 
ATOM      6  C   UNL     1      -1.482  11.540  19.763  0.00  0.00    +0.000 A 
ATOM      7  N   UNL     1      -2.438  12.266  20.392  0.00  0.00    +0.000 NA
ATOM      8  C   UNL     1      -3.701  12.358  19.893  0.00  0.00    +0.000 A 
ATOM      9  N   UNL     1      -4.656  12.990  20.670  0.00  0.00    +0.000 N 
ATOM     10  C   UNL     1      -4.373  13.159  22.105  0.00  0.00    +0.000 C 
ATOM     11  C   UNL     1      -5.722  13.206  22.867  0.00  0.00    +0.000 C 
ATOM     12  N   UNL     1      -6.619  14.276  22.366  0.00  0.00    +0.000 NA
ATOM     13  C   UNL     1      -7.892  14.265  23.080  0.00  0.00    +0.000 C 
ATOM     14  C   UNL     1      -6.833  14.090  20.910  0.00  0.00    +0.000 C 
ATOM     15  C   UNL     1      -5.492  14.078  20.133  0.00  0.00    +0.000 C 
ATOM     16  C   UNL     1      -4.029  11.705  18.697  0.00  0.00    +0.000 A 
ATOM     17  C   UNL     1      -3.050  10.959  18.040  0.00  0.00    +0.000 A 
ATOM     18  C   UNL     1      -1.765  10.855  18.568  0.00  0.00    +0.000 A 
ATOM     19  C   UNL     1      -0.793  10.073  17.926  0.00  0.00    +0.000 A 
ENDROOT
BRANCH  16  20
ATOM     20  C   UNL     1      -5.359  11.682  18.155  0.00  0.00    +0.000 C 
ATOM     21  N   UNL     1      -6.419  11.629  17.688  0.00  0.00    +0.000 NA
ENDBRANCH  16  20
TORSDOF 1
ENDMDL
MODEL 9
REMARK VINA RESULT:      -5.8      2.219      4.297
REMARK  Name = 
REMARK  4 active torsions:
REMARK  status: ('A' for Active; 'I' for Inactive)
REMARK    1  A    between atoms: C_1  and  C_2
REMARK    2  A    between atoms: C_4  and  C_5
REMARK    3  A    between atoms: N_12  and  C_13
REMARK    4  A    between atoms: C_16  and  C_17
REMARK                            x       y       z     vdW  Elec       q    Type
REMARK                         _______ _______ _______ _____ _____    ______ ____
ROOT
ATOM      1  C   UNL     1       0.312  13.148  19.660  0.00  0.00    +0.000 C 
ATOM      2  C   UNL     1       0.580  11.674  19.715  0.00  0.00    +0.000 A 
ATOM      3  C   UNL     1      -0.021  10.863  20.676  0.00  0.00    +0.000 A 
ATOM      4  C   UNL     1       0.246   9.480  20.727  0.00  0.00    +0.000 A 
ATOM      5  C   UNL     1      -0.421   8.653  21.794  0.00  0.00    +0.000 C 
ATOM      6  C   UNL     1       1.123   8.878  19.808  0.00  0.00    +0.000 A 
ATOM      7  N   UNL     1       1.410   7.556  19.859  0.00  0.00    +0.000 NA
ATOM      8  C   UNL     1       2.275   6.984  18.977  0.00  0.00    +0.000 A 
ATOM      9  N   UNL     1       2.632   5.664  19.189  0.00  0.00    +0.000 N 
ATOM     10  C   UNL     1       2.393   5.093  20.525  0.00  0.00    +0.000 C 
ATOM     11  C   UNL     1       3.429   3.964  20.766  0.00  0.00    +0.000 C 
ATOM     12  N   UNL     1       3.379   2.916  19.717  0.00  0.00    +0.000 NA
ATOM     13  C   UNL     1       4.392   1.892  19.955  0.00  0.00    +0.000 C 
ATOM     14  C   UNL     1       3.575   3.548  18.389  0.00  0.00    +0.000 C 
ATOM     15  C   UNL     1       2.523   4.653  18.122  0.00  0.00    +0.000 C 
ATOM     16  C   UNL     1       2.877   7.766  17.983  0.00  0.00    +0.000 A 
ATOM     17  C   UNL     1       2.584   9.129  17.919  0.00  0.00    +0.000 A 
ATOM     18  C   UNL     1       1.712   9.708  18.837  0.00  0.00    +0.000 A 
ATOM     19  C   UNL     1       1.449  11.086  18.797  0.00  0.00    +0.000 A 
ENDROOT
BRANCH  16  20
ATOM     20  C   UNL     1       3.865   7.255  17.073  0.00  0.00    +0.000 C 
ATOM     21  N   UNL     1       4.676   6.812  16.372  0.00  0.00    +0.000 NA
ENDBRANCH  16  20
TORSDOF 1
ENDMDL
