MODEL 1
REMARK VINA RESULT:      -7.9      0.000      0.000
REMARK  Name = 
REMARK  4 active torsions:
REMARK  status: ('A' for Active; 'I' for Inactive)
REMARK    1  A    between atoms: N_11  and  C_12
REMARK    2  A    between atoms: C_12  and  C_13
REMARK    3  A    between atoms: C_13  and  C_14
REMARK    4  A    between atoms: C_14  and  C_15
REMARK                            x       y       z     vdW  Elec       q    Type
REMARK                         _______ _______ _______ _____ _____    ______ ____
ROOT
ATOM      1  O   UNL     1       5.893   3.840  19.060  0.00  0.00    +0.000 OA
ATOM      2  C   UNL     1       4.802   4.380  19.022  0.00  0.00    +0.000 C 
ATOM      3  C   UNL     1       3.613   3.879  19.710  0.00  0.00    +0.000 A 
ATOM      4  C   UNL     1       3.444   2.781  20.532  0.00  0.00    +0.000 A 
ATOM      5  C   UNL     1       2.167   2.567  21.064  0.00  0.00    +0.000 A 
ATOM      6  C   UNL     1       1.103   3.443  20.764  0.00  0.00    +0.000 A 
ATOM      7  C   UNL     1       1.299   4.546  19.926  0.00  0.00    +0.000 A 
ATOM      8  C   UNL     1       2.570   4.738  19.416  0.00  0.00    +0.000 A 
ATOM      9  C   UNL     1       3.094   5.786  18.543  0.00  0.00    +0.000 C 
ATOM     10  O   UNL     1       2.424   6.696  18.089  0.00  0.00    +0.000 OA
ATOM     11  N   UNL     1       4.426   5.523  18.369  0.00  0.00    +0.000 N 
ENDROOT
BRANCH  11  12
ATOM     12  C   UNL     1       5.316   6.334  17.552  0.00  0.00    +0.000 C 
BRANCH  12  13
ATOM     13  C   UNL     1       5.118   6.059  16.061  0.00  0.00    +0.000 C 
BRANCH  13  14
ATOM     14  C   UNL     1       5.285   4.576  15.714  0.00  0.00    +0.000 C 
BRANCH  14  15
ATOM     15  C   UNL     1       6.012   4.410  14.398  0.00  0.00    +0.000 A 
ATOM     16  C   UNL     1       7.161   5.162  14.123  0.00  0.00    +0.000 A 
ATOM     17  C   UNL     1       7.795   5.066  12.882  0.00  0.00    +0.000 A 
ATOM     18  C   UNL     1       7.285   4.216  11.903  0.00  0.00    +0.000 A 
ATOM     19  C   UNL     1       6.149   3.454  12.168  0.00  0.00    +0.000 A 
ATOM     20  C   UNL     1       5.514   3.549  13.409  0.00  0.00    +0.000 A 
ENDBRANCH  14  15
ENDBRANCH  13  14
ENDBRANCH  12  13
ENDBRANCH  11  12
TORSDOF 4
ENDMDL
MODEL 2
REMARK VINA RESULT:      -7.7      0.222      1.098
REMARK  Name = 
REMARK  4 active torsions:
REMARK  status: ('A' for Active; 'I' for Inactive)
REMARK    1  A    between atoms: N_11  and  C_12
REMARK    2  A    between atoms: C_12  and  C_13
REMARK    3  A    between atoms: C_13  and  C_14
REMARK    4  A    between atoms: C_14  and  C_15
REMARK                            x       y       z     vdW  Elec       q    Type
REMARK                         _______ _______ _______ _____ _____    ______ ____
ROOT
ATOM      1  O   UNL     1       5.970   4.031  19.023  0.00  0.00    +0.000 OA
ATOM      2  C   UNL     1       4.880   4.575  19.001  0.00  0.00    +0.000 C 
ATOM      3  C   UNL     1       3.694   4.068  19.690  0.00  0.00    +0.000 A 
ATOM      4  C   UNL     1       3.528   2.959  20.499  0.00  0.00    +0.000 A 
ATOM      5  C   UNL     1       2.255   2.741  21.038  0.00  0.00    +0.000 A 
ATOM      6  C   UNL     1       1.191   3.623  20.757  0.00  0.00    +0.000 A 
ATOM      7  C   UNL     1       1.384   4.738  19.933  0.00  0.00    +0.000 A 
ATOM      8  C   UNL     1       2.652   4.932  19.415  0.00  0.00    +0.000 A 
ATOM      9  C   UNL     1       3.172   5.991  18.553  0.00  0.00    +0.000 C 
ATOM     10  O   UNL     1       2.501   6.909  18.116  0.00  0.00    +0.000 OA
ATOM     11  N   UNL     1       4.502   5.727  18.366  0.00  0.00    +0.000 N 
ENDROOT
BRANCH  11  12
ATOM     12  C   UNL     1       5.388   6.547  17.554  0.00  0.00    +0.000 C 
BRANCH  12  13
ATOM     13  C   UNL     1       5.210   6.260  16.062  0.00  0.00    +0.000 C 
BRANCH  13  14
ATOM     14  C   UNL     1       5.264   4.761  15.745  0.00  0.00    +0.000 C 
BRANCH  14  15
ATOM     15  C   UNL     1       5.883   4.520  14.387  0.00  0.00    +0.000 A 
ATOM     16  C   UNL     1       5.277   3.643  13.477  0.00  0.00    +0.000 A 
ATOM     17  C   UNL     1       5.883   3.362  12.250  0.00  0.00    +0.000 A 
ATOM     18  C   UNL     1       7.100   3.955  11.920  0.00  0.00    +0.000 A 
ATOM     19  C   UNL     1       7.706   4.837  12.812  0.00  0.00    +0.000 A 
ATOM     20  C   UNL     1       7.102   5.120  14.040  0.00  0.00    +0.000 A 
ENDBRANCH  14  15
ENDBRANCH  13  14
ENDBRANCH  12  13
ENDBRANCH  11  12
TORSDOF 4
ENDMDL
MODEL 3
REMARK VINA RESULT:      -7.7      2.163      6.317
REMARK  Name = 
REMARK  4 active torsions:
REMARK  status: ('A' for Active; 'I' for Inactive)
REMARK    1  A    between atoms: N_11  and  C_12
REMARK    2  A    between atoms: C_12  and  C_13
REMARK    3  A    between atoms: C_13  and  C_14
REMARK    4  A    between atoms: C_14  and  C_15
REMARK                            x       y       z     vdW  Elec       q    Type
REMARK                         _______ _______ _______ _____ _____    ______ ____
ROOT
ATOM      1  O   UNL     1       2.539   3.311  16.698  0.00  0.00    +0.000 OA
ATOM      2  C   UNL     1       3.565   3.690  17.234  0.00  0.00    +0.000 C 
ATOM      3  C   UNL     1       4.759   4.124  16.509  0.00  0.00    +0.000 A 
ATOM      4  C   UNL     1       4.997   4.236  15.151  0.00  0.00    +0.000 A 
ATOM      5  C   UNL     1       6.255   4.704  14.757  0.00  0.00    +0.000 A 
ATOM      6  C   UNL     1       7.234   5.042  15.714  0.00  0.00    +0.000 A 
ATOM      7  C   UNL     1       6.969   4.917  17.083  0.00  0.00    +0.000 A 
ATOM      8  C   UNL     1       5.718   4.455  17.447  0.00  0.00    +0.000 A 
ATOM      9  C   UNL     1       5.136   4.235  18.770  0.00  0.00    +0.000 C 
ATOM     10  O   UNL     1       5.729   4.420  19.817  0.00  0.00    +0.000 OA
ATOM     11  N   UNL     1       3.853   3.803  18.567  0.00  0.00    +0.000 N 
ENDROOT
BRANCH  11  12
ATOM     12  C   UNL     1       2.930   3.462  19.639  0.00  0.00    +0.000 C 
BRANCH  12  13
ATOM     13  C   UNL     1       1.877   4.551  19.843  0.00  0.00    +0.000 C 
BRANCH  13  14
ATOM     14  C   UNL     1       2.438   5.777  20.574  0.00  0.00    +0.000 C 
BRANCH  14  15
ATOM     15  C   UNL     1       2.232   7.032  19.758  0.00  0.00    +0.000 A 
ATOM     16  C   UNL     1       1.490   8.102  20.277  0.00  0.00    +0.000 A 
ATOM     17  C   UNL     1       1.236   9.234  19.500  0.00  0.00    +0.000 A 
ATOM     18  C   UNL     1       1.721   9.309  18.196  0.00  0.00    +0.000 A 
ATOM     19  C   UNL     1       2.469   8.256  17.672  0.00  0.00    +0.000 A 
ATOM     20  C   UNL     1       2.725   7.123  18.448  0.00  0.00    +0.000 A 
ENDBRANCH  14  15
ENDBRANCH  13  14
ENDBRANCH  12  13
ENDBRANCH  11  12
TORSDOF 4
ENDMDL
MODEL 4
REMARK VINA RESULT:      -7.7      1.702      6.846
REMARK  Name = 
REMARK  4 active torsions:
REMARK  status: ('A' for Active; 'I' for Inactive)
REMARK    1  A    between atoms: N_11  and  C_12
REMARK    2  A    between atoms: C_12  and  C_13
REMARK    3  A    between atoms: C_13  and  C_14
REMARK    4  A    between atoms: C_14  and  C_15
REMARK                            x       y       z     vdW  Elec       q    Type
REMARK                         _______ _______ _______ _____ _____    ______ ____
ROOT
ATOM      1  O   UNL     1       7.587   6.405  16.492  0.00  0.00    +0.000 OA
ATOM      2  C   UNL     1       6.819   5.571  16.048  0.00  0.00    +0.000 C 
ATOM      3  C   UNL     1       6.861   5.062  14.678  0.00  0.00    +0.000 A 
ATOM      4  C   UNL     1       7.724   5.347  13.637  0.00  0.00    +0.000 A 
ATOM      5  C   UNL     1       7.516   4.677  12.427  0.00  0.00    +0.000 A 
ATOM      6  C   UNL     1       6.462   3.750  12.286  0.00  0.00    +0.000 A 
ATOM      7  C   UNL     1       5.599   3.480  13.354  0.00  0.00    +0.000 A 
ATOM      8  C   UNL     1       5.828   4.154  14.540  0.00  0.00    +0.000 A 
ATOM      9  C   UNL     1       5.129   4.082  15.822  0.00  0.00    +0.000 C 
ATOM     10  O   UNL     1       4.156   3.380  16.032  0.00  0.00    +0.000 OA
ATOM     11  N   UNL     1       5.783   4.930  16.673  0.00  0.00    +0.000 N 
ENDROOT
BRANCH  11  12
ATOM     12  C   UNL     1       5.393   5.156  18.057  0.00  0.00    +0.000 C 
BRANCH  12  13
ATOM     13  C   UNL     1       4.529   6.410  18.200  0.00  0.00    +0.000 C 
BRANCH  13  14
ATOM     14  C   UNL     1       3.068   6.161  17.806  0.00  0.00    +0.000 C 
BRANCH  14  15
ATOM     15  C   UNL     1       2.421   5.163  18.740  0.00  0.00    +0.000 A 
ATOM     16  C   UNL     1       1.685   4.086  18.227  0.00  0.00    +0.000 A 
ATOM     17  C   UNL     1       1.026   3.203  19.085  0.00  0.00    +0.000 A 
ATOM     18  C   UNL     1       1.096   3.387  20.464  0.00  0.00    +0.000 A 
ATOM     19  C   UNL     1       1.834   4.448  20.986  0.00  0.00    +0.000 A 
ATOM     20  C   UNL     1       2.494   5.332  20.130  0.00  0.00    +0.000 A 
ENDBRANCH  14  15
ENDBRANCH  13  14
ENDBRANCH  12  13
ENDBRANCH  11  12
TORSDOF 4
ENDMDL
MODEL 5
REMARK VINA RESULT:      -7.6      1.750      6.801
REMARK  Name = 
REMARK  4 active torsions:
REMARK  status: ('A' for Active; 'I' for Inactive)
REMARK    1  A    between atoms: N_11  and  C_12
REMARK    2  A    between atoms: C_12  and  C_13
REMARK    3  A    between atoms: C_13  and  C_14
REMARK    4  A    between atoms: C_14  and  C_15
REMARK                            x       y       z     vdW  Elec       q    Type
REMARK                         _______ _______ _______ _____ _____    ______ ____
ROOT
ATOM      1  O   UNL     1       4.326   3.255  16.091  0.00  0.00    +0.000 OA
ATOM      2  C   UNL     1       5.244   4.015  15.843  0.00  0.00    +0.000 C 
ATOM      3  C   UNL     1       5.912   4.101  14.545  0.00  0.00    +0.000 A 
ATOM      4  C   UNL     1       5.673   3.425  13.363  0.00  0.00    +0.000 A 
ATOM      5  C   UNL     1       6.484   3.741  12.267  0.00  0.00    +0.000 A 
ATOM      6  C   UNL     1       7.503   4.711  12.377  0.00  0.00    +0.000 A 
ATOM      7  C   UNL     1       7.726   5.379  13.586  0.00  0.00    +0.000 A 
ATOM      8  C   UNL     1       6.910   5.051  14.653  0.00  0.00    +0.000 A 
ATOM      9  C   UNL     1       6.878   5.573  16.017  0.00  0.00    +0.000 C 
ATOM     10  O   UNL     1       7.642   6.419  16.444  0.00  0.00    +0.000 OA
ATOM     11  N   UNL     1       5.853   4.930  16.659  0.00  0.00    +0.000 N 
ENDROOT
BRANCH  11  12
ATOM     12  C   UNL     1       5.492   5.161  18.049  0.00  0.00    +0.000 C 
BRANCH  12  13
ATOM     13  C   UNL     1       4.642   6.422  18.209  0.00  0.00    +0.000 C 
BRANCH  13  14
ATOM     14  C   UNL     1       3.215   6.235  17.681  0.00  0.00    +0.000 C 
BRANCH  14  15
ATOM     15  C   UNL     1       2.419   5.328  18.591  0.00  0.00    +0.000 A 
ATOM     16  C   UNL     1       2.361   5.581  19.968  0.00  0.00    +0.000 A 
ATOM     17  C   UNL     1       1.686   4.706  20.824  0.00  0.00    +0.000 A 
ATOM     18  C   UNL     1       1.063   3.571  20.311  0.00  0.00    +0.000 A 
ATOM     19  C   UNL     1       1.105   3.315  18.941  0.00  0.00    +0.000 A 
ATOM     20  C   UNL     1       1.778   4.188  18.084  0.00  0.00    +0.000 A 
ENDBRANCH  14  15
ENDBRANCH  13  14
ENDBRANCH  12  13
ENDBRANCH  11  12
TORSDOF 4
ENDMDL
MODEL 6
REMARK VINA RESULT:      -7.6      1.628      6.856
REMARK  Name = 
REMARK  4 active torsions:
REMARK  status: ('A' for Active; 'I' for Inactive)
REMARK    1  A    between atoms: N_11  and  C_12
REMARK    2  A    between atoms: C_12  and  C_13
REMARK    3  A    between atoms: C_13  and  C_14
REMARK    4  A    between atoms: C_14  and  C_15
REMARK                            x       y       z     vdW  Elec       q    Type
REMARK                         _______ _______ _______ _____ _____    ______ ____
ROOT
ATOM      1  O   UNL     1       7.671   6.522  16.260  0.00  0.00    +0.000 OA
ATOM      2  C   UNL     1       6.875   5.674  15.901  0.00  0.00    +0.000 C 
ATOM      3  C   UNL     1       6.862   5.069  14.570  0.00  0.00    +0.000 A 
ATOM      4  C   UNL     1       7.697   5.262  13.485  0.00  0.00    +0.000 A 
ATOM      5  C   UNL     1       7.437   4.512  12.332  0.00  0.00    +0.000 A 
ATOM      6  C   UNL     1       6.362   3.600  12.291  0.00  0.00    +0.000 A 
ATOM      7  C   UNL     1       5.530   3.424  13.402  0.00  0.00    +0.000 A 
ATOM      8  C   UNL     1       5.809   4.175  14.529  0.00  0.00    +0.000 A 
ATOM      9  C   UNL     1       5.151   4.208  15.834  0.00  0.00    +0.000 C 
ATOM     10  O   UNL     1       4.173   3.543  16.123  0.00  0.00    +0.000 OA
ATOM     11  N   UNL     1       5.848   5.101  16.602  0.00  0.00    +0.000 N 
ENDROOT
BRANCH  11  12
ATOM     12  C   UNL     1       5.506   5.431  17.977  0.00  0.00    +0.000 C 
BRANCH  12  13
ATOM     13  C   UNL     1       4.153   6.138  18.067  0.00  0.00    +0.000 C 
BRANCH  13  14
ATOM     14  C   UNL     1       3.547   6.065  19.473  0.00  0.00    +0.000 C 
BRANCH  14  15
ATOM     15  C   UNL     1       2.526   4.953  19.562  0.00  0.00    +0.000 A 
ATOM     16  C   UNL     1       2.196   4.391  20.802  0.00  0.00    +0.000 A 
ATOM     17  C   UNL     1       1.308   3.316  20.882  0.00  0.00    +0.000 A 
ATOM     18  C   UNL     1       0.740   2.793  19.723  0.00  0.00    +0.000 A 
ATOM     19  C   UNL     1       1.052   3.351  18.484  0.00  0.00    +0.000 A 
ATOM     20  C   UNL     1       1.940   4.426  18.402  0.00  0.00    +0.000 A 
ENDBRANCH  14  15
ENDBRANCH  13  14
ENDBRANCH  12  13
ENDBRANCH  11  12
TORSDOF 4
ENDMDL
MODEL 7
REMARK VINA RESULT:      -7.6      1.630      6.903
REMARK  Name = 
REMARK  4 active torsions:
REMARK  status: ('A' for Active; 'I' for Inactive)
REMARK    1  A    between atoms: N_11  and  C_12
REMARK    2  A    between atoms: C_12  and  C_13
REMARK    3  A    between atoms: C_13  and  C_14
REMARK    4  A    between atoms: C_14  and  C_15
REMARK                            x       y       z     vdW  Elec       q    Type
REMARK                         _______ _______ _______ _____ _____    ______ ____
ROOT
ATOM      1  O   UNL     1       4.086   3.593  16.114  0.00  0.00    +0.000 OA
ATOM      2  C   UNL     1       5.060   4.274  15.849  0.00  0.00    +0.000 C 
ATOM      3  C   UNL     1       5.782   4.216  14.578  0.00  0.00    +0.000 A 
ATOM      4  C   UNL     1       5.546   3.465  13.442  0.00  0.00    +0.000 A 
ATOM      5  C   UNL     1       6.417   3.643  12.362  0.00  0.00    +0.000 A 
ATOM      6  C   UNL     1       7.490   4.555  12.441  0.00  0.00    +0.000 A 
ATOM      7  C   UNL     1       7.709   5.302  13.604  0.00  0.00    +0.000 A 
ATOM      8  C   UNL     1       6.833   5.110  14.656  0.00  0.00    +0.000 A 
ATOM      9  C   UNL     1       6.782   5.739  15.975  0.00  0.00    +0.000 C 
ATOM     10  O   UNL     1       7.581   6.569  16.368  0.00  0.00    +0.000 OA
ATOM     11  N   UNL     1       5.694   5.212  16.618  0.00  0.00    +0.000 N 
ENDROOT
BRANCH  11  12
ATOM     12  C   UNL     1       5.295   5.573  17.970  0.00  0.00    +0.000 C 
BRANCH  12  13
ATOM     13  C   UNL     1       4.003   6.392  17.975  0.00  0.00    +0.000 C 
BRANCH  13  14
ATOM     14  C   UNL     1       3.299   6.363  19.337  0.00  0.00    +0.000 C 
BRANCH  14  15
ATOM     15  C   UNL     1       2.468   5.108  19.486  0.00  0.00    +0.000 A 
ATOM     16  C   UNL     1       1.901   4.496  18.360  0.00  0.00    +0.000 A 
ATOM     17  C   UNL     1       1.074   3.379  18.500  0.00  0.00    +0.000 A 
ATOM     18  C   UNL     1       0.807   2.862  19.766  0.00  0.00    +0.000 A 
ATOM     19  C   UNL     1       1.374   3.456  20.892  0.00  0.00    +0.000 A 
ATOM     20  C   UNL     1       2.201   4.573  20.754  0.00  0.00    +0.000 A 
ENDBRANCH  14  15
ENDBRANCH  13  14
ENDBRANCH  12  13
ENDBRANCH  11  12
TORSDOF 4
ENDMDL
MODEL 8
REMARK VINA RESULT:      -7.6      2.139      6.211
REMARK  Name = 
REMARK  4 active torsions:
REMARK  status: ('A' for Active; 'I' for Inactive)
REMARK    1  A    between atoms: N_11  and  C_12
REMARK    2  A    between atoms: C_12  and  C_13
REMARK    3  A    between atoms: C_13  and  C_14
REMARK    4  A    between atoms: C_14  and  C_15
REMARK                            x       y       z     vdW  Elec       q    Type
REMARK                         _______ _______ _______ _____ _____    ______ ____
ROOT
ATOM      1  O   UNL     1       5.299   3.642  20.072  0.00  0.00    +0.000 OA
ATOM      2  C   UNL     1       4.768   3.665  18.976  0.00  0.00    +0.000 C 
ATOM      3  C   UNL     1       5.440   4.080  17.745  0.00  0.00    +0.000 A 
ATOM      4  C   UNL     1       6.743   4.484  17.523  0.00  0.00    +0.000 A 
ATOM      5  C   UNL     1       7.100   4.807  16.209  0.00  0.00    +0.000 A 
ATOM      6  C   UNL     1       6.158   4.722  15.162  0.00  0.00    +0.000 A 
ATOM      7  C   UNL     1       4.844   4.312  15.414  0.00  0.00    +0.000 A 
ATOM      8  C   UNL     1       4.517   3.996  16.720  0.00  0.00    +0.000 A 
ATOM      9  C   UNL     1       3.258   3.527  17.295  0.00  0.00    +0.000 C 
ATOM     10  O   UNL     1       2.235   3.360  16.657  0.00  0.00    +0.000 OA
ATOM     11  N   UNL     1       3.486   3.331  18.630  0.00  0.00    +0.000 N 
ENDROOT
BRANCH  11  12
ATOM     12  C   UNL     1       2.475   2.871  19.570  0.00  0.00    +0.000 C 
BRANCH  12  13
ATOM     13  C   UNL     1       1.505   3.993  19.947  0.00  0.00    +0.000 C 
BRANCH  13  14
ATOM     14  C   UNL     1       2.192   5.120  20.727  0.00  0.00    +0.000 C 
BRANCH  14  15
ATOM     15  C   UNL     1       1.985   6.452  20.042  0.00  0.00    +0.000 A 
ATOM     16  C   UNL     1       2.426   6.648  18.726  0.00  0.00    +0.000 A 
ATOM     17  C   UNL     1       2.302   7.898  18.114  0.00  0.00    +0.000 A 
ATOM     18  C   UNL     1       1.736   8.963  18.810  0.00  0.00    +0.000 A 
ATOM     19  C   UNL     1       1.285   8.777  20.116  0.00  0.00    +0.000 A 
ATOM     20  C   UNL     1       1.407   7.529  20.730  0.00  0.00    +0.000 A 
ENDBRANCH  14  15
ENDBRANCH  13  14
ENDBRANCH  12  13
ENDBRANCH  11  12
TORSDOF 4
ENDMDL
MODEL 9
REMARK VINA RESULT:      -7.5      0.603      2.269
REMARK  Name = 
REMARK  4 active torsions:
REMARK  status: ('A' for Active; 'I' for Inactive)
REMARK    1  A    between atoms: N_11  and  C_12
REMARK    2  A    between atoms: C_12  and  C_13
REMARK    3  A    between atoms: C_13  and  C_14
REMARK    4  A    between atoms: C_14  and  C_15
REMARK                            x       y       z     vdW  Elec       q    Type
REMARK                         _______ _______ _______ _____ _____    ______ ____
ROOT
ATOM      1  O   UNL     1       2.565   7.081  18.962  0.00  0.00    +0.000 OA
ATOM      2  C   UNL     1       3.161   6.030  19.108  0.00  0.00    +0.000 C 
ATOM      3  C   UNL     1       2.639   4.885  19.854  0.00  0.00    +0.000 A 
ATOM      4  C   UNL     1       1.428   4.707  20.498  0.00  0.00    +0.000 A 
ATOM      5  C   UNL     1       1.208   3.473  21.120  0.00  0.00    +0.000 A 
ATOM      6  C   UNL     1       2.189   2.461  21.086  0.00  0.00    +0.000 A 
ATOM      7  C   UNL     1       3.408   2.667  20.430  0.00  0.00    +0.000 A 
ATOM      8  C   UNL     1       3.601   3.893  19.821  0.00  0.00    +0.000 A 
ATOM      9  C   UNL     1       4.735   4.403  19.054  0.00  0.00    +0.000 C 
ATOM     10  O   UNL     1       5.759   3.777  18.849  0.00  0.00    +0.000 OA
ATOM     11  N   UNL     1       4.397   5.665  18.645  0.00  0.00    +0.000 N 
ENDROOT
BRANCH  11  12
ATOM     12  C   UNL     1       5.266   6.526  17.857  0.00  0.00    +0.000 C 
BRANCH  12  13
ATOM     13  C   UNL     1       5.285   6.110  16.385  0.00  0.00    +0.000 C 
BRANCH  13  14
ATOM     14  C   UNL     1       6.664   5.613  15.937  0.00  0.00    +0.000 C 
BRANCH  14  15
ATOM     15  C   UNL     1       6.589   4.981  14.565  0.00  0.00    +0.000 A 
ATOM     16  C   UNL     1       5.574   4.064  14.262  0.00  0.00    +0.000 A 
ATOM     17  C   UNL     1       5.542   3.424  13.020  0.00  0.00    +0.000 A 
ATOM     18  C   UNL     1       6.523   3.695  12.070  0.00  0.00    +0.000 A 
ATOM     19  C   UNL     1       7.531   4.614  12.356  0.00  0.00    +0.000 A 
ATOM     20  C   UNL     1       7.565   5.255  13.596  0.00  0.00    +0.000 A 
ENDBRANCH  14  15
ENDBRANCH  13  14
ENDBRANCH  12  13
ENDBRANCH  11  12
TORSDOF 4
ENDMDL
