MODEL 1
REMARK VINA RESULT:      -6.5      0.000      0.000
REMARK  Name = 
REMARK  3 active torsions:
REMARK  status: ('A' for Active; 'I' for Inactive)
REMARK    1  A    between atoms: C_4  and  C_5
REMARK    2  A    between atoms: C_5  and  S_6
REMARK    3  A    between atoms: S_6  and  C_7
REMARK                            x       y       z     vdW  Elec       q    Type
REMARK                         _______ _______ _______ _____ _____    ______ ____
ROOT
ATOM      1  C   UNL     1       4.296   5.113  17.243  0.00  0.00    +0.000 C 
ENDROOT
BRANCH   1   5
ATOM      2  C   UNL     1       8.058   6.781  18.567  0.00  0.00    +0.000 A 
ATOM      3  C   UNL     1       7.486   5.713  19.255  0.00  0.00    +0.000 A 
ATOM      4  C   UNL     1       6.273   5.171  18.823  0.00  0.00    +0.000 A 
ATOM      5  C   UNL     1       5.619   5.689  17.694  0.00  0.00    +0.000 A 
ATOM      6  C   UNL     1       6.204   6.767  17.014  0.00  0.00    +0.000 A 
ATOM      7  C   UNL     1       7.418   7.309  17.448  0.00  0.00    +0.000 A 
ENDBRANCH   1   5
BRANCH   1   8
ATOM      8  S   UNL     1       2.896   5.959  18.055  0.00  0.00    +0.000 S 
BRANCH   8   9
ATOM      9  C   UNL     1       2.196   4.719  19.141  0.00  0.00    +0.000 A 
ATOM     10  C   UNL     1       1.288   3.726  18.762  0.00  0.00    +0.000 A 
ATOM     11  C   UNL     1       0.803   2.807  19.701  0.00  0.00    +0.000 A 
ATOM     12  C   UNL     1       1.218   2.869  21.029  0.00  0.00    +0.000 A 
ATOM     13  C   UNL     1       2.119   3.851  21.422  0.00  0.00    +0.000 A 
ATOM     14  C   UNL     1       2.604   4.768  20.484  0.00  0.00    +0.000 A 
ENDBRANCH   8   9
ENDBRANCH   1   8
TORSDOF 3
ENDMDL
MODEL 2
REMARK VINA RESULT:      -6.5      1.128      5.933
REMARK  Name = 
REMARK  3 active torsions:
REMARK  status: ('A' for Active; 'I' for Inactive)
REMARK    1  A    between atoms: C_4  and  C_5
REMARK    2  A    between atoms: C_5  and  S_6
REMARK    3  A    between atoms: S_6  and  C_7
REMARK                            x       y       z     vdW  Elec       q    Type
REMARK                         _______ _______ _______ _____ _____    ______ ____
ROOT
ATOM      1  C   UNL     1       4.118   3.300  18.017  0.00  0.00    +0.000 C 
ENDROOT
BRANCH   1   5
ATOM      2  C   UNL     1       1.297   3.076  21.285  0.00  0.00    +0.000 A 
ATOM      3  C   UNL     1       2.596   2.600  21.449  0.00  0.00    +0.000 A 
ATOM      4  C   UNL     1       3.509   2.677  20.394  0.00  0.00    +0.000 A 
ATOM      5  C   UNL     1       3.133   3.237  19.163  0.00  0.00    +0.000 A 
ATOM      6  C   UNL     1       1.821   3.709  19.011  0.00  0.00    +0.000 A 
ATOM      7  C   UNL     1       0.909   3.631  20.067  0.00  0.00    +0.000 A 
ENDBRANCH   1   5
BRANCH   1   8
ATOM      8  S   UNL     1       4.162   4.967  17.274  0.00  0.00    +0.000 S 
BRANCH   8   9
ATOM      9  C   UNL     1       5.707   5.668  17.846  0.00  0.00    +0.000 A 
ATOM     10  C   UNL     1       6.442   5.223  18.949  0.00  0.00    +0.000 A 
ATOM     11  C   UNL     1       7.642   5.852  19.308  0.00  0.00    +0.000 A 
ATOM     12  C   UNL     1       8.121   6.932  18.570  0.00  0.00    +0.000 A 
ATOM     13  C   UNL     1       7.400   7.387  17.472  0.00  0.00    +0.000 A 
ATOM     14  C   UNL     1       6.204   6.759  17.114  0.00  0.00    +0.000 A 
ENDBRANCH   8   9
ENDBRANCH   1   8
TORSDOF 3
ENDMDL
MODEL 3
REMARK VINA RESULT:      -6.4      0.699      6.059
REMARK  Name = 
REMARK  3 active torsions:
REMARK  status: ('A' for Active; 'I' for Inactive)
REMARK    1  A    between atoms: C_4  and  C_5
REMARK    2  A    between atoms: C_5  and  S_6
REMARK    3  A    between atoms: S_6  and  C_7
REMARK                            x       y       z     vdW  Elec       q    Type
REMARK                         _______ _______ _______ _____ _____    ______ ____
ROOT
ATOM      1  C   UNL     1       2.910   6.114  18.577  0.00  0.00    +0.000 C 
ENDROOT
BRANCH   1   5
ATOM      2  C   UNL     1       1.040   2.762  20.565  0.00  0.00    +0.000 A 
ATOM      3  C   UNL     1       0.956   2.888  19.180  0.00  0.00    +0.000 A 
ATOM      4  C   UNL     1       1.566   3.969  18.538  0.00  0.00    +0.000 A 
ATOM      5  C   UNL     1       2.270   4.935  19.274  0.00  0.00    +0.000 A 
ATOM      6  C   UNL     1       2.342   4.797  20.668  0.00  0.00    +0.000 A 
ATOM      7  C   UNL     1       1.731   3.715  21.309  0.00  0.00    +0.000 A 
ENDBRANCH   1   5
BRANCH   1   8
ATOM      8  S   UNL     1       4.053   5.565  17.264  0.00  0.00    +0.000 S 
BRANCH   8   9
ATOM      9  C   UNL     1       5.678   5.997  17.881  0.00  0.00    +0.000 A 
ATOM     10  C   UNL     1       6.340   5.364  18.938  0.00  0.00    +0.000 A 
ATOM     11  C   UNL     1       7.614   5.790  19.339  0.00  0.00    +0.000 A 
ATOM     12  C   UNL     1       8.240   6.852  18.690  0.00  0.00    +0.000 A 
ATOM     13  C   UNL     1       7.593   7.492  17.638  0.00  0.00    +0.000 A 
ATOM     14  C   UNL     1       6.323   7.066  17.238  0.00  0.00    +0.000 A 
ENDBRANCH   8   9
ENDBRANCH   1   8
TORSDOF 3
ENDMDL
MODEL 4
REMARK VINA RESULT:      -6.3      1.175      6.031
REMARK  Name = 
REMARK  3 active torsions:
REMARK  status: ('A' for Active; 'I' for Inactive)
REMARK    1  A    between atoms: C_4  and  C_5
REMARK    2  A    between atoms: C_5  and  S_6
REMARK    3  A    between atoms: S_6  and  C_7
REMARK                            x       y       z     vdW  Elec       q    Type
REMARK                         _______ _______ _______ _____ _____    ______ ____
ROOT
ATOM      1  C   UNL     1       4.372   3.356  18.334  0.00  0.00    +0.000 C 
ENDROOT
BRANCH   1   5
ATOM      2  C   UNL     1       1.274   3.189  21.344  0.00  0.00    +0.000 A 
ATOM      3  C   UNL     1       1.029   3.810  20.122  0.00  0.00    +0.000 A 
ATOM      4  C   UNL     1       2.028   3.859  19.147  0.00  0.00    +0.000 A 
ATOM      5  C   UNL     1       3.286   3.282  19.383  0.00  0.00    +0.000 A 
ATOM      6  C   UNL     1       3.521   2.664  20.619  0.00  0.00    +0.000 A 
ATOM      7  C   UNL     1       2.520   2.616  21.594  0.00  0.00    +0.000 A 
ENDBRANCH   1   5
BRANCH   1   8
ATOM      8  S   UNL     1       4.245   4.894  17.358  0.00  0.00    +0.000 S 
BRANCH   8   9
ATOM      9  C   UNL     1       5.744   5.793  17.746  0.00  0.00    +0.000 A 
ATOM     10  C   UNL     1       6.181   6.958  17.109  0.00  0.00    +0.000 A 
ATOM     11  C   UNL     1       7.378   7.577  17.496  0.00  0.00    +0.000 A 
ATOM     12  C   UNL     1       8.151   7.039  18.522  0.00  0.00    +0.000 A 
ATOM     13  C   UNL     1       7.730   5.879  19.163  0.00  0.00    +0.000 A 
ATOM     14  C   UNL     1       6.536   5.263  18.778  0.00  0.00    +0.000 A 
ENDBRANCH   8   9
ENDBRANCH   1   8
TORSDOF 3
ENDMDL
MODEL 5
REMARK VINA RESULT:      -6.3      0.981      6.012
REMARK  Name = 
REMARK  3 active torsions:
REMARK  status: ('A' for Active; 'I' for Inactive)
REMARK    1  A    between atoms: C_4  and  C_5
REMARK    2  A    between atoms: C_5  and  S_6
REMARK    3  A    between atoms: S_6  and  C_7
REMARK                            x       y       z     vdW  Elec       q    Type
REMARK                         _______ _______ _______ _____ _____    ______ ____
ROOT
ATOM      1  C   UNL     1       3.140   5.159  17.436  0.00  0.00    +0.000 C 
ENDROOT
BRANCH   1   5
ATOM      2  C   UNL     1       0.916   2.965  20.423  0.00  0.00    +0.000 A 
ATOM      3  C   UNL     1       1.111   2.420  19.157  0.00  0.00    +0.000 A 
ATOM      4  C   UNL     1       1.835   3.127  18.193  0.00  0.00    +0.000 A 
ATOM      5  C   UNL     1       2.376   4.388  18.488  0.00  0.00    +0.000 A 
ATOM      6  C   UNL     1       2.168   4.927  19.766  0.00  0.00    +0.000 A 
ATOM      7  C   UNL     1       1.443   4.218  20.729  0.00  0.00    +0.000 A 
ENDBRANCH   1   5
BRANCH   1   8
ATOM      8  S   UNL     1       4.692   4.308  16.989  0.00  0.00    +0.000 S 
BRANCH   8   9
ATOM      9  C   UNL     1       5.983   5.431  17.514  0.00  0.00    +0.000 A 
ATOM     10  C   UNL     1       6.281   6.662  16.919  0.00  0.00    +0.000 A 
ATOM     11  C   UNL     1       7.320   7.460  17.415  0.00  0.00    +0.000 A 
ATOM     12  C   UNL     1       8.074   7.040  18.508  0.00  0.00    +0.000 A 
ATOM     13  C   UNL     1       7.791   5.818  19.108  0.00  0.00    +0.000 A 
ATOM     14  C   UNL     1       6.754   5.022  18.614  0.00  0.00    +0.000 A 
ENDBRANCH   8   9
ENDBRANCH   1   8
TORSDOF 3
ENDMDL
MODEL 6
REMARK VINA RESULT:      -6.3      1.724      6.064
REMARK  Name = 
REMARK  3 active torsions:
REMARK  status: ('A' for Active; 'I' for Inactive)
REMARK    1  A    between atoms: C_4  and  C_5
REMARK    2  A    between atoms: C_5  and  S_6
REMARK    3  A    between atoms: S_6  and  C_7
REMARK                            x       y       z     vdW  Elec       q    Type
REMARK                         _______ _______ _______ _____ _____    ______ ____
ROOT
ATOM      1  C   UNL     1       3.767   5.885  19.311  0.00  0.00    +0.000 C 
ENDROOT
BRANCH   1   5
ATOM      2  C   UNL     1       0.747   2.813  19.674  0.00  0.00    +0.000 A 
ATOM      3  C   UNL     1       1.236   3.168  18.419  0.00  0.00    +0.000 A 
ATOM      4  C   UNL     1       2.216   4.157  18.303  0.00  0.00    +0.000 A 
ATOM      5  C   UNL     1       2.722   4.800  19.443  0.00  0.00    +0.000 A 
ATOM      6  C   UNL     1       2.218   4.436  20.700  0.00  0.00    +0.000 A 
ATOM      7  C   UNL     1       1.237   3.447  20.815  0.00  0.00    +0.000 A 
ENDBRANCH   1   5
BRANCH   1   8
ATOM      8  S   UNL     1       5.449   5.178  19.245  0.00  0.00    +0.000 S 
BRANCH   8   9
ATOM      9  C   UNL     1       5.839   5.119  17.498  0.00  0.00    +0.000 A 
ATOM     10  C   UNL     1       6.872   4.375  16.920  0.00  0.00    +0.000 A 
ATOM     11  C   UNL     1       7.087   4.408  15.536  0.00  0.00    +0.000 A 
ATOM     12  C   UNL     1       6.274   5.185  14.714  0.00  0.00    +0.000 A 
ATOM     13  C   UNL     1       5.244   5.932  15.274  0.00  0.00    +0.000 A 
ATOM     14  C   UNL     1       5.029   5.898  16.655  0.00  0.00    +0.000 A 
ENDBRANCH   8   9
ENDBRANCH   1   8
TORSDOF 3
ENDMDL
MODEL 7
REMARK VINA RESULT:      -6.2      1.153      5.885
REMARK  Name = 
REMARK  3 active torsions:
REMARK  status: ('A' for Active; 'I' for Inactive)
REMARK    1  A    between atoms: C_4  and  C_5
REMARK    2  A    between atoms: C_5  and  S_6
REMARK    3  A    between atoms: S_6  and  C_7
REMARK                            x       y       z     vdW  Elec       q    Type
REMARK                         _______ _______ _______ _____ _____    ______ ____
ROOT
ATOM      1  C   UNL     1       4.271   3.195  17.888  0.00  0.00    +0.000 C 
ENDROOT
BRANCH   1   5
ATOM      2  C   UNL     1       0.896   4.022  20.460  0.00  0.00    +0.000 A 
ATOM      3  C   UNL     1       2.049   4.798  20.548  0.00  0.00    +0.000 A 
ATOM      4  C   UNL     1       3.137   4.535  19.713  0.00  0.00    +0.000 A 
ATOM      5  C   UNL     1       3.083   3.491  18.775  0.00  0.00    +0.000 A 
ATOM      6  C   UNL     1       1.918   2.715  18.700  0.00  0.00    +0.000 A 
ATOM      7  C   UNL     1       0.830   2.980  19.537  0.00  0.00    +0.000 A 
ENDBRANCH   1   5
BRANCH   1   8
ATOM      8  S   UNL     1       4.519   4.517  16.653  0.00  0.00    +0.000 S 
BRANCH   8   9
ATOM      9  C   UNL     1       5.853   5.507  17.323  0.00  0.00    +0.000 A 
ATOM     10  C   UNL     1       6.180   6.807  16.925  0.00  0.00    +0.000 A 
ATOM     11  C   UNL     1       7.251   7.487  17.520  0.00  0.00    +0.000 A 
ATOM     12  C   UNL     1       8.008   6.877  18.518  0.00  0.00    +0.000 A 
ATOM     13  C   UNL     1       7.696   5.584  18.922  0.00  0.00    +0.000 A 
ATOM     14  C   UNL     1       6.627   4.906  18.329  0.00  0.00    +0.000 A 
ENDBRANCH   8   9
ENDBRANCH   1   8
TORSDOF 3
ENDMDL
MODEL 8
REMARK VINA RESULT:      -6.2      1.289      5.729
REMARK  Name = 
REMARK  3 active torsions:
REMARK  status: ('A' for Active; 'I' for Inactive)
REMARK    1  A    between atoms: C_4  and  C_5
REMARK    2  A    between atoms: C_5  and  S_6
REMARK    3  A    between atoms: S_6  and  C_7
REMARK                            x       y       z     vdW  Elec       q    Type
REMARK                         _______ _______ _______ _____ _____    ______ ____
ROOT
ATOM      1  C   UNL     1       3.076   6.510  19.360  0.00  0.00    +0.000 C 
ENDROOT
BRANCH   1   5
ATOM      2  C   UNL     1       0.818   2.826  19.476  0.00  0.00    +0.000 A 
ATOM      3  C   UNL     1       1.252   3.341  18.257  0.00  0.00    +0.000 A 
ATOM      4  C   UNL     1       1.987   4.529  18.221  0.00  0.00    +0.000 A 
ATOM      5  C   UNL     1       2.299   5.213  19.406  0.00  0.00    +0.000 A 
ATOM      6  C   UNL     1       1.852   4.685  20.626  0.00  0.00    +0.000 A 
ATOM      7  C   UNL     1       1.116   3.497  20.660  0.00  0.00    +0.000 A 
ENDBRANCH   1   5
BRANCH   1   8
ATOM      8  S   UNL     1       3.485   6.975  17.643  0.00  0.00    +0.000 S 
BRANCH   8   9
ATOM      9  C   UNL     1       4.970   6.045  17.273  0.00  0.00    +0.000 A 
ATOM     10  C   UNL     1       5.353   5.596  16.005  0.00  0.00    +0.000 A 
ATOM     11  C   UNL     1       6.540   4.871  15.833  0.00  0.00    +0.000 A 
ATOM     12  C   UNL     1       7.358   4.587  16.925  0.00  0.00    +0.000 A 
ATOM     13  C   UNL     1       6.989   5.025  18.191  0.00  0.00    +0.000 A 
ATOM     14  C   UNL     1       5.805   5.748  18.363  0.00  0.00    +0.000 A 
ENDBRANCH   8   9
ENDBRANCH   1   8
TORSDOF 3
ENDMDL
MODEL 9
REMARK VINA RESULT:      -6.2      0.776      5.916
REMARK  Name = 
REMARK  3 active torsions:
REMARK  status: ('A' for Active; 'I' for Inactive)
REMARK    1  A    between atoms: C_4  and  C_5
REMARK    2  A    between atoms: C_5  and  S_6
REMARK    3  A    between atoms: S_6  and  C_7
REMARK                            x       y       z     vdW  Elec       q    Type
REMARK                         _______ _______ _______ _____ _____    ______ ____
ROOT
ATOM      1  C   UNL     1       2.739   6.336  18.651  0.00  0.00    +0.000 C 
ENDROOT
BRANCH   1   5
ATOM      2  C   UNL     1       0.931   2.645  19.989  0.00  0.00    +0.000 A 
ATOM      3  C   UNL     1       1.328   3.605  20.917  0.00  0.00    +0.000 A 
ATOM      4  C   UNL     1       1.907   4.801  20.483  0.00  0.00    +0.000 A 
ATOM      5  C   UNL     1       2.092   5.051  19.115  0.00  0.00    +0.000 A 
ATOM      6  C   UNL     1       1.692   4.073  18.192  0.00  0.00    +0.000 A 
ATOM      7  C   UNL     1       1.113   2.877  18.628  0.00  0.00    +0.000 A 
ENDBRANCH   1   5
BRANCH   1   8
ATOM      8  S   UNL     1       3.837   6.046  17.222  0.00  0.00    +0.000 S 
BRANCH   8   9
ATOM      9  C   UNL     1       5.490   6.157  17.901  0.00  0.00    +0.000 A 
ATOM     10  C   UNL     1       5.974   5.419  18.986  0.00  0.00    +0.000 A 
ATOM     11  C   UNL     1       7.290   5.591  19.436  0.00  0.00    +0.000 A 
ATOM     12  C   UNL     1       8.137   6.502  18.809  0.00  0.00    +0.000 A 
ATOM     13  C   UNL     1       7.669   7.244  17.730  0.00  0.00    +0.000 A 
ATOM     14  C   UNL     1       6.356   7.072  17.281  0.00  0.00    +0.000 A 
ENDBRANCH   8   9
ENDBRANCH   1   8
TORSDOF 3
ENDMDL
