MODEL 1
REMARK VINA RESULT:      -7.4      0.000      0.000
REMARK  Name = 
REMARK  8 active torsions:
REMARK  status: ('A' for Active; 'I' for Inactive)
REMARK    1  A    between atoms: C_1  and  C_2
REMARK    2  A    between atoms: C_2  and  C_3
REMARK    3  A    between atoms: C_2  and  C_10
REMARK    4  A    between atoms: C_3  and  C_4
REMARK    5  A    between atoms: C_13  and  O_14
REMARK    6  A    between atoms: O_14  and  P_15
REMARK    7  A    between atoms: P_15  and  O_17
REMARK    8  A    between atoms: P_15  and  O_18
REMARK                            x       y       z     vdW  Elec       q    Type
REMARK                         _______ _______ _______ _____ _____    ______ ____
ROOT
ATOM      1  C   UNL     1       5.400   5.502  17.547  0.00  0.00    +0.000 A 
ATOM      2  C   UNL     1       5.824   4.748  18.655  0.00  0.00    +0.000 A 
ATOM      3  C   UNL     1       4.928   3.972  19.387  0.00  0.00    +0.000 A 
ATOM      4  C   UNL     1       3.580   3.976  19.069  0.00  0.00    +0.000 A 
ATOM      5  C   UNL     1       3.111   4.792  18.049  0.00  0.00    +0.000 A 
ATOM      6  C   UNL     1       4.017   5.558  17.300  0.00  0.00    +0.000 A 
ENDROOT
BRANCH   1   8
ATOM      7  C   UNL     1       7.232   7.249  17.451  0.00  0.00    +0.000 C 
ATOM      8  C   UNL     1       6.436   6.198  16.645  0.00  0.00    +0.000 C 
BRANCH   8   9
ATOM      9  C   UNL     1       7.418   5.200  15.965  0.00  0.00    +0.000 C 
BRANCH   9  10
ATOM     10  C   UNL     1       7.050   4.756  14.565  0.00  0.00    +0.000 A 
ATOM     11  C   UNL     1       5.952   3.903  14.371  0.00  0.00    +0.000 A 
ATOM     12  C   UNL     1       5.616   3.462  13.090  0.00  0.00    +0.000 A 
ATOM     13  C   UNL     1       6.366   3.873  11.992  0.00  0.00    +0.000 A 
ATOM     14  C   UNL     1       7.448   4.734  12.173  0.00  0.00    +0.000 A 
ATOM     15  C   UNL     1       7.785   5.178  13.453  0.00  0.00    +0.000 A 
ENDBRANCH   9  10
ENDBRANCH   8   9
ENDBRANCH   1   8
BRANCH   4  16
ATOM     16  O   UNL     1       2.810   3.110  19.784  0.00  0.00    +0.000 OA
BRANCH  16  17
ATOM     17  P   UNL     1       1.858   3.517  21.001  0.00  0.00    +0.000 P 
ATOM     18  O   UNL     1       1.810   2.632  22.199  0.00  0.00    +0.000 OA
BRANCH  17  19
ATOM     19  O   UNL     1       2.357   5.001  21.343  0.00  0.00    +0.000 OA
ATOM     20  H   UNL     1       2.232   5.198  22.290  0.00  0.00    +0.000 HD
ENDBRANCH  17  19
BRANCH  17  21
ATOM     21  O   UNL     1       0.440   3.809  20.330  0.00  0.00    +0.000 OA
ATOM     22  H   UNL     1       0.310   3.272  19.531  0.00  0.00    +0.000 HD
ENDBRANCH  17  21
ENDBRANCH  16  17
ENDBRANCH   4  16
TORSDOF 7
ENDMDL
MODEL 2
REMARK VINA RESULT:      -7.2      0.808      1.703
REMARK  Name = 
REMARK  8 active torsions:
REMARK  status: ('A' for Active; 'I' for Inactive)
REMARK    1  A    between atoms: C_1  and  C_2
REMARK    2  A    between atoms: C_2  and  C_3
REMARK    3  A    between atoms: C_2  and  C_10
REMARK    4  A    between atoms: C_3  and  C_4
REMARK    5  A    between atoms: C_13  and  O_14
REMARK    6  A    between atoms: O_14  and  P_15
REMARK    7  A    between atoms: P_15  and  O_17
REMARK    8  A    between atoms: P_15  and  O_18
REMARK                            x       y       z     vdW  Elec       q    Type
REMARK                         _______ _______ _______ _____ _____    ______ ____
ROOT
ATOM      1  C   UNL     1       4.844   4.659  17.356  0.00  0.00    +0.000 A 
ATOM      2  C   UNL     1       3.611   4.073  17.019  0.00  0.00    +0.000 A 
ATOM      3  C   UNL     1       2.907   3.292  17.933  0.00  0.00    +0.000 A 
ATOM      4  C   UNL     1       3.442   3.028  19.182  0.00  0.00    +0.000 A 
ATOM      5  C   UNL     1       4.705   3.503  19.511  0.00  0.00    +0.000 A 
ATOM      6  C   UNL     1       5.404   4.305  18.596  0.00  0.00    +0.000 A 
ENDROOT
BRANCH   1   8
ATOM      7  C   UNL     1       5.707   7.027  17.104  0.00  0.00    +0.000 C 
ATOM      8  C   UNL     1       5.506   5.667  16.399  0.00  0.00    +0.000 C 
BRANCH   8   9
ATOM      9  C   UNL     1       6.864   5.162  15.829  0.00  0.00    +0.000 C 
BRANCH   9  10
ATOM     10  C   UNL     1       6.852   4.718  14.382  0.00  0.00    +0.000 A 
ATOM     11  C   UNL     1       7.768   5.274  13.475  0.00  0.00    +0.000 A 
ATOM     12  C   UNL     1       7.752   4.896  12.131  0.00  0.00    +0.000 A 
ATOM     13  C   UNL     1       6.828   3.957  11.683  0.00  0.00    +0.000 A 
ATOM     14  C   UNL     1       5.925   3.387  12.580  0.00  0.00    +0.000 A 
ATOM     15  C   UNL     1       5.941   3.761  13.924  0.00  0.00    +0.000 A 
ENDBRANCH   9  10
ENDBRANCH   8   9
ENDBRANCH   1   8
BRANCH   4  16
ATOM     16  O   UNL     1       2.630   2.338  20.031  0.00  0.00    +0.000 OA
BRANCH  16  17
ATOM     17  P   UNL     1       1.617   2.999  21.074  0.00  0.00    +0.000 P 
ATOM     18  O   UNL     1       1.425   2.345  22.398  0.00  0.00    +0.000 OA
BRANCH  17  19
ATOM     19  O   UNL     1       2.179   4.495  21.194  0.00  0.00    +0.000 OA
ATOM     20  H   UNL     1       2.319   4.738  22.128  0.00  0.00    +0.000 HD
ENDBRANCH  17  19
BRANCH  17  21
ATOM     21  O   UNL     1       0.274   3.235  20.244  0.00  0.00    +0.000 OA
ATOM     22  H   UNL     1      -0.375   2.533  20.418  0.00  0.00    +0.000 HD
ENDBRANCH  17  21
ENDBRANCH  16  17
ENDBRANCH   4  16
TORSDOF 7
ENDMDL
MODEL 3
REMARK VINA RESULT:      -7.2      4.360      6.995
REMARK  Name = 
REMARK  8 active torsions:
REMARK  status: ('A' for Active; 'I' for Inactive)
REMARK    1  A    between atoms: C_1  and  C_2
REMARK    2  A    between atoms: C_2  and  C_3
REMARK    3  A    between atoms: C_2  and  C_10
REMARK    4  A    between atoms: C_3  and  C_4
REMARK    5  A    between atoms: C_13  and  O_14
REMARK    6  A    between atoms: O_14  and  P_15
REMARK    7  A    between atoms: P_15  and  O_17
REMARK    8  A    between atoms: P_15  and  O_18
REMARK                            x       y       z     vdW  Elec       q    Type
REMARK                         _______ _______ _______ _____ _____    ______ ____
ROOT
ATOM      1  C   UNL     1       2.999   4.681  18.987  0.00  0.00    +0.000 A 
ATOM      2  C   UNL     1       4.327   4.956  19.359  0.00  0.00    +0.000 A 
ATOM      3  C   UNL     1       5.384   4.757  18.472  0.00  0.00    +0.000 A 
ATOM      4  C   UNL     1       5.148   4.224  17.216  0.00  0.00    +0.000 A 
ATOM      5  C   UNL     1       3.864   3.842  16.854  0.00  0.00    +0.000 A 
ATOM      6  C   UNL     1       2.798   4.061  17.741  0.00  0.00    +0.000 A 
ENDROOT
BRANCH   1   8
ATOM      7  C   UNL     1       1.549   3.963  20.935  0.00  0.00    +0.000 C 
ATOM      8  C   UNL     1       1.839   5.086  19.913  0.00  0.00    +0.000 C 
BRANCH   8   9
ATOM      9  C   UNL     1       2.096   6.426  20.662  0.00  0.00    +0.000 C 
BRANCH   9  10
ATOM     10  C   UNL     1       1.837   7.689  19.868  0.00  0.00    +0.000 A 
ATOM     11  C   UNL     1       1.132   8.750  20.458  0.00  0.00    +0.000 A 
ATOM     12  C   UNL     1       0.861   9.911  19.731  0.00  0.00    +0.000 A 
ATOM     13  C   UNL     1       1.294  10.025  18.413  0.00  0.00    +0.000 A 
ATOM     14  C   UNL     1       2.009   8.983  17.824  0.00  0.00    +0.000 A 
ATOM     15  C   UNL     1       2.284   7.823  18.549  0.00  0.00    +0.000 A 
ENDBRANCH   9  10
ENDBRANCH   8   9
ENDBRANCH   1   8
BRANCH   4  16
ATOM     16  O   UNL     1       6.234   4.163  16.396  0.00  0.00    +0.000 OA
BRANCH  16  17
ATOM     17  P   UNL     1       6.317   4.798  14.933  0.00  0.00    +0.000 P 
ATOM     18  O   UNL     1       5.816   4.003  13.777  0.00  0.00    +0.000 OA
BRANCH  17  19
ATOM     19  O   UNL     1       5.536   6.186  15.119  0.00  0.00    +0.000 OA
ATOM     20  H   UNL     1       4.849   6.106  15.806  0.00  0.00    +0.000 HD
ENDBRANCH  17  19
BRANCH  17  21
ATOM     21  O   UNL     1       7.825   5.303  14.793  0.00  0.00    +0.000 OA
ATOM     22  H   UNL     1       8.294   5.252  15.642  0.00  0.00    +0.000 HD
ENDBRANCH  17  21
ENDBRANCH  16  17
ENDBRANCH   4  16
TORSDOF 7
ENDMDL
MODEL 4
REMARK VINA RESULT:      -7.1      0.609      1.453
REMARK  Name = 
REMARK  8 active torsions:
REMARK  status: ('A' for Active; 'I' for Inactive)
REMARK    1  A    between atoms: C_1  and  C_2
REMARK    2  A    between atoms: C_2  and  C_3
REMARK    3  A    between atoms: C_2  and  C_10
REMARK    4  A    between atoms: C_3  and  C_4
REMARK    5  A    between atoms: C_13  and  O_14
REMARK    6  A    between atoms: O_14  and  P_15
REMARK    7  A    between atoms: P_15  and  O_17
REMARK    8  A    between atoms: P_15  and  O_18
REMARK                            x       y       z     vdW  Elec       q    Type
REMARK                         _______ _______ _______ _____ _____    ______ ____
ROOT
ATOM      1  C   UNL     1       5.425   5.636  17.481  0.00  0.00    +0.000 A 
ATOM      2  C   UNL     1       4.090   6.068  17.387  0.00  0.00    +0.000 A 
ATOM      3  C   UNL     1       3.124   5.638  18.294  0.00  0.00    +0.000 A 
ATOM      4  C   UNL     1       3.453   4.722  19.280  0.00  0.00    +0.000 A 
ATOM      5  C   UNL     1       4.735   4.194  19.336  0.00  0.00    +0.000 A 
ATOM      6  C   UNL     1       5.711   4.642  18.433  0.00  0.00    +0.000 A 
ENDROOT
BRANCH   1   8
ATOM      7  C   UNL     1       7.343   7.287  17.393  0.00  0.00    +0.000 C 
ATOM      8  C   UNL     1       6.506   6.270  16.587  0.00  0.00    +0.000 C 
BRANCH   8   9
ATOM      9  C   UNL     1       7.445   5.217  15.928  0.00  0.00    +0.000 C 
BRANCH   9  10
ATOM     10  C   UNL     1       7.050   4.750  14.543  0.00  0.00    +0.000 A 
ATOM     11  C   UNL     1       5.930   3.921  14.380  0.00  0.00    +0.000 A 
ATOM     12  C   UNL     1       5.568   3.460  13.113  0.00  0.00    +0.000 A 
ATOM     13  C   UNL     1       6.318   3.826  11.998  0.00  0.00    +0.000 A 
ATOM     14  C   UNL     1       7.424   4.662  12.148  0.00  0.00    +0.000 A 
ATOM     15  C   UNL     1       7.785   5.127  13.414  0.00  0.00    +0.000 A 
ENDBRANCH   9  10
ENDBRANCH   8   9
ENDBRANCH   1   8
BRANCH   4  16
ATOM     16  O   UNL     1       2.461   4.445  20.171  0.00  0.00    +0.000 OA
BRANCH  16  17
ATOM     17  P   UNL     1       2.113   2.991  20.734  0.00  0.00    +0.000 P 
ATOM     18  O   UNL     1       2.774   2.531  21.988  0.00  0.00    +0.000 OA
BRANCH  17  19
ATOM     19  O   UNL     1       0.515   3.046  20.857  0.00  0.00    +0.000 OA
ATOM     20  H   UNL     1       0.114   3.329  20.015  0.00  0.00    +0.000 HD
ENDBRANCH  17  19
BRANCH  17  21
ATOM     21  O   UNL     1       2.297   2.015  19.485  0.00  0.00    +0.000 OA
ATOM     22  H   UNL     1       1.892   1.148  19.652  0.00  0.00    +0.000 HD
ENDBRANCH  17  21
ENDBRANCH  16  17
ENDBRANCH   4  16
TORSDOF 7
ENDMDL
MODEL 5
REMARK VINA RESULT:      -7.1      0.789      1.555
REMARK  Name = 
REMARK  8 active torsions:
REMARK  status: ('A' for Active; 'I' for Inactive)
REMARK    1  A    between atoms: C_1  and  C_2
REMARK    2  A    between atoms: C_2  and  C_3
REMARK    3  A    between atoms: C_2  and  C_10
REMARK    4  A    between atoms: C_3  and  C_4
REMARK    5  A    between atoms: C_13  and  O_14
REMARK    6  A    between atoms: O_14  and  P_15
REMARK    7  A    between atoms: P_15  and  O_17
REMARK    8  A    between atoms: P_15  and  O_18
REMARK                            x       y       z     vdW  Elec       q    Type
REMARK                         _______ _______ _______ _____ _____    ______ ____
ROOT
ATOM      1  C   UNL     1       5.286   6.192  17.719  0.00  0.00    +0.000 A 
ATOM      2  C   UNL     1       5.517   5.450  18.891  0.00  0.00    +0.000 A 
ATOM      3  C   UNL     1       4.465   5.041  19.708  0.00  0.00    +0.000 A 
ATOM      4  C   UNL     1       3.165   5.412  19.408  0.00  0.00    +0.000 A 
ATOM      5  C   UNL     1       2.912   6.233  18.318  0.00  0.00    +0.000 A 
ATOM      6  C   UNL     1       3.970   6.629  17.486  0.00  0.00    +0.000 A 
ENDROOT
BRANCH   1   8
ATOM      7  C   UNL     1       7.454   7.453  17.366  0.00  0.00    +0.000 C 
ATOM      8  C   UNL     1       6.441   6.468  16.740  0.00  0.00    +0.000 C 
BRANCH   8   9
ATOM      9  C   UNL     1       7.177   5.173  16.286  0.00  0.00    +0.000 C 
BRANCH   9  10
ATOM     10  C   UNL     1       6.960   4.758  14.846  0.00  0.00    +0.000 A 
ATOM     11  C   UNL     1       7.790   5.275  13.839  0.00  0.00    +0.000 A 
ATOM     12  C   UNL     1       7.587   4.923  12.504  0.00  0.00    +0.000 A 
ATOM     13  C   UNL     1       6.559   4.049  12.163  0.00  0.00    +0.000 A 
ATOM     14  C   UNL     1       5.739   3.518  13.157  0.00  0.00    +0.000 A 
ATOM     15  C   UNL     1       5.942   3.866  14.493  0.00  0.00    +0.000 A 
ENDBRANCH   9  10
ENDBRANCH   8   9
ENDBRANCH   1   8
BRANCH   4  16
ATOM     16  O   UNL     1       2.206   4.878  20.215  0.00  0.00    +0.000 OA
BRANCH  16  17
ATOM     17  P   UNL     1       1.960   3.316  20.440  0.00  0.00    +0.000 P 
ATOM     18  O   UNL     1       2.713   2.344  19.599  0.00  0.00    +0.000 OA
BRANCH  17  19
ATOM     19  O   UNL     1       2.259   3.146  22.006  0.00  0.00    +0.000 OA
ATOM     20  H   UNL     1       2.420   2.210  22.227  0.00  0.00    +0.000 HD
ENDBRANCH  17  19
BRANCH  17  21
ATOM     21  O   UNL     1       0.374   3.144  20.403  0.00  0.00    +0.000 OA
ATOM     22  H   UNL     1       0.071   2.518  21.081  0.00  0.00    +0.000 HD
ENDBRANCH  17  21
ENDBRANCH  16  17
ENDBRANCH   4  16
TORSDOF 7
ENDMDL
MODEL 6
REMARK VINA RESULT:      -7.1      4.568      6.312
REMARK  Name = 
REMARK  8 active torsions:
REMARK  status: ('A' for Active; 'I' for Inactive)
REMARK    1  A    between atoms: C_1  and  C_2
REMARK    2  A    between atoms: C_2  and  C_3
REMARK    3  A    between atoms: C_2  and  C_10
REMARK    4  A    between atoms: C_3  and  C_4
REMARK    5  A    between atoms: C_13  and  O_14
REMARK    6  A    between atoms: O_14  and  P_15
REMARK    7  A    between atoms: P_15  and  O_17
REMARK    8  A    between atoms: P_15  and  O_18
REMARK                            x       y       z     vdW  Elec       q    Type
REMARK                         _______ _______ _______ _____ _____    ______ ____
ROOT
ATOM      1  C   UNL     1       3.488   6.205  19.345  0.00  0.00    +0.000 A 
ATOM      2  C   UNL     1       3.271   6.937  18.165  0.00  0.00    +0.000 A 
ATOM      3  C   UNL     1       4.189   6.911  17.117  0.00  0.00    +0.000 A 
ATOM      4  C   UNL     1       5.372   6.203  17.245  0.00  0.00    +0.000 A 
ATOM      5  C   UNL     1       5.668   5.556  18.436  0.00  0.00    +0.000 A 
ATOM      6  C   UNL     1       4.734   5.568  19.484  0.00  0.00    +0.000 A 
ENDROOT
BRANCH   1   8
ATOM      7  C   UNL     1       1.496   7.370  20.388  0.00  0.00    +0.000 C 
ATOM      8  C   UNL     1       2.376   6.101  20.404  0.00  0.00    +0.000 C 
BRANCH   8   9
ATOM      9  C   UNL     1       1.484   4.837  20.227  0.00  0.00    +0.000 C 
BRANCH   9  10
ATOM     10  C   UNL     1       2.096   3.699  19.439  0.00  0.00    +0.000 A 
ATOM     11  C   UNL     1       2.907   2.756  20.091  0.00  0.00    +0.000 A 
ATOM     12  C   UNL     1       3.500   1.716  19.373  0.00  0.00    +0.000 A 
ATOM     13  C   UNL     1       3.285   1.604  18.003  0.00  0.00    +0.000 A 
ATOM     14  C   UNL     1       2.468   2.526  17.349  0.00  0.00    +0.000 A 
ATOM     15  C   UNL     1       1.872   3.565  18.065  0.00  0.00    +0.000 A 
ENDBRANCH   9  10
ENDBRANCH   8   9
ENDBRANCH   1   8
BRANCH   4  16
ATOM     16  O   UNL     1       6.151   6.164  16.128  0.00  0.00    +0.000 OA
BRANCH  16  17
ATOM     17  P   UNL     1       6.808   4.845  15.512  0.00  0.00    +0.000 P 
ATOM     18  O   UNL     1       5.917   3.716  15.125  0.00  0.00    +0.000 OA
BRANCH  17  19
ATOM     19  O   UNL     1       7.648   5.427  14.277  0.00  0.00    +0.000 OA
ATOM     20  H   UNL     1       8.135   4.714  13.824  0.00  0.00    +0.000 HD
ENDBRANCH  17  19
BRANCH  17  21
ATOM     21  O   UNL     1       7.974   4.456  16.530  0.00  0.00    +0.000 OA
ATOM     22  H   UNL     1       8.642   5.160  16.586  0.00  0.00    +0.000 HD
ENDBRANCH  17  21
ENDBRANCH  16  17
ENDBRANCH   4  16
TORSDOF 7
ENDMDL
MODEL 7
REMARK VINA RESULT:      -7.0      1.027      1.347
REMARK  Name = 
REMARK  8 active torsions:
REMARK  status: ('A' for Active; 'I' for Inactive)
REMARK    1  A    between atoms: C_1  and  C_2
REMARK    2  A    between atoms: C_2  and  C_3
REMARK    3  A    between atoms: C_2  and  C_10
REMARK    4  A    between atoms: C_3  and  C_4
REMARK    5  A    between atoms: C_13  and  O_14
REMARK    6  A    between atoms: O_14  and  P_15
REMARK    7  A    between atoms: P_15  and  O_17
REMARK    8  A    between atoms: P_15  and  O_18
REMARK                            x       y       z     vdW  Elec       q    Type
REMARK                         _______ _______ _______ _____ _____    ______ ____
ROOT
ATOM      1  C   UNL     1       5.408   6.159  17.630  0.00  0.00    +0.000 A 
ATOM      2  C   UNL     1       5.577   5.191  18.635  0.00  0.00    +0.000 A 
ATOM      3  C   UNL     1       4.488   4.687  19.345  0.00  0.00    +0.000 A 
ATOM      4  C   UNL     1       3.216   5.179  19.111  0.00  0.00    +0.000 A 
ATOM      5  C   UNL     1       3.027   6.210  18.201  0.00  0.00    +0.000 A 
ATOM      6  C   UNL     1       4.121   6.703  17.474  0.00  0.00    +0.000 A 
ENDROOT
BRANCH   1   8
ATOM      7  C   UNL     1       7.550   7.503  17.500  0.00  0.00    +0.000 C 
ATOM      8  C   UNL     1       6.596   6.558  16.736  0.00  0.00    +0.000 C 
BRANCH   8   9
ATOM      9  C   UNL     1       7.388   5.333  16.194  0.00  0.00    +0.000 C 
BRANCH   9  10
ATOM     10  C   UNL     1       6.984   4.836  14.822  0.00  0.00    +0.000 A 
ATOM     11  C   UNL     1       5.836   4.040  14.680  0.00  0.00    +0.000 A 
ATOM     12  C   UNL     1       5.464   3.551  13.427  0.00  0.00    +0.000 A 
ATOM     13  C   UNL     1       6.230   3.855  12.305  0.00  0.00    +0.000 A 
ATOM     14  C   UNL     1       7.363   4.658  12.434  0.00  0.00    +0.000 A 
ATOM     15  C   UNL     1       7.735   5.150  13.685  0.00  0.00    +0.000 A 
ENDBRANCH   9  10
ENDBRANCH   8   9
ENDBRANCH   1   8
BRANCH   4  16
ATOM     16  O   UNL     1       2.214   4.550  19.787  0.00  0.00    +0.000 OA
BRANCH  16  17
ATOM     17  P   UNL     1       1.564   3.151  19.374  0.00  0.00    +0.000 P 
ATOM     18  O   UNL     1       2.359   1.906  19.570  0.00  0.00    +0.000 OA
BRANCH  17  19
ATOM     19  O   UNL     1       0.194   3.152  20.207  0.00  0.00    +0.000 OA
ATOM     20  H   UNL     1      -0.468   2.575  19.783  0.00  0.00    +0.000 HD
ENDBRANCH  17  19
BRANCH  17  21
ATOM     21  O   UNL     1       1.027   3.374  17.887  0.00  0.00    +0.000 OA
ATOM     22  H   UNL     1       0.282   2.783  17.689  0.00  0.00    +0.000 HD
ENDBRANCH  17  21
ENDBRANCH  16  17
ENDBRANCH   4  16
TORSDOF 7
ENDMDL
MODEL 8
REMARK VINA RESULT:      -7.0      4.356      7.045
REMARK  Name = 
REMARK  8 active torsions:
REMARK  status: ('A' for Active; 'I' for Inactive)
REMARK    1  A    between atoms: C_1  and  C_2
REMARK    2  A    between atoms: C_2  and  C_3
REMARK    3  A    between atoms: C_2  and  C_10
REMARK    4  A    between atoms: C_3  and  C_4
REMARK    5  A    between atoms: C_13  and  O_14
REMARK    6  A    between atoms: O_14  and  P_15
REMARK    7  A    between atoms: P_15  and  O_17
REMARK    8  A    between atoms: P_15  and  O_18
REMARK                            x       y       z     vdW  Elec       q    Type
REMARK                         _______ _______ _______ _____ _____    ______ ____
ROOT
ATOM      1  C   UNL     1       2.870   4.426  19.044  0.00  0.00    +0.000 A 
ATOM      2  C   UNL     1       4.208   4.650  19.414  0.00  0.00    +0.000 A 
ATOM      3  C   UNL     1       5.248   4.496  18.499  0.00  0.00    +0.000 A 
ATOM      4  C   UNL     1       4.983   4.058  17.212  0.00  0.00    +0.000 A 
ATOM      5  C   UNL     1       3.687   3.725  16.844  0.00  0.00    +0.000 A 
ATOM      6  C   UNL     1       2.639   3.899  17.762  0.00  0.00    +0.000 A 
ENDROOT
BRANCH   1   8
ATOM      7  C   UNL     1       1.448   3.605  20.973  0.00  0.00    +0.000 C 
ATOM      8  C   UNL     1       1.731   4.785  20.016  0.00  0.00    +0.000 C 
BRANCH   8   9
ATOM      9  C   UNL     1       2.017   6.075  20.839  0.00  0.00    +0.000 C 
BRANCH   9  10
ATOM     10  C   UNL     1       1.775   7.386  20.123  0.00  0.00    +0.000 A 
ATOM     11  C   UNL     1       1.059   8.409  20.764  0.00  0.00    +0.000 A 
ATOM     12  C   UNL     1       0.804   9.614  20.107  0.00  0.00    +0.000 A 
ATOM     13  C   UNL     1       1.264   9.811  18.808  0.00  0.00    +0.000 A 
ATOM     14  C   UNL     1       1.989   8.806  18.169  0.00  0.00    +0.000 A 
ATOM     15  C   UNL     1       2.248   7.602  18.824  0.00  0.00    +0.000 A 
ENDBRANCH   9  10
ENDBRANCH   8   9
ENDBRANCH   1   8
BRANCH   4  16
ATOM     16  O   UNL     1       6.055   4.035  16.372  0.00  0.00    +0.000 OA
BRANCH  16  17
ATOM     17  P   UNL     1       6.207   4.921  15.052  0.00  0.00    +0.000 P 
ATOM     18  O   UNL     1       5.401   6.168  14.929  0.00  0.00    +0.000 OA
BRANCH  17  19
ATOM     19  O   UNL     1       7.786   5.193  15.002  0.00  0.00    +0.000 OA
ATOM     20  H   UNL     1       7.969   6.133  14.818  0.00  0.00    +0.000 HD
ENDBRANCH  17  19
BRANCH  17  21
ATOM     21  O   UNL     1       6.029   3.889  13.846  0.00  0.00    +0.000 OA
ATOM     22  H   UNL     1       6.799   3.303  13.767  0.00  0.00    +0.000 HD
ENDBRANCH  17  21
ENDBRANCH  16  17
ENDBRANCH   4  16
TORSDOF 7
ENDMDL
MODEL 9
REMARK VINA RESULT:      -7.0      4.802      6.227
REMARK  Name = 
REMARK  8 active torsions:
REMARK  status: ('A' for Active; 'I' for Inactive)
REMARK    1  A    between atoms: C_1  and  C_2
REMARK    2  A    between atoms: C_2  and  C_3
REMARK    3  A    between atoms: C_2  and  C_10
REMARK    4  A    between atoms: C_3  and  C_4
REMARK    5  A    between atoms: C_13  and  O_14
REMARK    6  A    between atoms: O_14  and  P_15
REMARK    7  A    between atoms: P_15  and  O_17
REMARK    8  A    between atoms: P_15  and  O_18
REMARK                            x       y       z     vdW  Elec       q    Type
REMARK                         _______ _______ _______ _____ _____    ______ ____
ROOT
ATOM      1  C   UNL     1       2.262   7.473  19.302  0.00  0.00    +0.000 A 
ATOM      2  C   UNL     1       1.574   8.152  20.322  0.00  0.00    +0.000 A 
ATOM      3  C   UNL     1       0.932   9.365  20.079  0.00  0.00    +0.000 A 
ATOM      4  C   UNL     1       1.012   9.957  18.829  0.00  0.00    +0.000 A 
ATOM      5  C   UNL     1       1.771   9.366  17.829  0.00  0.00    +0.000 A 
ATOM      6  C   UNL     1       2.401   8.136  18.071  0.00  0.00    +0.000 A 
ENDROOT
BRANCH   1   8
ATOM      7  C   UNL     1       1.831   5.261  20.458  0.00  0.00    +0.000 C 
ATOM      8  C   UNL     1       2.798   6.051  19.548  0.00  0.00    +0.000 C 
BRANCH   8   9
ATOM      9  C   UNL     1       3.049   5.259  18.232  0.00  0.00    +0.000 C 
BRANCH   9  10
ATOM     10  C   UNL     1       4.499   5.058  17.845  0.00  0.00    +0.000 A 
ATOM     11  C   UNL     1       4.817   4.513  16.591  0.00  0.00    +0.000 A 
ATOM     12  C   UNL     1       6.148   4.296  16.229  0.00  0.00    +0.000 A 
ATOM     13  C   UNL     1       7.172   4.627  17.112  0.00  0.00    +0.000 A 
ATOM     14  C   UNL     1       6.867   5.185  18.353  0.00  0.00    +0.000 A 
ATOM     15  C   UNL     1       5.538   5.404  18.716  0.00  0.00    +0.000 A 
ENDBRANCH   9  10
ENDBRANCH   8   9
ENDBRANCH   1   8
BRANCH   4  16
ATOM     16  O   UNL     1       0.269  11.088  18.672  0.00  0.00    +0.000 OA
BRANCH  16  17
ATOM     17  P   UNL     1      -1.287  11.124  18.316  0.00  0.00    +0.000 P 
ATOM     18  O   UNL     1      -1.931   9.885  17.796  0.00  0.00    +0.000 OA
BRANCH  17  19
ATOM     19  O   UNL     1      -1.940  11.636  19.688  0.00  0.00    +0.000 OA
ATOM     20  H   UNL     1      -1.317  12.206  20.175  0.00  0.00    +0.000 HD
ENDBRANCH  17  19
BRANCH  17  21
ATOM     21  O   UNL     1      -1.464  12.409  17.386  0.00  0.00    +0.000 OA
ATOM     22  H   UNL     1      -2.176  12.984  17.710  0.00  0.00    +0.000 HD
ENDBRANCH  17  21
ENDBRANCH  16  17
ENDBRANCH   4  16
TORSDOF 7
ENDMDL
