MODEL 1
REMARK VINA RESULT:      -6.3      0.000      0.000
REMARK  Name = 
REMARK  13 active torsions:
REMARK  status: ('A' for Active; 'I' for Inactive)
REMARK    1  A    between atoms: C_1  and  C_2
REMARK    2  A    between atoms: C_2  and  O_4
REMARK    3  A    between atoms: O_4  and  C_5
REMARK    4  A    between atoms: C_5  and  C_6
REMARK    5  A    between atoms: C_7  and  C_8
REMARK    6  A    between atoms: C_8  and  O_10
REMARK    7  A    between atoms: O_10  and  C_11
REMARK    8  A    between atoms: C_11  and  C_12
REMARK    9  A    between atoms: C_11  and  C_13
REMARK   10  A    between atoms: C_11  and  C_14
REMARK   11  A    between atoms: C_18  and  N_19
REMARK   12  A    between atoms: C_20  and  C_22
REMARK   13  A    between atoms: C_22  and  C_23
REMARK                            x       y       z     vdW  Elec       q    Type
REMARK                         _______ _______ _______ _____ _____    ______ ____
ROOT
ATOM      1  C   UNL     1       0.386  12.720  20.249  0.00  0.00    +0.000 C 
ATOM      2  C   UNL     1      -0.013  11.825  21.204  0.00  0.00    +0.000 C 
ATOM      3  N   UNL     1       0.326  10.494  21.078  0.00  0.00    +0.000 N 
ATOM      4  C   UNL     1       0.030   9.283  21.623  0.00  0.00    +0.000 C 
ATOM      5  O   UNL     1      -0.603   8.873  22.562  0.00  0.00    +0.000 OA
ATOM      6  C   UNL     1       0.743   8.574  20.443  0.00  0.00    +0.000 C 
ATOM      7  C   UNL     1       1.368   9.959  20.189  0.00  0.00    +0.000 C 
ATOM      8  S   UNL     1       1.112  10.651  18.594  0.00  0.00    +0.000 S 
ATOM      9  O   UNL     1      -0.234  10.397  18.120  0.00  0.00    +0.000 OA
ATOM     10  O   UNL     1       2.263  10.391  17.746  0.00  0.00    +0.000 OA
ATOM     11  C   UNL     1       1.212  12.357  19.022  0.00  0.00    +0.000 C 
ENDROOT
BRANCH   6  12
ATOM     12  N   UNL     1       1.717   7.484  20.734  0.00  0.00    +0.000 N 
ATOM     13  C   UNL     1       2.245   6.799  19.654  0.00  0.00    +0.000 C 
ATOM     14  O   UNL     1       1.998   7.145  18.501  0.00  0.00    +0.000 OA
ATOM     15  H   UNL     1       1.713   7.020  21.639  0.00  0.00    +0.000 HD
BRANCH  13  16
ATOM     16  C   UNL     1       3.157   5.636  19.972  0.00  0.00    +0.000 C 
BRANCH  16  17
ATOM     17  C   UNL     1       2.599   4.378  19.389  0.00  0.00    +0.000 A 
ATOM     18  C   UNL     1       3.047   3.673  18.288  0.00  0.00    +0.000 A 
ATOM     19  C   UNL     1       2.259   2.516  18.029  0.00  0.00    +0.000 A 
ATOM     20  C   UNL     1       1.242   2.371  18.945  0.00  0.00    +0.000 A 
ATOM     21  S   UNL     1       1.242   3.621  20.110  0.00  0.00    +0.000 S 
ENDBRANCH  16  17
ENDBRANCH  13  16
ENDBRANCH   6  12
BRANCH   2  22
ATOM     22  C   UNL     1      -0.899  12.280  22.364  0.00  0.00    +0.000 C 
ATOM     23  O   UNL     1      -0.476  12.819  23.373  0.00  0.00    +0.000 OA
BRANCH  22  24
ATOM     24  O   UNL     1      -2.202  11.982  22.161  0.00  0.00    +0.000 OA
BRANCH  24  25
ATOM     25  C   UNL     1      -3.261  12.893  22.569  0.00  0.00    +0.000 C 
ATOM     26  C   UNL     1      -2.817  14.358  22.459  0.00  0.00    +0.000 C 
ATOM     27  C   UNL     1      -4.427  12.672  21.588  0.00  0.00    +0.000 C 
ATOM     28  C   UNL     1      -3.762  12.548  23.977  0.00  0.00    +0.000 C 
ENDBRANCH  24  25
ENDBRANCH  22  24
ENDBRANCH   2  22
BRANCH   1  29
ATOM     29  C   UNL     1       0.039  14.204  20.147  0.00  0.00    +0.000 C 
BRANCH  29  30
ATOM     30  O   UNL     1       1.239  14.964  20.410  0.00  0.00    +0.000 OA
BRANCH  30  32
ATOM     31  C   UNL     1       0.586  16.033  22.393  0.00  0.00    +0.000 C 
ATOM     32  C   UNL     1       1.579  15.136  21.717  0.00  0.00    +0.000 C 
ATOM     33  O   UNL     1       2.523  14.609  22.284  0.00  0.00    +0.000 OA
ENDBRANCH  30  32
ENDBRANCH  29  30
ENDBRANCH   1  29
TORSDOF 9
ENDMDL
MODEL 2
REMARK VINA RESULT:      -6.3      2.757      4.456
REMARK  Name = 
REMARK  13 active torsions:
REMARK  status: ('A' for Active; 'I' for Inactive)
REMARK    1  A    between atoms: C_1  and  C_2
REMARK    2  A    between atoms: C_2  and  O_4
REMARK    3  A    between atoms: O_4  and  C_5
REMARK    4  A    between atoms: C_5  and  C_6
REMARK    5  A    between atoms: C_7  and  C_8
REMARK    6  A    between atoms: C_8  and  O_10
REMARK    7  A    between atoms: O_10  and  C_11
REMARK    8  A    between atoms: C_11  and  C_12
REMARK    9  A    between atoms: C_11  and  C_13
REMARK   10  A    between atoms: C_11  and  C_14
REMARK   11  A    between atoms: C_18  and  N_19
REMARK   12  A    between atoms: C_20  and  C_22
REMARK   13  A    between atoms: C_22  and  C_23
REMARK                            x       y       z     vdW  Elec       q    Type
REMARK                         _______ _______ _______ _____ _____    ______ ____
ROOT
ATOM      1  C   UNL     1      -1.704  11.746  21.137  0.00  0.00    +0.000 C 
ATOM      2  C   UNL     1      -1.443  11.285  19.875  0.00  0.00    +0.000 C 
ATOM      3  N   UNL     1      -0.477  10.320  19.687  0.00  0.00    +0.000 N 
ATOM      4  C   UNL     1       0.223   9.721  18.685  0.00  0.00    +0.000 C 
ATOM      5  O   UNL     1       0.202   9.716  17.480  0.00  0.00    +0.000 OA
ATOM      6  C   UNL     1       1.200   9.114  19.724  0.00  0.00    +0.000 C 
ATOM      7  C   UNL     1       0.097   9.468  20.739  0.00  0.00    +0.000 C 
ATOM      8  S   UNL     1       0.566  10.514  22.072  0.00  0.00    +0.000 S 
ATOM      9  O   UNL     1       1.465  11.561  21.627  0.00  0.00    +0.000 OA
ATOM     10  O   UNL     1       0.873   9.717  23.248  0.00  0.00    +0.000 OA
ATOM     11  C   UNL     1      -0.998  11.257  22.394  0.00  0.00    +0.000 C 
ENDROOT
BRANCH   6  12
ATOM     12  N   UNL     1       1.541   7.666  19.639  0.00  0.00    +0.000 N 
ATOM     13  C   UNL     1       2.473   7.288  18.688  0.00  0.00    +0.000 C 
ATOM     14  O   UNL     1       3.066   8.127  18.014  0.00  0.00    +0.000 OA
ATOM     15  H   UNL     1       0.886   6.963  19.973  0.00  0.00    +0.000 HD
BRANCH  13  16
ATOM     16  C   UNL     1       2.737   5.806  18.552  0.00  0.00    +0.000 C 
BRANCH  16  17
ATOM     17  C   UNL     1       4.199   5.565  18.361  0.00  0.00    +0.000 A 
ATOM     18  C   UNL     1       5.180   5.449  19.327  0.00  0.00    +0.000 A 
ATOM     19  C   UNL     1       6.469   5.221  18.765  0.00  0.00    +0.000 A 
ATOM     20  C   UNL     1       6.427   5.162  17.390  0.00  0.00    +0.000 A 
ATOM     21  S   UNL     1       4.843   5.377  16.785  0.00  0.00    +0.000 S 
ENDBRANCH  16  17
ENDBRANCH  13  16
ENDBRANCH   6  12
BRANCH   2  22
ATOM     22  C   UNL     1      -2.161  11.892  18.670  0.00  0.00    +0.000 C 
ATOM     23  O   UNL     1      -1.591  12.464  17.755  0.00  0.00    +0.000 OA
BRANCH  22  24
ATOM     24  O   UNL     1      -3.503  11.756  18.750  0.00  0.00    +0.000 OA
BRANCH  24  25
ATOM     25  C   UNL     1      -4.236  10.896  17.831  0.00  0.00    +0.000 C 
ATOM     26  C   UNL     1      -3.489   9.580  17.576  0.00  0.00    +0.000 C 
ATOM     27  C   UNL     1      -5.571  10.561  18.520  0.00  0.00    +0.000 C 
ATOM     28  C   UNL     1      -4.554  11.640  16.528  0.00  0.00    +0.000 C 
ENDBRANCH  24  25
ENDBRANCH  22  24
ENDBRANCH   2  22
BRANCH   1  29
ATOM     29  C   UNL     1      -2.654  12.869  21.550  0.00  0.00    +0.000 C 
BRANCH  29  30
ATOM     30  O   UNL     1      -3.751  12.281  22.282  0.00  0.00    +0.000 OA
BRANCH  30  32
ATOM     31  C   UNL     1      -4.281  12.467  24.559  0.00  0.00    +0.000 C 
ATOM     32  C   UNL     1      -4.374  13.078  23.194  0.00  0.00    +0.000 C 
ATOM     33  O   UNL     1      -4.895  14.157  22.960  0.00  0.00    +0.000 OA
ENDBRANCH  30  32
ENDBRANCH  29  30
ENDBRANCH   1  29
TORSDOF 9
ENDMDL
MODEL 3
REMARK VINA RESULT:      -6.2      1.155      1.668
REMARK  Name = 
REMARK  13 active torsions:
REMARK  status: ('A' for Active; 'I' for Inactive)
REMARK    1  A    between atoms: C_1  and  C_2
REMARK    2  A    between atoms: C_2  and  O_4
REMARK    3  A    between atoms: O_4  and  C_5
REMARK    4  A    between atoms: C_5  and  C_6
REMARK    5  A    between atoms: C_7  and  C_8
REMARK    6  A    between atoms: C_8  and  O_10
REMARK    7  A    between atoms: O_10  and  C_11
REMARK    8  A    between atoms: C_11  and  C_12
REMARK    9  A    between atoms: C_11  and  C_13
REMARK   10  A    between atoms: C_11  and  C_14
REMARK   11  A    between atoms: C_18  and  N_19
REMARK   12  A    between atoms: C_20  and  C_22
REMARK   13  A    between atoms: C_22  and  C_23
REMARK                            x       y       z     vdW  Elec       q    Type
REMARK                         _______ _______ _______ _____ _____    ______ ____
ROOT
ATOM      1  C   UNL     1       0.306  12.802  20.188  0.00  0.00    +0.000 C 
ATOM      2  C   UNL     1      -0.034  11.922  21.179  0.00  0.00    +0.000 C 
ATOM      3  N   UNL     1       0.329  10.596  21.072  0.00  0.00    +0.000 N 
ATOM      4  C   UNL     1       0.084   9.392  21.656  0.00  0.00    +0.000 C 
ATOM      5  O   UNL     1      -0.502   8.993  22.630  0.00  0.00    +0.000 OA
ATOM      6  C   UNL     1       0.765   8.671  20.466  0.00  0.00    +0.000 C 
ATOM      7  C   UNL     1       1.346  10.062  20.154  0.00  0.00    +0.000 C 
ATOM      8  S   UNL     1       1.011  10.709  18.554  0.00  0.00    +0.000 S 
ATOM      9  O   UNL     1      -0.347  10.414  18.142  0.00  0.00    +0.000 OA
ATOM     10  O   UNL     1       2.133  10.453  17.667  0.00  0.00    +0.000 OA
ATOM     11  C   UNL     1       1.089  12.427  18.937  0.00  0.00    +0.000 C 
ENDROOT
BRANCH   6  12
ATOM     12  N   UNL     1       1.773   7.609  20.743  0.00  0.00    +0.000 N 
ATOM     13  C   UNL     1       2.302   6.936  19.656  0.00  0.00    +0.000 C 
ATOM     14  O   UNL     1       2.024   7.270  18.507  0.00  0.00    +0.000 OA
ATOM     15  H   UNL     1       1.799   7.149  21.650  0.00  0.00    +0.000 HD
BRANCH  13  16
ATOM     16  C   UNL     1       3.252   5.800  19.962  0.00  0.00    +0.000 C 
BRANCH  16  17
ATOM     17  C   UNL     1       2.479   4.544  20.209  0.00  0.00    +0.000 A 
ATOM     18  C   UNL     1       2.181   3.948  21.419  0.00  0.00    +0.000 A 
ATOM     19  C   UNL     1       1.423   2.753  21.260  0.00  0.00    +0.000 A 
ATOM     20  C   UNL     1       1.160   2.482  19.936  0.00  0.00    +0.000 A 
ATOM     21  S   UNL     1       1.822   3.664  18.894  0.00  0.00    +0.000 S 
ENDBRANCH  16  17
ENDBRANCH  13  16
ENDBRANCH   6  12
BRANCH   2  22
ATOM     22  C   UNL     1      -0.883  12.386  22.363  0.00  0.00    +0.000 C 
ATOM     23  O   UNL     1      -0.443  13.014  23.312  0.00  0.00    +0.000 OA
BRANCH  22  24
ATOM     24  O   UNL     1      -2.171  11.988  22.258  0.00  0.00    +0.000 OA
BRANCH  24  25
ATOM     25  C   UNL     1      -3.272  12.913  22.483  0.00  0.00    +0.000 C 
ATOM     26  C   UNL     1      -4.422  12.670  21.495  0.00  0.00    +0.000 C 
ATOM     27  C   UNL     1      -3.795  12.630  23.903  0.00  0.00    +0.000 C 
ATOM     28  C   UNL     1      -2.779  14.365  22.445  0.00  0.00    +0.000 C 
ENDBRANCH  24  25
ENDBRANCH  22  24
ENDBRANCH   2  22
BRANCH   1  29
ATOM     29  C   UNL     1      -0.079  14.275  20.065  0.00  0.00    +0.000 C 
BRANCH  29  30
ATOM     30  O   UNL     1       0.877  14.916  19.194  0.00  0.00    +0.000 OA
BRANCH  30  32
ATOM     31  C   UNL     1      -0.778  16.572  19.054  0.00  0.00    +0.000 C 
ATOM     32  C   UNL     1       0.678  16.238  18.936  0.00  0.00    +0.000 C 
ATOM     33  O   UNL     1       1.550  17.056  18.688  0.00  0.00    +0.000 OA
ENDBRANCH  30  32
ENDBRANCH  29  30
ENDBRANCH   1  29
TORSDOF 9
ENDMDL
MODEL 4
REMARK VINA RESULT:      -6.0      2.478      4.193
REMARK  Name = 
REMARK  13 active torsions:
REMARK  status: ('A' for Active; 'I' for Inactive)
REMARK    1  A    between atoms: C_1  and  C_2
REMARK    2  A    between atoms: C_2  and  O_4
REMARK    3  A    between atoms: O_4  and  C_5
REMARK    4  A    between atoms: C_5  and  C_6
REMARK    5  A    between atoms: C_7  and  C_8
REMARK    6  A    between atoms: C_8  and  O_10
REMARK    7  A    between atoms: O_10  and  C_11
REMARK    8  A    between atoms: C_11  and  C_12
REMARK    9  A    between atoms: C_11  and  C_13
REMARK   10  A    between atoms: C_11  and  C_14
REMARK   11  A    between atoms: C_18  and  N_19
REMARK   12  A    between atoms: C_20  and  C_22
REMARK   13  A    between atoms: C_22  and  C_23
REMARK                            x       y       z     vdW  Elec       q    Type
REMARK                         _______ _______ _______ _____ _____    ______ ____
ROOT
ATOM      1  C   UNL     1      -1.341  11.612  21.090  0.00  0.00    +0.000 C 
ATOM      2  C   UNL     1      -1.054  11.267  19.798  0.00  0.00    +0.000 C 
ATOM      3  N   UNL     1      -0.154  10.253  19.545  0.00  0.00    +0.000 N 
ATOM      4  C   UNL     1       0.548   9.710  18.513  0.00  0.00    +0.000 C 
ATOM      5  O   UNL     1       0.586   9.834  17.315  0.00  0.00    +0.000 OA
ATOM      6  C   UNL     1       1.423   8.921  19.519  0.00  0.00    +0.000 C 
ATOM      7  C   UNL     1       0.301   9.252  20.521  0.00  0.00    +0.000 C 
ATOM      8  S   UNL     1       0.782  10.111  21.977  0.00  0.00    +0.000 S 
ATOM      9  O   UNL     1       1.777  11.124  21.686  0.00  0.00    +0.000 OA
ATOM     10  O   UNL     1       0.969   9.172  23.071  0.00  0.00    +0.000 OA
ATOM     11  C   UNL     1      -0.737  10.938  22.315  0.00  0.00    +0.000 C 
ENDROOT
BRANCH   6  12
ATOM     12  N   UNL     1       1.660   7.467  19.291  0.00  0.00    +0.000 N 
ATOM     13  C   UNL     1       2.652   7.118  18.392  0.00  0.00    +0.000 C 
ATOM     14  O   UNL     1       3.374   7.972  17.882  0.00  0.00    +0.000 OA
ATOM     15  H   UNL     1       0.922   6.792  19.474  0.00  0.00    +0.000 HD
BRANCH  13  16
ATOM     16  C   UNL     1       2.813   5.644  18.102  0.00  0.00    +0.000 C 
BRANCH  16  17
ATOM     17  C   UNL     1       2.361   4.841  19.279  0.00  0.00    +0.000 A 
ATOM     18  C   UNL     1       2.784   4.936  20.591  0.00  0.00    +0.000 A 
ATOM     19  C   UNL     1       2.126   4.001  21.440  0.00  0.00    +0.000 A 
ATOM     20  C   UNL     1       1.216   3.232  20.751  0.00  0.00    +0.000 A 
ATOM     21  S   UNL     1       1.157   3.638  19.091  0.00  0.00    +0.000 S 
ENDBRANCH  16  17
ENDBRANCH  13  16
ENDBRANCH   6  12
BRANCH   2  22
ATOM     22  C   UNL     1      -1.663  12.053  18.637  0.00  0.00    +0.000 C 
ATOM     23  O   UNL     1      -1.051  12.874  17.975  0.00  0.00    +0.000 OA
BRANCH  22  24
ATOM     24  O   UNL     1      -2.970  11.763  18.451  0.00  0.00    +0.000 OA
BRANCH  24  25
ATOM     25  C   UNL     1      -3.410  10.906  17.360  0.00  0.00    +0.000 C 
ATOM     26  C   UNL     1      -3.470   9.434  17.789  0.00  0.00    +0.000 C 
ATOM     27  C   UNL     1      -4.838  11.357  17.001  0.00  0.00    +0.000 C 
ATOM     28  C   UNL     1      -2.530  11.109  16.121  0.00  0.00    +0.000 C 
ENDBRANCH  24  25
ENDBRANCH  22  24
ENDBRANCH   2  22
BRANCH   1  29
ATOM     29  C   UNL     1      -2.223  12.757  21.584  0.00  0.00    +0.000 C 
BRANCH  29  30
ATOM     30  O   UNL     1      -2.850  12.340  22.816  0.00  0.00    +0.000 OA
BRANCH  30  32
ATOM     31  C   UNL     1      -4.052  13.938  24.043  0.00  0.00    +0.000 C 
ATOM     32  C   UNL     1      -4.105  12.814  23.054  0.00  0.00    +0.000 C 
ATOM     33  O   UNL     1      -5.128  12.423  22.514  0.00  0.00    +0.000 OA
ENDBRANCH  30  32
ENDBRANCH  29  30
ENDBRANCH   1  29
TORSDOF 9
ENDMDL
MODEL 5
REMARK VINA RESULT:      -6.0      1.117      1.524
REMARK  Name = 
REMARK  13 active torsions:
REMARK  status: ('A' for Active; 'I' for Inactive)
REMARK    1  A    between atoms: C_1  and  C_2
REMARK    2  A    between atoms: C_2  and  O_4
REMARK    3  A    between atoms: O_4  and  C_5
REMARK    4  A    between atoms: C_5  and  C_6
REMARK    5  A    between atoms: C_7  and  C_8
REMARK    6  A    between atoms: C_8  and  O_10
REMARK    7  A    between atoms: O_10  and  C_11
REMARK    8  A    between atoms: C_11  and  C_12
REMARK    9  A    between atoms: C_11  and  C_13
REMARK   10  A    between atoms: C_11  and  C_14
REMARK   11  A    between atoms: C_18  and  N_19
REMARK   12  A    between atoms: C_20  and  C_22
REMARK   13  A    between atoms: C_22  and  C_23
REMARK                            x       y       z     vdW  Elec       q    Type
REMARK                         _______ _______ _______ _____ _____    ______ ____
ROOT
ATOM      1  C   UNL     1       0.336  12.492  19.976  0.00  0.00    +0.000 C 
ATOM      2  C   UNL     1      -0.013  11.650  20.997  0.00  0.00    +0.000 C 
ATOM      3  N   UNL     1       0.353  10.322  20.943  0.00  0.00    +0.000 N 
ATOM      4  C   UNL     1       0.102   9.141  21.571  0.00  0.00    +0.000 C 
ATOM      5  O   UNL     1      -0.493   8.778  22.554  0.00  0.00    +0.000 OA
ATOM      6  C   UNL     1       0.794   8.375  20.415  0.00  0.00    +0.000 C 
ATOM      7  C   UNL     1       1.378   9.754  20.056  0.00  0.00    +0.000 C 
ATOM      8  S   UNL     1       1.057  10.339  18.430  0.00  0.00    +0.000 S 
ATOM      9  O   UNL     1      -0.297  10.027  18.016  0.00  0.00    +0.000 OA
ATOM     10  O   UNL     1       2.188  10.050  17.563  0.00  0.00    +0.000 OA
ATOM     11  C   UNL     1       1.131  12.070  18.747  0.00  0.00    +0.000 C 
ENDROOT
BRANCH   6  12
ATOM     12  N   UNL     1       1.801   7.326  20.742  0.00  0.00    +0.000 N 
ATOM     13  C   UNL     1       2.324   6.597  19.688  0.00  0.00    +0.000 C 
ATOM     14  O   UNL     1       2.043   6.874  18.525  0.00  0.00    +0.000 OA
ATOM     15  H   UNL     1       1.829   6.911  21.670  0.00  0.00    +0.000 HD
BRANCH  13  16
ATOM     16  C   UNL     1       3.271   5.475  20.047  0.00  0.00    +0.000 C 
BRANCH  16  17
ATOM     17  C   UNL     1       2.800   4.196  19.433  0.00  0.00    +0.000 A 
ATOM     18  C   UNL     1       1.602   3.539  19.640  0.00  0.00    +0.000 A 
ATOM     19  C   UNL     1       1.505   2.340  18.877  0.00  0.00    +0.000 A 
ATOM     20  C   UNL     1       2.627   2.127  18.108  0.00  0.00    +0.000 A 
ATOM     21  S   UNL     1       3.786   3.367  18.304  0.00  0.00    +0.000 S 
ENDBRANCH  16  17
ENDBRANCH  13  16
ENDBRANCH   6  12
BRANCH   2  22
ATOM     22  C   UNL     1      -0.873  12.158  22.154  0.00  0.00    +0.000 C 
ATOM     23  O   UNL     1      -0.421  12.676  23.162  0.00  0.00    +0.000 OA
BRANCH  22  24
ATOM     24  O   UNL     1      -2.190  11.934  21.951  0.00  0.00    +0.000 OA
BRANCH  24  25
ATOM     25  C   UNL     1      -3.202  12.861  22.436  0.00  0.00    +0.000 C 
ATOM     26  C   UNL     1      -3.509  12.632  23.923  0.00  0.00    +0.000 C 
ATOM     27  C   UNL     1      -2.607  14.273  22.284  0.00  0.00    +0.000 C 
ATOM     28  C   UNL     1      -4.465  12.789  21.570  0.00  0.00    +0.000 C 
ENDBRANCH  24  25
ENDBRANCH  22  24
ENDBRANCH   2  22
BRANCH   1  29
ATOM     29  C   UNL     1      -0.049  13.959  19.794  0.00  0.00    +0.000 C 
BRANCH  29  30
ATOM     30  O   UNL     1       1.131  14.762  20.013  0.00  0.00    +0.000 OA
BRANCH  30  32
ATOM     31  C   UNL     1       0.363  16.671  18.888  0.00  0.00    +0.000 C 
ATOM     32  C   UNL     1       1.454  15.654  19.036  0.00  0.00    +0.000 C 
ATOM     33  O   UNL     1       2.494  15.667  18.398  0.00  0.00    +0.000 OA
ENDBRANCH  30  32
ENDBRANCH  29  30
ENDBRANCH   1  29
TORSDOF 9
ENDMDL
MODEL 6
REMARK VINA RESULT:      -6.0      1.015      1.371
REMARK  Name = 
REMARK  13 active torsions:
REMARK  status: ('A' for Active; 'I' for Inactive)
REMARK    1  A    between atoms: C_1  and  C_2
REMARK    2  A    between atoms: C_2  and  O_4
REMARK    3  A    between atoms: O_4  and  C_5
REMARK    4  A    between atoms: C_5  and  C_6
REMARK    5  A    between atoms: C_7  and  C_8
REMARK    6  A    between atoms: C_8  and  O_10
REMARK    7  A    between atoms: O_10  and  C_11
REMARK    8  A    between atoms: C_11  and  C_12
REMARK    9  A    between atoms: C_11  and  C_13
REMARK   10  A    between atoms: C_11  and  C_14
REMARK   11  A    between atoms: C_18  and  N_19
REMARK   12  A    between atoms: C_20  and  C_22
REMARK   13  A    between atoms: C_22  and  C_23
REMARK                            x       y       z     vdW  Elec       q    Type
REMARK                         _______ _______ _______ _____ _____    ______ ____
ROOT
ATOM      1  C   UNL     1       0.432  12.700  20.080  0.00  0.00    +0.000 C 
ATOM      2  C   UNL     1       0.048  11.859  21.089  0.00  0.00    +0.000 C 
ATOM      3  N   UNL     1       0.365  10.519  21.021  0.00  0.00    +0.000 N 
ATOM      4  C   UNL     1       0.069   9.341  21.633  0.00  0.00    +0.000 C 
ATOM      5  O   UNL     1      -0.543   8.988  22.609  0.00  0.00    +0.000 OA
ATOM      6  C   UNL     1       0.738   8.564  20.471  0.00  0.00    +0.000 C 
ATOM      7  C   UNL     1       1.374   9.925  20.131  0.00  0.00    +0.000 C 
ATOM      8  S   UNL     1       1.082  10.541  18.511  0.00  0.00    +0.000 S 
ATOM      9  O   UNL     1      -0.280  10.284  18.088  0.00  0.00    +0.000 OA
ATOM     10  O   UNL     1       2.205  10.221  17.645  0.00  0.00    +0.000 OA
ATOM     11  C   UNL     1       1.217  12.265  18.850  0.00  0.00    +0.000 C 
ENDROOT
BRANCH   6  12
ATOM     12  N   UNL     1       1.704   7.475  20.789  0.00  0.00    +0.000 N 
ATOM     13  C   UNL     1       2.217   6.750  19.728  0.00  0.00    +0.000 C 
ATOM     14  O   UNL     1       1.962   7.060  18.566  0.00  0.00    +0.000 OA
ATOM     15  H   UNL     1       1.705   7.041  21.709  0.00  0.00    +0.000 HD
BRANCH  13  16
ATOM     16  C   UNL     1       3.121   5.590  20.075  0.00  0.00    +0.000 C 
BRANCH  16  17
ATOM     17  C   UNL     1       2.585   4.330  19.475  0.00  0.00    +0.000 A 
ATOM     18  C   UNL     1       3.096   3.602  18.417  0.00  0.00    +0.000 A 
ATOM     19  C   UNL     1       2.310   2.451  18.124  0.00  0.00    +0.000 A 
ATOM     20  C   UNL     1       1.232   2.334  18.972  0.00  0.00    +0.000 A 
ATOM     21  S   UNL     1       1.173   3.603  20.116  0.00  0.00    +0.000 S 
ENDBRANCH  16  17
ENDBRANCH  13  16
ENDBRANCH   6  12
BRANCH   2  22
ATOM     22  C   UNL     1      -0.798  12.385  22.249  0.00  0.00    +0.000 C 
ATOM     23  O   UNL     1      -0.347  13.023  23.186  0.00  0.00    +0.000 OA
BRANCH  22  24
ATOM     24  O   UNL     1      -2.097  12.029  22.138  0.00  0.00    +0.000 OA
BRANCH  24  25
ATOM     25  C   UNL     1      -3.127  13.006  21.817  0.00  0.00    +0.000 C 
ATOM     26  C   UNL     1      -2.622  14.442  22.016  0.00  0.00    +0.000 C 
ATOM     27  C   UNL     1      -3.455  12.818  20.325  0.00  0.00    +0.000 C 
ATOM     28  C   UNL     1      -4.406  12.731  22.617  0.00  0.00    +0.000 C 
ENDBRANCH  24  25
ENDBRANCH  22  24
ENDBRANCH   2  22
BRANCH   1  29
ATOM     29  C   UNL     1       0.103  14.182  19.914  0.00  0.00    +0.000 C 
BRANCH  29  30
ATOM     30  O   UNL     1       1.336  14.890  19.667  0.00  0.00    +0.000 OA
BRANCH  30  32
ATOM     31  C   UNL     1       2.650  16.331  18.364  0.00  0.00    +0.000 C 
ATOM     32  C   UNL     1       1.273  15.949  18.813  0.00  0.00    +0.000 C 
ATOM     33  O   UNL     1       0.250  16.490  18.423  0.00  0.00    +0.000 OA
ENDBRANCH  30  32
ENDBRANCH  29  30
ENDBRANCH   1  29
TORSDOF 9
ENDMDL
MODEL 7
REMARK VINA RESULT:      -6.0      0.824      1.115
REMARK  Name = 
REMARK  13 active torsions:
REMARK  status: ('A' for Active; 'I' for Inactive)
REMARK    1  A    between atoms: C_1  and  C_2
REMARK    2  A    between atoms: C_2  and  O_4
REMARK    3  A    between atoms: O_4  and  C_5
REMARK    4  A    between atoms: C_5  and  C_6
REMARK    5  A    between atoms: C_7  and  C_8
REMARK    6  A    between atoms: C_8  and  O_10
REMARK    7  A    between atoms: O_10  and  C_11
REMARK    8  A    between atoms: C_11  and  C_12
REMARK    9  A    between atoms: C_11  and  C_13
REMARK   10  A    between atoms: C_11  and  C_14
REMARK   11  A    between atoms: C_18  and  N_19
REMARK   12  A    between atoms: C_20  and  C_22
REMARK   13  A    between atoms: C_22  and  C_23
REMARK                            x       y       z     vdW  Elec       q    Type
REMARK                         _______ _______ _______ _____ _____    ______ ____
ROOT
ATOM      1  C   UNL     1       0.232  12.649  20.078  0.00  0.00    +0.000 C 
ATOM      2  C   UNL     1      -0.127  11.765  21.059  0.00  0.00    +0.000 C 
ATOM      3  N   UNL     1       0.272  10.448  20.972  0.00  0.00    +0.000 N 
ATOM      4  C   UNL     1       0.031   9.240  21.552  0.00  0.00    +0.000 C 
ATOM      5  O   UNL     1      -0.585   8.831  22.503  0.00  0.00    +0.000 OA
ATOM      6  C   UNL     1       0.776   8.531  20.394  0.00  0.00    +0.000 C 
ATOM      7  C   UNL     1       1.337   9.934  20.099  0.00  0.00    +0.000 C 
ATOM      8  S   UNL     1       1.053  10.567  18.484  0.00  0.00    +0.000 S 
ATOM      9  O   UNL     1      -0.280  10.238  18.018  0.00  0.00    +0.000 OA
ATOM     10  O   UNL     1       2.216  10.334  17.645  0.00  0.00    +0.000 OA
ATOM     11  C   UNL     1       1.075  12.288  18.862  0.00  0.00    +0.000 C 
ENDROOT
BRANCH   6  12
ATOM     12  N   UNL     1       1.798   7.495  20.717  0.00  0.00    +0.000 N 
ATOM     13  C   UNL     1       2.344   6.790  19.659  0.00  0.00    +0.000 C 
ATOM     14  O   UNL     1       2.071   7.078  18.496  0.00  0.00    +0.000 OA
ATOM     15  H   UNL     1       1.823   7.068  21.640  0.00  0.00    +0.000 HD
BRANCH  13  16
ATOM     16  C   UNL     1       3.307   5.679  20.012  0.00  0.00    +0.000 C 
BRANCH  16  17
ATOM     17  C   UNL     1       2.645   4.353  19.823  0.00  0.00    +0.000 A 
ATOM     18  C   UNL     1       1.477   3.890  20.399  0.00  0.00    +0.000 A 
ATOM     19  C   UNL     1       1.155   2.568  19.981  0.00  0.00    +0.000 A 
ATOM     20  C   UNL     1       2.081   2.069  19.093  0.00  0.00    +0.000 A 
ATOM     21  S   UNL     1       3.328   3.192  18.766  0.00  0.00    +0.000 S 
ENDBRANCH  16  17
ENDBRANCH  13  16
ENDBRANCH   6  12
BRANCH   2  22
ATOM     22  C   UNL     1      -1.035  12.213  22.205  0.00  0.00    +0.000 C 
ATOM     23  O   UNL     1      -0.624  12.630  23.275  0.00  0.00    +0.000 OA
BRANCH  22  24
ATOM     24  O   UNL     1      -2.345  12.059  21.912  0.00  0.00    +0.000 OA
BRANCH  24  25
ATOM     25  C   UNL     1      -3.356  12.954  22.457  0.00  0.00    +0.000 C 
ATOM     26  C   UNL     1      -2.946  14.425  22.303  0.00  0.00    +0.000 C 
ATOM     27  C   UNL     1      -4.632  12.725  21.628  0.00  0.00    +0.000 C 
ATOM     28  C   UNL     1      -3.672  12.594  23.914  0.00  0.00    +0.000 C 
ENDBRANCH  24  25
ENDBRANCH  22  24
ENDBRANCH   2  22
BRANCH   1  29
ATOM     29  C   UNL     1      -0.182  14.112  19.933  0.00  0.00    +0.000 C 
BRANCH  29  30
ATOM     30  O   UNL     1       0.715  14.912  20.732  0.00  0.00    +0.000 OA
BRANCH  30  32
ATOM     31  C   UNL     1       0.366  16.038  22.761  0.00  0.00    +0.000 C 
ATOM     32  C   UNL     1       0.201  16.053  21.272  0.00  0.00    +0.000 C 
ATOM     33  O   UNL     1      -0.285  16.981  20.645  0.00  0.00    +0.000 OA
ENDBRANCH  30  32
ENDBRANCH  29  30
ENDBRANCH   1  29
TORSDOF 9
ENDMDL
MODEL 8
REMARK VINA RESULT:      -5.9      2.707      3.929
REMARK  Name = 
REMARK  13 active torsions:
REMARK  status: ('A' for Active; 'I' for Inactive)
REMARK    1  A    between atoms: C_1  and  C_2
REMARK    2  A    between atoms: C_2  and  O_4
REMARK    3  A    between atoms: O_4  and  C_5
REMARK    4  A    between atoms: C_5  and  C_6
REMARK    5  A    between atoms: C_7  and  C_8
REMARK    6  A    between atoms: C_8  and  O_10
REMARK    7  A    between atoms: O_10  and  C_11
REMARK    8  A    between atoms: C_11  and  C_12
REMARK    9  A    between atoms: C_11  and  C_13
REMARK   10  A    between atoms: C_11  and  C_14
REMARK   11  A    between atoms: C_18  and  N_19
REMARK   12  A    between atoms: C_20  and  C_22
REMARK   13  A    between atoms: C_22  and  C_23
REMARK                            x       y       z     vdW  Elec       q    Type
REMARK                         _______ _______ _______ _____ _____    ______ ____
ROOT
ATOM      1  C   UNL     1      -1.397  11.826  20.973  0.00  0.00    +0.000 C 
ATOM      2  C   UNL     1      -1.080  11.381  19.718  0.00  0.00    +0.000 C 
ATOM      3  N   UNL     1      -0.201  10.330  19.567  0.00  0.00    +0.000 N 
ATOM      4  C   UNL     1       0.517   9.696  18.600  0.00  0.00    +0.000 C 
ATOM      5  O   UNL     1       0.594   9.733  17.398  0.00  0.00    +0.000 OA
ATOM      6  C   UNL     1       1.340   8.960  19.687  0.00  0.00    +0.000 C 
ATOM      7  C   UNL     1       0.197   9.391  20.626  0.00  0.00    +0.000 C 
ATOM      8  S   UNL     1       0.657  10.340  22.032  0.00  0.00    +0.000 S 
ATOM      9  O   UNL     1       1.687  11.304  21.702  0.00  0.00    +0.000 OA
ATOM     10  O   UNL     1       0.785   9.478  23.195  0.00  0.00    +0.000 OA
ATOM     11  C   UNL     1      -0.848  11.227  22.261  0.00  0.00    +0.000 C 
ENDROOT
BRANCH   6  12
ATOM     12  N   UNL     1       1.543   7.488  19.570  0.00  0.00    +0.000 N 
ATOM     13  C   UNL     1       2.489   7.048  18.662  0.00  0.00    +0.000 C 
ATOM     14  O   UNL     1       3.201   7.843  18.052  0.00  0.00    +0.000 OA
ATOM     15  H   UNL     1       0.804   6.844  19.841  0.00  0.00    +0.000 HD
BRANCH  13  16
ATOM     16  C   UNL     1       2.614   5.551  18.488  0.00  0.00    +0.000 C 
BRANCH  16  17
ATOM     17  C   UNL     1       3.998   5.205  18.042  0.00  0.00    +0.000 A 
ATOM     18  C   UNL     1       4.436   4.907  16.766  0.00  0.00    +0.000 A 
ATOM     19  C   UNL     1       5.831   4.626  16.725  0.00  0.00    +0.000 A 
ATOM     20  C   UNL     1       6.413   4.728  17.967  0.00  0.00    +0.000 A 
ATOM     21  S   UNL     1       5.283   5.163  19.174  0.00  0.00    +0.000 S 
ENDBRANCH  16  17
ENDBRANCH  13  16
ENDBRANCH   6  12
BRANCH   2  22
ATOM     22  C   UNL     1      -1.633  12.097  18.486  0.00  0.00    +0.000 C 
ATOM     23  O   UNL     1      -0.975  12.843  17.779  0.00  0.00    +0.000 OA
BRANCH  22  24
ATOM     24  O   UNL     1      -2.945  11.839  18.288  0.00  0.00    +0.000 OA
BRANCH  24  25
ATOM     25  C   UNL     1      -3.389  10.894  17.273  0.00  0.00    +0.000 C 
ATOM     26  C   UNL     1      -3.408   9.457  17.813  0.00  0.00    +0.000 C 
ATOM     27  C   UNL     1      -4.833  11.288  16.914  0.00  0.00    +0.000 C 
ATOM     28  C   UNL     1      -2.538  11.021  16.004  0.00  0.00    +0.000 C 
ENDBRANCH  24  25
ENDBRANCH  22  24
ENDBRANCH   2  22
BRANCH   1  29
ATOM     29  C   UNL     1      -2.262  13.025  21.355  0.00  0.00    +0.000 C 
BRANCH  29  30
ATOM     30  O   UNL     1      -1.422  13.985  22.032  0.00  0.00    +0.000 OA
BRANCH  30  32
ATOM     31  C   UNL     1       0.733  14.893  21.858  0.00  0.00    +0.000 C 
ATOM     32  C   UNL     1      -0.628  14.763  21.245  0.00  0.00    +0.000 C 
ATOM     33  O   UNL     1      -0.946  15.251  20.172  0.00  0.00    +0.000 OA
ENDBRANCH  30  32
ENDBRANCH  29  30
ENDBRANCH   1  29
TORSDOF 9
ENDMDL
MODEL 9
REMARK VINA RESULT:      -5.9      2.728      4.693
REMARK  Name = 
REMARK  13 active torsions:
REMARK  status: ('A' for Active; 'I' for Inactive)
REMARK    1  A    between atoms: C_1  and  C_2
REMARK    2  A    between atoms: C_2  and  O_4
REMARK    3  A    between atoms: O_4  and  C_5
REMARK    4  A    between atoms: C_5  and  C_6
REMARK    5  A    between atoms: C_7  and  C_8
REMARK    6  A    between atoms: C_8  and  O_10
REMARK    7  A    between atoms: O_10  and  C_11
REMARK    8  A    between atoms: C_11  and  C_12
REMARK    9  A    between atoms: C_11  and  C_13
REMARK   10  A    between atoms: C_11  and  C_14
REMARK   11  A    between atoms: C_18  and  N_19
REMARK   12  A    between atoms: C_20  and  C_22
REMARK   13  A    between atoms: C_22  and  C_23
REMARK                            x       y       z     vdW  Elec       q    Type
REMARK                         _______ _______ _______ _____ _____    ______ ____
ROOT
ATOM      1  C   UNL     1      -2.946  12.521  20.967  0.00  0.00    +0.000 C 
ATOM      2  C   UNL     1      -3.168  11.987  19.726  0.00  0.00    +0.000 C 
ATOM      3  N   UNL     1      -2.132  11.383  19.046  0.00  0.00    +0.000 N 
ATOM      4  C   UNL     1      -1.829  10.908  17.807  0.00  0.00    +0.000 C 
ATOM      5  O   UNL     1      -2.417  10.715  16.773  0.00  0.00    +0.000 OA
ATOM      6  C   UNL     1      -0.332  10.827  18.200  0.00  0.00    +0.000 C 
ATOM      7  C   UNL     1      -0.862  10.942  19.641  0.00  0.00    +0.000 C 
ATOM      8  S   UNL     1      -0.234  12.273  20.602  0.00  0.00    +0.000 S 
ATOM      9  O   UNL     1      -0.108  13.480  19.809  0.00  0.00    +0.000 OA
ATOM     10  O   UNL     1       0.860  11.811  21.439  0.00  0.00    +0.000 OA
ATOM     11  C   UNL     1      -1.605  12.491  21.687  0.00  0.00    +0.000 C 
ENDROOT
BRANCH   6  12
ATOM     12  N   UNL     1       0.429   9.581  17.902  0.00  0.00    +0.000 N 
ATOM     13  C   UNL     1       1.809   9.651  17.954  0.00  0.00    +0.000 C 
ATOM     14  O   UNL     1       2.378  10.673  18.331  0.00  0.00    +0.000 OA
ATOM     15  H   UNL     1       0.008   8.844  17.340  0.00  0.00    +0.000 HD
BRANCH  13  16
ATOM     16  C   UNL     1       2.565   8.404  17.557  0.00  0.00    +0.000 C 
BRANCH  16  17
ATOM     17  C   UNL     1       2.370   7.340  18.589  0.00  0.00    +0.000 A 
ATOM     18  C   UNL     1       2.048   7.493  19.924  0.00  0.00    +0.000 A 
ATOM     19  C   UNL     1       1.945   6.245  20.601  0.00  0.00    +0.000 A 
ATOM     20  C   UNL     1       2.182   5.182  19.760  0.00  0.00    +0.000 A 
ATOM     21  S   UNL     1       2.523   5.688  18.164  0.00  0.00    +0.000 S 
ENDBRANCH  16  17
ENDBRANCH  13  16
ENDBRANCH   6  12
BRANCH   2  22
ATOM     22  C   UNL     1      -4.537  12.130  19.060  0.00  0.00    +0.000 C 
ATOM     23  O   UNL     1      -4.696  12.331  17.868  0.00  0.00    +0.000 OA
BRANCH  22  24
ATOM     24  O   UNL     1      -5.551  12.047  19.950  0.00  0.00    +0.000 OA
BRANCH  24  25
ATOM     25  C   UNL     1      -6.846  11.498  19.576  0.00  0.00    +0.000 C 
ATOM     26  C   UNL     1      -6.698  10.164  18.831  0.00  0.00    +0.000 C 
ATOM     27  C   UNL     1      -7.601  11.229  20.891  0.00  0.00    +0.000 C 
ATOM     28  C   UNL     1      -7.658  12.520  18.770  0.00  0.00    +0.000 C 
ENDBRANCH  24  25
ENDBRANCH  22  24
ENDBRANCH   2  22
BRANCH   1  29
ATOM     29  C   UNL     1      -3.920  13.311  21.839  0.00  0.00    +0.000 C 
BRANCH  29  30
ATOM     30  O   UNL     1      -4.513  12.398  22.787  0.00  0.00    +0.000 OA
BRANCH  30  32
ATOM     31  C   UNL     1      -3.922  14.140  24.242  0.00  0.00    +0.000 C 
ATOM     32  C   UNL     1      -4.404  12.728  24.104  0.00  0.00    +0.000 C 
ATOM     33  O   UNL     1      -4.696  12.008  25.046  0.00  0.00    +0.000 OA
ENDBRANCH  30  32
ENDBRANCH  29  30
ENDBRANCH   1  29
TORSDOF 9
ENDMDL
