MODEL 1
REMARK VINA RESULT:      -8.2      0.000      0.000
REMARK  Name = 
REMARK  12 active torsions:
REMARK  status: ('A' for Active; 'I' for Inactive)
REMARK    1  A    between atoms: C_1  and  C_2
REMARK    2  A    between atoms: C_2  and  C_3
REMARK    3  A    between atoms: C_2  and  C_4
REMARK    4  A    between atoms: C_2  and  O_5
REMARK    5  A    between atoms: O_5  and  C_6
REMARK    6  A    between atoms: C_6  and  C_8
REMARK    7  A    between atoms: C_11  and  N_12
REMARK    8  A    between atoms: C_13  and  C_15
REMARK    9  A    between atoms: C_15  and  N_16
REMARK   10  A    between atoms: N_16  and  S_17
REMARK   11  A    between atoms: S_17  and  C_20
REMARK   12  A    between atoms: C_24  and  C_25
REMARK                            x       y       z     vdW  Elec       q    Type
REMARK                         _______ _______ _______ _____ _____    ______ ____
ROOT
ATOM      1  C   UNL     1       2.791   3.856  21.016  0.00  0.00    +0.000 C 
ENDROOT
BRANCH   1   3
ATOM      2  N   UNL     1       2.580   6.247  20.529  0.00  0.00    +0.000 N 
ATOM      3  C   UNL     1       1.892   5.046  20.665  0.00  0.00    +0.000 C 
ATOM      4  O   UNL     1       0.685   4.908  20.474  0.00  0.00    +0.000 OA
ATOM      5  H   UNL     1       3.569   6.188  20.316  0.00  0.00    +0.000 HD
BRANCH   2   9
ATOM      6  C   UNL     1       0.734   9.896  19.467  0.00  0.00    +0.000 A 
ATOM      7  C   UNL     1       0.604   9.395  20.769  0.00  0.00    +0.000 A 
ATOM      8  C   UNL     1       1.188   8.175  21.130  0.00  0.00    +0.000 A 
ATOM      9  C   UNL     1       1.943   7.463  20.197  0.00  0.00    +0.000 A 
ATOM     10  C   UNL     1       2.106   7.976  18.905  0.00  0.00    +0.000 A 
ATOM     11  C   UNL     1       1.476   9.172  18.528  0.00  0.00    +0.000 A 
BRANCH   6  12
ATOM     12  C   UNL     1       0.091  11.207  19.165  0.00  0.00    +0.000 C 
ATOM     13  O   UNL     1      -1.027  11.478  19.577  0.00  0.00    +0.000 OA
BRANCH  12  14
ATOM     14  O   UNL     1       0.887  12.018  18.420  0.00  0.00    +0.000 OA
BRANCH  14  16
ATOM     15  C   UNL     1       1.787  12.914  20.531  0.00  0.00    +0.000 C 
ATOM     16  C   UNL     1       1.494  13.186  19.047  0.00  0.00    +0.000 C 
ATOM     17  C   UNL     1       0.641  14.446  18.852  0.00  0.00    +0.000 C 
ATOM     18  C   UNL     1       2.837  13.408  18.333  0.00  0.00    +0.000 C 
ENDBRANCH  14  16
ENDBRANCH  12  14
ENDBRANCH   6  12
ENDBRANCH   2   9
ENDBRANCH   1   3
BRANCH   1  19
ATOM     19  N   UNL     1       2.624   2.774  20.045  0.00  0.00    +0.000 NA
ATOM     20  H   UNL     1       1.727   2.674  19.569  0.00  0.00    +0.000 HD
BRANCH  19  21
ATOM     21  S   UNL     1       3.946   2.256  19.163  0.00  0.00    +0.000 S 
ATOM     22  O   UNL     1       4.884   1.693  20.109  0.00  0.00    +0.000 OA
ATOM     23  O   UNL     1       3.447   1.499  18.037  0.00  0.00    +0.000 OA
BRANCH  21  24
ATOM     24  C   UNL     1       4.647   3.772  18.563  0.00  0.00    +0.000 A 
ATOM     25  C   UNL     1       4.001   4.459  17.530  0.00  0.00    +0.000 A 
ATOM     26  C   UNL     1       4.542   5.652  17.052  0.00  0.00    +0.000 A 
ATOM     27  C   UNL     1       5.722   6.155  17.606  0.00  0.00    +0.000 A 
ATOM     28  C   UNL     1       6.362   5.477  18.654  0.00  0.00    +0.000 A 
ATOM     29  C   UNL     1       5.812   4.286  19.145  0.00  0.00    +0.000 A 
BRANCH  28  30
ATOM     30  C   UNL     1       7.620   6.035  19.227  0.00  0.00    +0.000 C 
ATOM     31  N   UNL     1       8.187   5.561  20.292  0.00  0.00    +0.000 NA
ATOM     32  N   UNL     1       8.242   7.097  18.640  0.00  0.00    +0.000 N 
ATOM     33  H   UNL     1       7.695   4.743  20.658  0.00  0.00    +0.000 HD
ATOM     34  H   UNL     1       7.645   7.813  18.246  0.00  0.00    +0.000 HD
ATOM     35  H   UNL     1       8.954   7.481  19.255  0.00  0.00    +0.000 HD
ENDBRANCH  28  30
ENDBRANCH  21  24
ENDBRANCH  19  21
ENDBRANCH   1  19
TORSDOF 9
ENDMDL
MODEL 2
REMARK VINA RESULT:      -8.0      1.235      1.850
REMARK  Name = 
REMARK  12 active torsions:
REMARK  status: ('A' for Active; 'I' for Inactive)
REMARK    1  A    between atoms: C_1  and  C_2
REMARK    2  A    between atoms: C_2  and  C_3
REMARK    3  A    between atoms: C_2  and  C_4
REMARK    4  A    between atoms: C_2  and  O_5
REMARK    5  A    between atoms: O_5  and  C_6
REMARK    6  A    between atoms: C_6  and  C_8
REMARK    7  A    between atoms: C_11  and  N_12
REMARK    8  A    between atoms: C_13  and  C_15
REMARK    9  A    between atoms: C_15  and  N_16
REMARK   10  A    between atoms: N_16  and  S_17
REMARK   11  A    between atoms: S_17  and  C_20
REMARK   12  A    between atoms: C_24  and  C_25
REMARK                            x       y       z     vdW  Elec       q    Type
REMARK                         _______ _______ _______ _____ _____    ______ ____
ROOT
ATOM      1  C   UNL     1       1.935   3.003  21.213  0.00  0.00    +0.000 C 
ENDROOT
BRANCH   1   3
ATOM      2  N   UNL     1       2.197   5.422  20.931  0.00  0.00    +0.000 N 
ATOM      3  C   UNL     1       1.465   4.302  20.550  0.00  0.00    +0.000 C 
ATOM      4  O   UNL     1       0.557   4.311  19.721  0.00  0.00    +0.000 OA
ATOM      5  H   UNL     1       3.132   5.260  21.286  0.00  0.00    +0.000 HD
BRANCH   2   9
ATOM      6  C   UNL     1       1.490   9.285  19.374  0.00  0.00    +0.000 A 
ATOM      7  C   UNL     1       1.008   8.940  20.644  0.00  0.00    +0.000 A 
ATOM      8  C   UNL     1       1.212   7.656  21.164  0.00  0.00    +0.000 A 
ATOM      9  C   UNL     1       1.937   6.715  20.429  0.00  0.00    +0.000 A 
ATOM     10  C   UNL     1       2.450   7.066  19.175  0.00  0.00    +0.000 A 
ATOM     11  C   UNL     1       2.200   8.336  18.632  0.00  0.00    +0.000 A 
BRANCH   6  12
ATOM     12  C   UNL     1       1.240  10.676  18.897  0.00  0.00    +0.000 C 
ATOM     13  O   UNL     1       1.890  11.162  17.983  0.00  0.00    +0.000 OA
BRANCH  12  14
ATOM     14  O   UNL     1       0.235  11.287  19.577  0.00  0.00    +0.000 OA
BRANCH  14  16
ATOM     15  C   UNL     1      -1.453  10.552  17.941  0.00  0.00    +0.000 C 
ATOM     16  C   UNL     1      -0.967  11.686  18.856  0.00  0.00    +0.000 C 
ATOM     17  C   UNL     1      -0.760  12.997  18.085  0.00  0.00    +0.000 C 
ATOM     18  C   UNL     1      -2.047  11.930  19.923  0.00  0.00    +0.000 C 
ENDBRANCH  14  16
ENDBRANCH  12  14
ENDBRANCH   6  12
ENDBRANCH   2   9
ENDBRANCH   1   3
BRANCH   1  19
ATOM     19  N   UNL     1       3.376   2.817  21.030  0.00  0.00    +0.000 NA
ATOM     20  H   UNL     1       3.954   2.619  21.847  0.00  0.00    +0.000 HD
BRANCH  19  21
ATOM     21  S   UNL     1       3.940   2.163  19.599  0.00  0.00    +0.000 S 
ATOM     22  O   UNL     1       5.076   1.334  19.939  0.00  0.00    +0.000 OA
ATOM     23  O   UNL     1       2.799   1.640  18.880  0.00  0.00    +0.000 OA
BRANCH  21  24
ATOM     24  C   UNL     1       4.561   3.578  18.728  0.00  0.00    +0.000 A 
ATOM     25  C   UNL     1       3.860   4.055  17.616  0.00  0.00    +0.000 A 
ATOM     26  C   UNL     1       4.336   5.168  16.924  0.00  0.00    +0.000 A 
ATOM     27  C   UNL     1       5.510   5.801  17.345  0.00  0.00    +0.000 A 
ATOM     28  C   UNL     1       6.205   5.335  18.470  0.00  0.00    +0.000 A 
ATOM     29  C   UNL     1       5.719   4.226  19.175  0.00  0.00    +0.000 A 
BRANCH  28  30
ATOM     30  C   UNL     1       7.454   6.029  18.897  0.00  0.00    +0.000 C 
ATOM     31  N   UNL     1       7.946   7.054  18.273  0.00  0.00    +0.000 NA
ATOM     32  N   UNL     1       8.150   5.603  19.989  0.00  0.00    +0.000 N 
ATOM     33  H   UNL     1       7.356   7.348  17.492  0.00  0.00    +0.000 HD
ATOM     34  H   UNL     1       8.193   4.602  20.138  0.00  0.00    +0.000 HD
ATOM     35  H   UNL     1       9.067   6.039  20.023  0.00  0.00    +0.000 HD
ENDBRANCH  28  30
ENDBRANCH  21  24
ENDBRANCH  19  21
ENDBRANCH   1  19
TORSDOF 9
ENDMDL
MODEL 3
REMARK VINA RESULT:      -7.7      1.990      2.441
REMARK  Name = 
REMARK  12 active torsions:
REMARK  status: ('A' for Active; 'I' for Inactive)
REMARK    1  A    between atoms: C_1  and  C_2
REMARK    2  A    between atoms: C_2  and  C_3
REMARK    3  A    between atoms: C_2  and  C_4
REMARK    4  A    between atoms: C_2  and  O_5
REMARK    5  A    between atoms: O_5  and  C_6
REMARK    6  A    between atoms: C_6  and  C_8
REMARK    7  A    between atoms: C_11  and  N_12
REMARK    8  A    between atoms: C_13  and  C_15
REMARK    9  A    between atoms: C_15  and  N_16
REMARK   10  A    between atoms: N_16  and  S_17
REMARK   11  A    between atoms: S_17  and  C_20
REMARK   12  A    between atoms: C_24  and  C_25
REMARK                            x       y       z     vdW  Elec       q    Type
REMARK                         _______ _______ _______ _____ _____    ______ ____
ROOT
ATOM      1  C   UNL     1       2.635   3.370  20.723  0.00  0.00    +0.000 C 
ENDROOT
BRANCH   1   3
ATOM      2  N   UNL     1       2.621   5.778  20.278  0.00  0.00    +0.000 N 
ATOM      3  C   UNL     1       1.831   4.652  20.487  0.00  0.00    +0.000 C 
ATOM      4  O   UNL     1       0.602   4.643  20.439  0.00  0.00    +0.000 OA
ATOM      5  H   UNL     1       3.567   5.620  19.950  0.00  0.00    +0.000 HD
BRANCH   2   9
ATOM      6  C   UNL     1       1.064   9.621  19.466  0.00  0.00    +0.000 A 
ATOM      7  C   UNL     1       0.912   9.054  20.740  0.00  0.00    +0.000 A 
ATOM      8  C   UNL     1       1.399   7.772  21.017  0.00  0.00    +0.000 A 
ATOM      9  C   UNL     1       2.081   7.058  20.029  0.00  0.00    +0.000 A 
ATOM     10  C   UNL     1       2.266   7.633  18.767  0.00  0.00    +0.000 A 
ATOM     11  C   UNL     1       1.731   8.897  18.473  0.00  0.00    +0.000 A 
BRANCH   6  12
ATOM     12  C   UNL     1       0.526  10.995  19.255  0.00  0.00    +0.000 C 
ATOM     13  O   UNL     1      -0.394  11.206  18.479  0.00  0.00    +0.000 OA
BRANCH  12  14
ATOM     14  O   UNL     1       1.161  11.926  20.015  0.00  0.00    +0.000 OA
BRANCH  14  16
ATOM     15  C   UNL     1       0.770  14.141  19.010  0.00  0.00    +0.000 C 
ATOM     16  C   UNL     1       1.803  13.057  19.358  0.00  0.00    +0.000 C 
ATOM     17  C   UNL     1       2.612  12.620  18.129  0.00  0.00    +0.000 C 
ATOM     18  C   UNL     1       2.783  13.650  20.383  0.00  0.00    +0.000 C 
ENDBRANCH  14  16
ENDBRANCH  12  14
ENDBRANCH   6  12
ENDBRANCH   2   9
ENDBRANCH   1   3
BRANCH   1  19
ATOM     19  N   UNL     1       3.821   3.333  19.865  0.00  0.00    +0.000 NA
ATOM     20  H   UNL     1       4.690   2.953  20.243  0.00  0.00    +0.000 HD
BRANCH  19  21
ATOM     21  S   UNL     1       3.631   3.138  18.217  0.00  0.00    +0.000 S 
ATOM     22  O   UNL     1       3.920   1.751  17.925  0.00  0.00    +0.000 OA
ATOM     23  O   UNL     1       2.373   3.751  17.849  0.00  0.00    +0.000 OA
BRANCH  21  24
ATOM     24  C   UNL     1       4.954   4.107  17.542  0.00  0.00    +0.000 A 
ATOM     25  C   UNL     1       5.615   5.024  18.366  0.00  0.00    +0.000 A 
ATOM     26  C   UNL     1       6.659   5.790  17.847  0.00  0.00    +0.000 A 
ATOM     27  C   UNL     1       7.040   5.638  16.511  0.00  0.00    +0.000 A 
ATOM     28  C   UNL     1       6.389   4.707  15.688  0.00  0.00    +0.000 A 
ATOM     29  C   UNL     1       5.351   3.926  16.211  0.00  0.00    +0.000 A 
BRANCH  28  30
ATOM     30  C   UNL     1       6.815   4.564  14.266  0.00  0.00    +0.000 C 
ATOM     31  N   UNL     1       6.373   3.629  13.483  0.00  0.00    +0.000 NA
ATOM     32  N   UNL     1       7.711   5.431  13.716  0.00  0.00    +0.000 N 
ATOM     33  H   UNL     1       5.676   3.040  13.942  0.00  0.00    +0.000 HD
ATOM     34  H   UNL     1       8.462   5.749  14.315  0.00  0.00    +0.000 HD
ATOM     35  H   UNL     1       8.048   5.083  12.824  0.00  0.00    +0.000 HD
ENDBRANCH  28  30
ENDBRANCH  21  24
ENDBRANCH  19  21
ENDBRANCH   1  19
TORSDOF 9
ENDMDL
MODEL 4
REMARK VINA RESULT:      -7.7      4.086      4.926
REMARK  Name = 
REMARK  12 active torsions:
REMARK  status: ('A' for Active; 'I' for Inactive)
REMARK    1  A    between atoms: C_1  and  C_2
REMARK    2  A    between atoms: C_2  and  C_3
REMARK    3  A    between atoms: C_2  and  C_4
REMARK    4  A    between atoms: C_2  and  O_5
REMARK    5  A    between atoms: O_5  and  C_6
REMARK    6  A    between atoms: C_6  and  C_8
REMARK    7  A    between atoms: C_11  and  N_12
REMARK    8  A    between atoms: C_13  and  C_15
REMARK    9  A    between atoms: C_15  and  N_16
REMARK   10  A    between atoms: N_16  and  S_17
REMARK   11  A    between atoms: S_17  and  C_20
REMARK   12  A    between atoms: C_24  and  C_25
REMARK                            x       y       z     vdW  Elec       q    Type
REMARK                         _______ _______ _______ _____ _____    ______ ____
ROOT
ATOM      1  C   UNL     1       4.352   4.236  17.830  0.00  0.00    +0.000 C 
ENDROOT
BRANCH   1   3
ATOM      2  N   UNL     1       3.576   6.521  18.253  0.00  0.00    +0.000 N 
ATOM      3  C   UNL     1       3.198   5.184  18.173  0.00  0.00    +0.000 C 
ATOM      4  O   UNL     1       2.046   4.776  18.305  0.00  0.00    +0.000 OA
ATOM      5  H   UNL     1       4.417   6.790  17.756  0.00  0.00    +0.000 HD
BRANCH   2   9
ATOM      6  C   UNL     1       0.814   9.576  19.192  0.00  0.00    +0.000 A 
ATOM      7  C   UNL     1       1.390   9.517  17.916  0.00  0.00    +0.000 A 
ATOM      8  C   UNL     1       2.327   8.526  17.597  0.00  0.00    +0.000 A 
ATOM      9  C   UNL     1       2.666   7.559  18.545  0.00  0.00    +0.000 A 
ATOM     10  C   UNL     1       2.067   7.592  19.809  0.00  0.00    +0.000 A 
ATOM     11  C   UNL     1       1.168   8.617  20.146  0.00  0.00    +0.000 A 
BRANCH   6  12
ATOM     12  C   UNL     1      -0.182  10.655  19.449  0.00  0.00    +0.000 C 
ATOM     13  O   UNL     1      -0.300  11.606  18.691  0.00  0.00    +0.000 OA
BRANCH  12  14
ATOM     14  O   UNL     1      -0.909  10.436  20.576  0.00  0.00    +0.000 OA
BRANCH  14  16
ATOM     15  C   UNL     1       0.464  12.233  21.554  0.00  0.00    +0.000 C 
ATOM     16  C   UNL     1      -0.815  11.389  21.675  0.00  0.00    +0.000 C 
ATOM     17  C   UNL     1      -0.918  10.696  23.040  0.00  0.00    +0.000 C 
ATOM     18  C   UNL     1      -2.020  12.332  21.531  0.00  0.00    +0.000 C 
ENDBRANCH  14  16
ENDBRANCH  12  14
ENDBRANCH   6  12
ENDBRANCH   2   9
ENDBRANCH   1   3
BRANCH   1  19
ATOM     19  N   UNL     1       4.836   4.475  16.469  0.00  0.00    +0.000 NA
ATOM     20  H   UNL     1       4.159   4.700  15.739  0.00  0.00    +0.000 HD
BRANCH  19  21
ATOM     21  S   UNL     1       6.352   5.140  16.246  0.00  0.00    +0.000 S 
ATOM     22  O   UNL     1       6.205   6.572  16.388  0.00  0.00    +0.000 OA
ATOM     23  O   UNL     1       7.282   4.383  17.055  0.00  0.00    +0.000 OA
BRANCH  21  24
ATOM     24  C   UNL     1       6.688   4.811  14.535  0.00  0.00    +0.000 A 
ATOM     25  C   UNL     1       7.723   5.503  13.899  0.00  0.00    +0.000 A 
ATOM     26  C   UNL     1       7.998   5.251  12.556  0.00  0.00    +0.000 A 
ATOM     27  C   UNL     1       7.241   4.310  11.852  0.00  0.00    +0.000 A 
ATOM     28  C   UNL     1       6.213   3.602  12.493  0.00  0.00    +0.000 A 
ATOM     29  C   UNL     1       5.945   3.843  13.847  0.00  0.00    +0.000 A 
BRANCH  28  30
ATOM     30  C   UNL     1       5.420   2.604  11.720  0.00  0.00    +0.000 C 
ATOM     31  N   UNL     1       4.232   2.844  11.259  0.00  0.00    +0.000 NA
ATOM     32  N   UNL     1       5.923   1.364  11.460  0.00  0.00    +0.000 N 
ATOM     33  H   UNL     1       3.931   3.801  11.451  0.00  0.00    +0.000 HD
ATOM     34  H   UNL     1       6.477   0.936  12.192  0.00  0.00    +0.000 HD
ATOM     35  H   UNL     1       5.196   0.746  11.113  0.00  0.00    +0.000 HD
ENDBRANCH  28  30
ENDBRANCH  21  24
ENDBRANCH  19  21
ENDBRANCH   1  19
TORSDOF 9
ENDMDL
MODEL 5
REMARK VINA RESULT:      -7.6      3.898      4.581
REMARK  Name = 
REMARK  12 active torsions:
REMARK  status: ('A' for Active; 'I' for Inactive)
REMARK    1  A    between atoms: C_1  and  C_2
REMARK    2  A    between atoms: C_2  and  C_3
REMARK    3  A    between atoms: C_2  and  C_4
REMARK    4  A    between atoms: C_2  and  O_5
REMARK    5  A    between atoms: O_5  and  C_6
REMARK    6  A    between atoms: C_6  and  C_8
REMARK    7  A    between atoms: C_11  and  N_12
REMARK    8  A    between atoms: C_13  and  C_15
REMARK    9  A    between atoms: C_15  and  N_16
REMARK   10  A    between atoms: N_16  and  S_17
REMARK   11  A    between atoms: S_17  and  C_20
REMARK   12  A    between atoms: C_24  and  C_25
REMARK                            x       y       z     vdW  Elec       q    Type
REMARK                         _______ _______ _______ _____ _____    ______ ____
ROOT
ATOM      1  C   UNL     1       3.683   3.645  17.811  0.00  0.00    +0.000 C 
ENDROOT
BRANCH   1   3
ATOM      2  N   UNL     1       3.224   5.782  18.916  0.00  0.00    +0.000 N 
ATOM      3  C   UNL     1       2.687   4.763  18.138  0.00  0.00    +0.000 C 
ATOM      4  O   UNL     1       1.541   4.755  17.691  0.00  0.00    +0.000 OA
ATOM      5  H   UNL     1       4.231   5.894  18.894  0.00  0.00    +0.000 HD
BRANCH   2   9
ATOM      6  C   UNL     1       1.043   9.214  20.063  0.00  0.00    +0.000 A 
ATOM      7  C   UNL     1       1.185   8.141  20.953  0.00  0.00    +0.000 A 
ATOM      8  C   UNL     1       1.882   6.986  20.579  0.00  0.00    +0.000 A 
ATOM      9  C   UNL     1       2.480   6.912  19.320  0.00  0.00    +0.000 A 
ATOM     10  C   UNL     1       2.371   7.995  18.440  0.00  0.00    +0.000 A 
ATOM     11  C   UNL     1       1.626   9.131  18.795  0.00  0.00    +0.000 A 
BRANCH   6  12
ATOM     12  C   UNL     1       0.295  10.412  20.541  0.00  0.00    +0.000 C 
ATOM     13  O   UNL     1       0.728  11.116  21.441  0.00  0.00    +0.000 OA
BRANCH  12  14
ATOM     14  O   UNL     1      -0.867  10.606  19.863  0.00  0.00    +0.000 OA
BRANCH  14  16
ATOM     15  C   UNL     1       0.236  12.458  18.670  0.00  0.00    +0.000 C 
ATOM     16  C   UNL     1      -1.090  11.880  19.190  0.00  0.00    +0.000 C 
ATOM     17  C   UNL     1      -1.837  12.875  20.087  0.00  0.00    +0.000 C 
ATOM     18  C   UNL     1      -1.982  11.574  17.976  0.00  0.00    +0.000 C 
ENDBRANCH  14  16
ENDBRANCH  12  14
ENDBRANCH   6  12
ENDBRANCH   2   9
ENDBRANCH   1   3
BRANCH   1  19
ATOM     19  N   UNL     1       4.311   3.872  16.508  0.00  0.00    +0.000 NA
ATOM     20  H   UNL     1       3.738   3.796  15.666  0.00  0.00    +0.000 HD
BRANCH  19  21
ATOM     21  S   UNL     1       5.587   4.944  16.391  0.00  0.00    +0.000 S 
ATOM     22  O   UNL     1       5.019   6.274  16.421  0.00  0.00    +0.000 OA
ATOM     23  O   UNL     1       6.597   4.522  17.337  0.00  0.00    +0.000 OA
BRANCH  21  24
ATOM     24  C   UNL     1       6.196   4.667  14.748  0.00  0.00    +0.000 A 
ATOM     25  C   UNL     1       7.316   5.379  14.308  0.00  0.00    +0.000 A 
ATOM     26  C   UNL     1       7.806   5.168  13.020  0.00  0.00    +0.000 A 
ATOM     27  C   UNL     1       7.177   4.248  12.176  0.00  0.00    +0.000 A 
ATOM     28  C   UNL     1       6.063   3.520  12.621  0.00  0.00    +0.000 A 
ATOM     29  C   UNL     1       5.580   3.720  13.920  0.00  0.00    +0.000 A 
BRANCH  28  30
ATOM     30  C   UNL     1       5.411   2.545  11.701  0.00  0.00    +0.000 C 
ATOM     31  N   UNL     1       5.944   1.406  11.380  0.00  0.00    +0.000 NA
ATOM     32  N   UNL     1       4.198   2.816  11.142  0.00  0.00    +0.000 N 
ATOM     33  H   UNL     1       6.829   1.245  11.864  0.00  0.00    +0.000 HD
ATOM     34  H   UNL     1       4.027   3.777  10.872  0.00  0.00    +0.000 HD
ATOM     35  H   UNL     1       3.992   2.161  10.394  0.00  0.00    +0.000 HD
ENDBRANCH  28  30
ENDBRANCH  21  24
ENDBRANCH  19  21
ENDBRANCH   1  19
TORSDOF 9
ENDMDL
MODEL 6
REMARK VINA RESULT:      -7.5      4.053      4.806
REMARK  Name = 
REMARK  12 active torsions:
REMARK  status: ('A' for Active; 'I' for Inactive)
REMARK    1  A    between atoms: C_1  and  C_2
REMARK    2  A    between atoms: C_2  and  C_3
REMARK    3  A    between atoms: C_2  and  C_4
REMARK    4  A    between atoms: C_2  and  O_5
REMARK    5  A    between atoms: O_5  and  C_6
REMARK    6  A    between atoms: C_6  and  C_8
REMARK    7  A    between atoms: C_11  and  N_12
REMARK    8  A    between atoms: C_13  and  C_15
REMARK    9  A    between atoms: C_15  and  N_16
REMARK   10  A    between atoms: N_16  and  S_17
REMARK   11  A    between atoms: S_17  and  C_20
REMARK   12  A    between atoms: C_24  and  C_25
REMARK                            x       y       z     vdW  Elec       q    Type
REMARK                         _______ _______ _______ _____ _____    ______ ____
ROOT
ATOM      1  C   UNL     1       4.478   3.750  17.909  0.00  0.00    +0.000 C 
ENDROOT
BRANCH   1   3
ATOM      2  N   UNL     1       2.984   5.674  18.166  0.00  0.00    +0.000 N 
ATOM      3  C   UNL     1       4.141   5.058  18.633  0.00  0.00    +0.000 C 
ATOM      4  O   UNL     1       4.821   5.469  19.572  0.00  0.00    +0.000 OA
ATOM      5  H   UNL     1       2.309   5.085  17.694  0.00  0.00    +0.000 HD
BRANCH   2   9
ATOM      6  C   UNL     1       1.455   9.241  19.837  0.00  0.00    +0.000 A 
ATOM      7  C   UNL     1       1.902   9.221  18.508  0.00  0.00    +0.000 A 
ATOM      8  C   UNL     1       2.435   8.055  17.948  0.00  0.00    +0.000 A 
ATOM      9  C   UNL     1       2.489   6.882  18.704  0.00  0.00    +0.000 A 
ATOM     10  C   UNL     1       2.012   6.887  20.020  0.00  0.00    +0.000 A 
ATOM     11  C   UNL     1       1.527   8.070  20.598  0.00  0.00    +0.000 A 
BRANCH   6  12
ATOM     12  C   UNL     1       0.891  10.520  20.355  0.00  0.00    +0.000 C 
ATOM     13  O   UNL     1       0.718  10.701  21.551  0.00  0.00    +0.000 OA
BRANCH  12  14
ATOM     14  O   UNL     1       0.624  11.411  19.364  0.00  0.00    +0.000 OA
BRANCH  14  16
ATOM     15  C   UNL     1      -1.590  11.910  20.323  0.00  0.00    +0.000 C 
ATOM     16  C   UNL     1      -0.765  11.716  19.042  0.00  0.00    +0.000 C 
ATOM     17  C   UNL     1      -1.380  10.657  18.118  0.00  0.00    +0.000 C 
ATOM     18  C   UNL     1      -0.746  13.052  18.283  0.00  0.00    +0.000 C 
ENDBRANCH  14  16
ENDBRANCH  12  14
ENDBRANCH   6  12
ENDBRANCH   2   9
ENDBRANCH   1   3
BRANCH   1  19
ATOM     19  N   UNL     1       4.927   4.013  16.541  0.00  0.00    +0.000 NA
ATOM     20  H   UNL     1       4.239   3.999  15.786  0.00  0.00    +0.000 HD
BRANCH  19  21
ATOM     21  S   UNL     1       6.222   5.037  16.288  0.00  0.00    +0.000 S 
ATOM     22  O   UNL     1       5.714   6.387  16.394  0.00  0.00    +0.000 OA
ATOM     23  O   UNL     1       7.316   4.565  17.109  0.00  0.00    +0.000 OA
BRANCH  21  24
ATOM     24  C   UNL     1       6.629   4.758  14.584  0.00  0.00    +0.000 A 
ATOM     25  C   UNL     1       7.679   5.481  14.008  0.00  0.00    +0.000 A 
ATOM     26  C   UNL     1       8.010   5.269  12.670  0.00  0.00    +0.000 A 
ATOM     27  C   UNL     1       7.294   4.337  11.913  0.00  0.00    +0.000 A 
ATOM     28  C   UNL     1       6.251   3.599  12.494  0.00  0.00    +0.000 A 
ATOM     29  C   UNL     1       5.928   3.800  13.842  0.00  0.00    +0.000 A 
BRANCH  28  30
ATOM     30  C   UNL     1       5.504   2.611  11.664  0.00  0.00    +0.000 C 
ATOM     31  N   UNL     1       5.987   1.455  11.329  0.00  0.00    +0.000 NA
ATOM     32  N   UNL     1       4.250   2.890  11.209  0.00  0.00    +0.000 N 
ATOM     33  H   UNL     1       6.910   1.291  11.736  0.00  0.00    +0.000 HD
ATOM     34  H   UNL     1       4.070   3.846  10.928  0.00  0.00    +0.000 HD
ATOM     35  H   UNL     1       3.966   2.219  10.501  0.00  0.00    +0.000 HD
ENDBRANCH  28  30
ENDBRANCH  21  24
ENDBRANCH  19  21
ENDBRANCH   1  19
TORSDOF 9
ENDMDL
MODEL 7
REMARK VINA RESULT:      -7.3      1.882      2.641
REMARK  Name = 
REMARK  12 active torsions:
REMARK  status: ('A' for Active; 'I' for Inactive)
REMARK    1  A    between atoms: C_1  and  C_2
REMARK    2  A    between atoms: C_2  and  C_3
REMARK    3  A    between atoms: C_2  and  C_4
REMARK    4  A    between atoms: C_2  and  O_5
REMARK    5  A    between atoms: O_5  and  C_6
REMARK    6  A    between atoms: C_6  and  C_8
REMARK    7  A    between atoms: C_11  and  N_12
REMARK    8  A    between atoms: C_13  and  C_15
REMARK    9  A    between atoms: C_15  and  N_16
REMARK   10  A    between atoms: N_16  and  S_17
REMARK   11  A    between atoms: S_17  and  C_20
REMARK   12  A    between atoms: C_24  and  C_25
REMARK                            x       y       z     vdW  Elec       q    Type
REMARK                         _______ _______ _______ _____ _____    ______ ____
ROOT
ATOM      1  C   UNL     1       3.334   5.079  20.272  0.00  0.00    +0.000 C 
ENDROOT
BRANCH   1   3
ATOM      2  N   UNL     1       2.223   7.258  20.397  0.00  0.00    +0.000 N 
ATOM      3  C   UNL     1       2.319   6.066  19.687  0.00  0.00    +0.000 C 
ATOM      4  O   UNL     1       1.702   5.818  18.652  0.00  0.00    +0.000 OA
ATOM      5  H   UNL     1       3.020   7.518  20.966  0.00  0.00    +0.000 HD
BRANCH   2   9
ATOM      6  C   UNL     1      -0.307  10.427  19.212  0.00  0.00    +0.000 A 
ATOM      7  C   UNL     1      -0.470   9.829  20.470  0.00  0.00    +0.000 A 
ATOM      8  C   UNL     1       0.343   8.761  20.867  0.00  0.00    +0.000 A 
ATOM      9  C   UNL     1       1.356   8.307  20.021  0.00  0.00    +0.000 A 
ATOM     10  C   UNL     1       1.546   8.923  18.778  0.00  0.00    +0.000 A 
ATOM     11  C   UNL     1       0.696   9.958  18.358  0.00  0.00    +0.000 A 
BRANCH   6  12
ATOM     12  C   UNL     1      -1.206  11.566  18.869  0.00  0.00    +0.000 C 
ATOM     13  O   UNL     1      -1.561  12.374  19.714  0.00  0.00    +0.000 OA
BRANCH  12  14
ATOM     14  O   UNL     1      -1.546  11.583  17.553  0.00  0.00    +0.000 OA
BRANCH  14  16
ATOM     15  C   UNL     1      -2.940   9.556  17.698  0.00  0.00    +0.000 C 
ATOM     16  C   UNL     1      -2.809  10.982  17.140  0.00  0.00    +0.000 C 
ATOM     17  C   UNL     1      -2.988  11.021  15.617  0.00  0.00    +0.000 C 
ATOM     18  C   UNL     1      -3.919  11.840  17.769  0.00  0.00    +0.000 C 
ENDBRANCH  14  16
ENDBRANCH  12  14
ENDBRANCH   6  12
ENDBRANCH   2   9
ENDBRANCH   1   3
BRANCH   1  19
ATOM     19  N   UNL     1       3.020   3.707  19.868  0.00  0.00    +0.000 NA
ATOM     20  H   UNL     1       2.059   3.478  19.613  0.00  0.00    +0.000 HD
BRANCH  19  21
ATOM     21  S   UNL     1       4.186   2.796  19.092  0.00  0.00    +0.000 S 
ATOM     22  O   UNL     1       5.192   2.477  20.080  0.00  0.00    +0.000 OA
ATOM     23  O   UNL     1       3.503   1.769  18.336  0.00  0.00    +0.000 OA
BRANCH  21  24
ATOM     24  C   UNL     1       4.909   3.952  17.956  0.00  0.00    +0.000 A 
ATOM     25  C   UNL     1       4.486   3.952  16.623  0.00  0.00    +0.000 A 
ATOM     26  C   UNL     1       5.045   4.857  15.721  0.00  0.00    +0.000 A 
ATOM     27  C   UNL     1       6.022   5.758  16.153  0.00  0.00    +0.000 A 
ATOM     28  C   UNL     1       6.436   5.771  17.493  0.00  0.00    +0.000 A 
ATOM     29  C   UNL     1       5.864   4.873  18.403  0.00  0.00    +0.000 A 
BRANCH  28  30
ATOM     30  C   UNL     1       7.480   6.743  17.927  0.00  0.00    +0.000 C 
ATOM     31  N   UNL     1       7.753   7.830  17.274  0.00  0.00    +0.000 NA
ATOM     32  N   UNL     1       8.211   6.524  19.056  0.00  0.00    +0.000 N 
ATOM     33  H   UNL     1       7.144   7.956  16.464  0.00  0.00    +0.000 HD
ATOM     34  H   UNL     1       8.470   5.565  19.250  0.00  0.00    +0.000 HD
ATOM     35  H   UNL     1       9.005   7.156  19.100  0.00  0.00    +0.000 HD
ENDBRANCH  28  30
ENDBRANCH  21  24
ENDBRANCH  19  21
ENDBRANCH   1  19
TORSDOF 9
ENDMDL
MODEL 8
REMARK VINA RESULT:      -7.2      1.195      1.824
REMARK  Name = 
REMARK  12 active torsions:
REMARK  status: ('A' for Active; 'I' for Inactive)
REMARK    1  A    between atoms: C_1  and  C_2
REMARK    2  A    between atoms: C_2  and  C_3
REMARK    3  A    between atoms: C_2  and  C_4
REMARK    4  A    between atoms: C_2  and  O_5
REMARK    5  A    between atoms: O_5  and  C_6
REMARK    6  A    between atoms: C_6  and  C_8
REMARK    7  A    between atoms: C_11  and  N_12
REMARK    8  A    between atoms: C_13  and  C_15
REMARK    9  A    between atoms: C_15  and  N_16
REMARK   10  A    between atoms: N_16  and  S_17
REMARK   11  A    between atoms: S_17  and  C_20
REMARK   12  A    between atoms: C_24  and  C_25
REMARK                            x       y       z     vdW  Elec       q    Type
REMARK                         _______ _______ _______ _____ _____    ______ ____
ROOT
ATOM      1  C   UNL     1       3.052   4.917  20.264  0.00  0.00    +0.000 C 
ENDROOT
BRANCH   1   3
ATOM      2  N   UNL     1       2.055   7.133  20.566  0.00  0.00    +0.000 N 
ATOM      3  C   UNL     1       2.359   6.135  19.646  0.00  0.00    +0.000 C 
ATOM      4  O   UNL     1       2.154   6.215  18.436  0.00  0.00    +0.000 OA
ATOM      5  H   UNL     1       2.598   7.150  21.421  0.00  0.00    +0.000 HD
BRANCH   2   9
ATOM      6  C   UNL     1       0.104  10.737  19.538  0.00  0.00    +0.000 A 
ATOM      7  C   UNL     1       1.024  10.158  18.653  0.00  0.00    +0.000 A 
ATOM      8  C   UNL     1       1.698   8.978  18.990  0.00  0.00    +0.000 A 
ATOM      9  C   UNL     1       1.426   8.344  20.203  0.00  0.00    +0.000 A 
ATOM     10  C   UNL     1       0.482   8.899  21.076  0.00  0.00    +0.000 A 
ATOM     11  C   UNL     1      -0.154  10.110  20.761  0.00  0.00    +0.000 A 
BRANCH   6  12
ATOM     12  C   UNL     1      -0.579  11.988  19.100  0.00  0.00    +0.000 C 
ATOM     13  O   UNL     1      -1.760  12.187  19.344  0.00  0.00    +0.000 OA
BRANCH  12  14
ATOM     14  O   UNL     1       0.255  12.834  18.440  0.00  0.00    +0.000 OA
BRANCH  14  16
ATOM     15  C   UNL     1       2.242  14.270  18.682  0.00  0.00    +0.000 C 
ATOM     16  C   UNL     1       0.807  13.981  19.150  0.00  0.00    +0.000 C 
ATOM     17  C   UNL     1       0.724  13.803  20.672  0.00  0.00    +0.000 C 
ATOM     18  C   UNL     1      -0.068  15.185  18.766  0.00  0.00    +0.000 C 
ENDBRANCH  14  16
ENDBRANCH  12  14
ENDBRANCH   6  12
ENDBRANCH   2   9
ENDBRANCH   1   3
BRANCH   1  19
ATOM     19  N   UNL     1       2.811   3.717  19.460  0.00  0.00    +0.000 NA
ATOM     20  H   UNL     1       1.982   3.682  18.866  0.00  0.00    +0.000 HD
BRANCH  19  21
ATOM     21  S   UNL     1       4.113   2.835  18.897  0.00  0.00    +0.000 S 
ATOM     22  O   UNL     1       4.994   2.625  20.026  0.00  0.00    +0.000 OA
ATOM     23  O   UNL     1       3.589   1.733  18.121  0.00  0.00    +0.000 OA
BRANCH  21  24
ATOM     24  C   UNL     1       4.923   3.969  17.799  0.00  0.00    +0.000 A 
ATOM     25  C   UNL     1       4.622   3.927  16.434  0.00  0.00    +0.000 A 
ATOM     26  C   UNL     1       5.250   4.815  15.561  0.00  0.00    +0.000 A 
ATOM     27  C   UNL     1       6.174   5.741  16.053  0.00  0.00    +0.000 A 
ATOM     28  C   UNL     1       6.465   5.797  17.424  0.00  0.00    +0.000 A 
ATOM     29  C   UNL     1       5.823   4.915  18.304  0.00  0.00    +0.000 A 
BRANCH  28  30
ATOM     30  C   UNL     1       7.454   6.794  17.923  0.00  0.00    +0.000 C 
ATOM     31  N   UNL     1       7.687   7.922  17.326  0.00  0.00    +0.000 NA
ATOM     32  N   UNL     1       8.175   6.556  19.054  0.00  0.00    +0.000 N 
ATOM     33  H   UNL     1       7.086   8.057  16.510  0.00  0.00    +0.000 HD
ATOM     34  H   UNL     1       8.476   5.602  19.209  0.00  0.00    +0.000 HD
ATOM     35  H   UNL     1       8.937   7.222  19.142  0.00  0.00    +0.000 HD
ENDBRANCH  28  30
ENDBRANCH  21  24
ENDBRANCH  19  21
ENDBRANCH   1  19
TORSDOF 9
ENDMDL
MODEL 9
REMARK VINA RESULT:      -7.2      3.980      8.911
REMARK  Name = 
REMARK  12 active torsions:
REMARK  status: ('A' for Active; 'I' for Inactive)
REMARK    1  A    between atoms: C_1  and  C_2
REMARK    2  A    between atoms: C_2  and  C_3
REMARK    3  A    between atoms: C_2  and  C_4
REMARK    4  A    between atoms: C_2  and  O_5
REMARK    5  A    between atoms: O_5  and  C_6
REMARK    6  A    between atoms: C_6  and  C_8
REMARK    7  A    between atoms: C_11  and  N_12
REMARK    8  A    between atoms: C_13  and  C_15
REMARK    9  A    between atoms: C_15  and  N_16
REMARK   10  A    between atoms: N_16  and  S_17
REMARK   11  A    between atoms: S_17  and  C_20
REMARK   12  A    between atoms: C_24  and  C_25
REMARK                            x       y       z     vdW  Elec       q    Type
REMARK                         _______ _______ _______ _____ _____    ______ ____
ROOT
ATOM      1  C   UNL     1       1.645   6.412  20.691  0.00  0.00    +0.000 C 
ENDROOT
BRANCH   1   3
ATOM      2  N   UNL     1       2.880   6.356  18.576  0.00  0.00    +0.000 N 
ATOM      3  C   UNL     1       2.711   5.746  19.815  0.00  0.00    +0.000 C 
ATOM      4  O   UNL     1       3.375   4.793  20.220  0.00  0.00    +0.000 OA
ATOM      5  H   UNL     1       2.592   7.325  18.499  0.00  0.00    +0.000 HD
BRANCH   2   9
ATOM      6  C   UNL     1       5.697   5.099  15.690  0.00  0.00    +0.000 A 
ATOM      7  C   UNL     1       4.795   4.178  16.241  0.00  0.00    +0.000 A 
ATOM      8  C   UNL     1       3.873   4.573  17.217  0.00  0.00    +0.000 A 
ATOM      9  C   UNL     1       3.819   5.908  17.623  0.00  0.00    +0.000 A 
ATOM     10  C   UNL     1       4.694   6.839  17.050  0.00  0.00    +0.000 A 
ATOM     11  C   UNL     1       5.654   6.432  16.111  0.00  0.00    +0.000 A 
BRANCH   6  12
ATOM     12  C   UNL     1       6.641   4.601  14.648  0.00  0.00    +0.000 C 
ATOM     13  O   UNL     1       7.718   5.143  14.453  0.00  0.00    +0.000 OA
BRANCH  12  14
ATOM     14  O   UNL     1       6.163   3.511  13.991  0.00  0.00    +0.000 OA
BRANCH  14  16
ATOM     15  C   UNL     1       7.147   4.464  11.943  0.00  0.00    +0.000 C 
ATOM     16  C   UNL     1       6.065   3.548  12.537  0.00  0.00    +0.000 C 
ATOM     17  C   UNL     1       4.658   3.945  12.070  0.00  0.00    +0.000 C 
ATOM     18  C   UNL     1       6.339   2.116  12.051  0.00  0.00    +0.000 C 
ENDBRANCH  14  16
ENDBRANCH  12  14
ENDBRANCH   6  12
ENDBRANCH   2   9
ENDBRANCH   1   3
BRANCH   1  19
ATOM     19  N   UNL     1       1.596   7.855  20.444  0.00  0.00    +0.000 NA
ATOM     20  H   UNL     1       1.687   8.193  19.485  0.00  0.00    +0.000 HD
BRANCH  19  21
ATOM     21  S   UNL     1       0.672   8.823  21.443  0.00  0.00    +0.000 S 
ATOM     22  O   UNL     1      -0.513   8.064  21.781  0.00  0.00    +0.000 OA
ATOM     23  O   UNL     1       1.549   9.364  22.458  0.00  0.00    +0.000 OA
BRANCH  21  24
ATOM     24  C   UNL     1       0.165  10.141  20.369  0.00  0.00    +0.000 A 
ATOM     25  C   UNL     1       0.721  11.413  20.543  0.00  0.00    +0.000 A 
ATOM     26  C   UNL     1       0.333  12.456  19.703  0.00  0.00    +0.000 A 
ATOM     27  C   UNL     1      -0.607  12.228  18.693  0.00  0.00    +0.000 A 
ATOM     28  C   UNL     1      -1.152  10.949  18.506  0.00  0.00    +0.000 A 
ATOM     29  C   UNL     1      -0.752   9.896  19.340  0.00  0.00    +0.000 A 
BRANCH  28  30
ATOM     30  C   UNL     1      -2.152  10.732  17.422  0.00  0.00    +0.000 C 
ATOM     31  N   UNL     1      -2.977   9.731  17.407  0.00  0.00    +0.000 NA
ATOM     32  N   UNL     1      -2.243  11.598  16.373  0.00  0.00    +0.000 N 
ATOM     33  H   UNL     1      -2.887   9.145  18.239  0.00  0.00    +0.000 HD
ATOM     34  H   UNL     1      -1.374  11.984  16.027  0.00  0.00    +0.000 HD
ATOM     35  H   UNL     1      -2.816  11.206  15.632  0.00  0.00    +0.000 HD
ENDBRANCH  28  30
ENDBRANCH  21  24
ENDBRANCH  19  21
ENDBRANCH   1  19
TORSDOF 9
ENDMDL
