MODEL 1
REMARK VINA RESULT:      -6.5      0.000      0.000
REMARK  Name = 
REMARK  10 active torsions:
REMARK  status: ('A' for Active; 'I' for Inactive)
REMARK    1  A    between atoms: C_1  and  C_2
REMARK    2  A    between atoms: C_2  and  C_3
REMARK    3  A    between atoms: C_3  and  C_4
REMARK    4  A    between atoms: N_6  and  C_7
REMARK    5  A    between atoms: C_7  and  C_8
REMARK    6  A    between atoms: C_8  and  C_9
REMARK    7  A    between atoms: C_8  and  O_10
REMARK    8  A    between atoms: O_10  and  C_11
REMARK    9  A    between atoms: C_15  and  O_16
REMARK   10  A    between atoms: O_16  and  C_17
REMARK                            x       y       z     vdW  Elec       q    Type
REMARK                         _______ _______ _______ _____ _____    ______ ____
ROOT
ATOM      1  C   UNL     1       5.837   4.362  16.205  0.00  0.00    +0.000 C 
ATOM      2  C   UNL     1       5.616   4.692  14.729  0.00  0.00    +0.000 C 
ENDROOT
BRANCH   1   3
ATOM      3  C   UNL     1       7.205   4.896  16.665  0.00  0.00    +0.000 C 
BRANCH   3   6
ATOM      4  C   UNL     1       7.717   7.034  17.814  0.00  0.00    +0.000 C 
ATOM      5  O   UNL     1       7.974   6.490  18.884  0.00  0.00    +0.000 OA
ATOM      6  N   UNL     1       7.285   6.350  16.704  0.00  0.00    +0.000 N 
ATOM      7  H   UNL     1       6.912   6.863  15.914  0.00  0.00    +0.000 HD
BRANCH   4   8
ATOM      8  C   UNL     1       7.839   8.532  17.615  0.00  0.00    +0.000 C 
BRANCH   8  10
ATOM      9  C   UNL     1       9.159  10.563  18.301  0.00  0.00    +0.000 C 
ATOM     10  C   UNL     1       8.711   9.163  18.692  0.00  0.00    +0.000 C 
ENDBRANCH   8  10
ENDBRANCH   4   8
ENDBRANCH   3   6
ENDBRANCH   1   3
BRANCH   1  11
ATOM     11  O   UNL     1       4.805   5.018  16.978  0.00  0.00    +0.000 OA
BRANCH  11  12
ATOM     12  C   UNL     1       4.022   4.191  17.745  0.00  0.00    +0.000 A 
ATOM     13  C   UNL     1       3.789   2.904  17.266  0.00  0.00    +0.000 A 
ATOM     14  C   UNL     1       3.001   2.013  18.001  0.00  0.00    +0.000 A 
ATOM     15  C   UNL     1       2.450   2.416  19.220  0.00  0.00    +0.000 A 
ATOM     16  C   UNL     1       2.657   3.713  19.691  0.00  0.00    +0.000 A 
ATOM     17  C   UNL     1       3.412   4.603  18.928  0.00  0.00    +0.000 A 
BRANCH  16  18
ATOM     18  O   UNL     1       2.077   4.011  20.897  0.00  0.00    +0.000 OA
ATOM     19  C   UNL     1       1.641   2.897  21.672  0.00  0.00    +0.000 C 
ENDBRANCH  16  18
ENDBRANCH  11  12
ENDBRANCH   1  11
TORSDOF 7
ENDMDL
MODEL 2
REMARK VINA RESULT:      -6.5      2.783      5.007
REMARK  Name = 
REMARK  10 active torsions:
REMARK  status: ('A' for Active; 'I' for Inactive)
REMARK    1  A    between atoms: C_1  and  C_2
REMARK    2  A    between atoms: C_2  and  C_3
REMARK    3  A    between atoms: C_3  and  C_4
REMARK    4  A    between atoms: N_6  and  C_7
REMARK    5  A    between atoms: C_7  and  C_8
REMARK    6  A    between atoms: C_8  and  C_9
REMARK    7  A    between atoms: C_8  and  O_10
REMARK    8  A    between atoms: O_10  and  C_11
REMARK    9  A    between atoms: C_15  and  O_16
REMARK   10  A    between atoms: O_16  and  C_17
REMARK                            x       y       z     vdW  Elec       q    Type
REMARK                         _______ _______ _______ _____ _____    ______ ____
ROOT
ATOM      1  C   UNL     1       7.022   5.482  18.456  0.00  0.00    +0.000 C 
ATOM      2  C   UNL     1       8.120   5.895  19.435  0.00  0.00    +0.000 C 
ENDROOT
BRANCH   1   3
ATOM      3  C   UNL     1       7.570   4.447  17.457  0.00  0.00    +0.000 C 
BRANCH   3   6
ATOM      4  C   UNL     1       6.782   4.616  15.110  0.00  0.00    +0.000 C 
ATOM      5  O   UNL     1       7.634   5.443  14.799  0.00  0.00    +0.000 OA
ATOM      6  N   UNL     1       6.641   4.119  16.383  0.00  0.00    +0.000 N 
ATOM      7  H   UNL     1       5.813   3.586  16.623  0.00  0.00    +0.000 HD
BRANCH   4   8
ATOM      8  C   UNL     1       5.784   4.064  14.112  0.00  0.00    +0.000 C 
BRANCH   8  10
ATOM      9  C   UNL     1       5.584   2.886  11.896  0.00  0.00    +0.000 C 
ATOM     10  C   UNL     1       6.441   3.794  12.765  0.00  0.00    +0.000 C 
ENDBRANCH   8  10
ENDBRANCH   4   8
ENDBRANCH   3   6
ENDBRANCH   1   3
BRANCH   1  11
ATOM     11  O   UNL     1       5.947   4.871  19.207  0.00  0.00    +0.000 OA
BRANCH  11  12
ATOM     12  C   UNL     1       4.710   5.443  19.046  0.00  0.00    +0.000 A 
ATOM     13  C   UNL     1       3.660   4.924  19.801  0.00  0.00    +0.000 A 
ATOM     14  C   UNL     1       2.377   5.464  19.684  0.00  0.00    +0.000 A 
ATOM     15  C   UNL     1       2.148   6.529  18.809  0.00  0.00    +0.000 A 
ATOM     16  C   UNL     1       3.189   7.036  18.029  0.00  0.00    +0.000 A 
ATOM     17  C   UNL     1       4.456   6.460  18.128  0.00  0.00    +0.000 A 
BRANCH  16  18
ATOM     18  O   UNL     1       2.866   8.081  17.205  0.00  0.00    +0.000 OA
ATOM     19  C   UNL     1       2.106   9.132  17.799  0.00  0.00    +0.000 C 
ENDBRANCH  16  18
ENDBRANCH  11  12
ENDBRANCH   1  11
TORSDOF 7
ENDMDL
MODEL 3
REMARK VINA RESULT:      -6.4      2.178      4.538
REMARK  Name = 
REMARK  10 active torsions:
REMARK  status: ('A' for Active; 'I' for Inactive)
REMARK    1  A    between atoms: C_1  and  C_2
REMARK    2  A    between atoms: C_2  and  C_3
REMARK    3  A    between atoms: C_3  and  C_4
REMARK    4  A    between atoms: N_6  and  C_7
REMARK    5  A    between atoms: C_7  and  C_8
REMARK    6  A    between atoms: C_8  and  C_9
REMARK    7  A    between atoms: C_8  and  O_10
REMARK    8  A    between atoms: O_10  and  C_11
REMARK    9  A    between atoms: C_15  and  O_16
REMARK   10  A    between atoms: O_16  and  C_17
REMARK                            x       y       z     vdW  Elec       q    Type
REMARK                         _______ _______ _______ _____ _____    ______ ____
ROOT
ATOM      1  C   UNL     1       6.165   5.432  16.855  0.00  0.00    +0.000 C 
ATOM      2  C   UNL     1       6.621   6.661  17.640  0.00  0.00    +0.000 C 
ENDROOT
BRANCH   1   3
ATOM      3  C   UNL     1       7.200   5.087  15.770  0.00  0.00    +0.000 C 
BRANCH   3   6
ATOM      4  C   UNL     1       7.045   4.555  13.351  0.00  0.00    +0.000 C 
ATOM      5  O   UNL     1       7.819   5.451  13.023  0.00  0.00    +0.000 OA
ATOM      6  N   UNL     1       6.647   4.339  14.648  0.00  0.00    +0.000 N 
ATOM      7  H   UNL     1       5.872   3.714  14.835  0.00  0.00    +0.000 HD
BRANCH   4   8
ATOM      8  C   UNL     1       6.439   3.598  12.345  0.00  0.00    +0.000 C 
BRANCH   8  10
ATOM      9  C   UNL     1       4.213   3.199  11.237  0.00  0.00    +0.000 C 
ATOM     10  C   UNL     1       4.936   3.459  12.550  0.00  0.00    +0.000 C 
ENDBRANCH   8  10
ENDBRANCH   4   8
ENDBRANCH   3   6
ENDBRANCH   1   3
BRANCH   1  11
ATOM     11  O   UNL     1       6.070   4.316  17.771  0.00  0.00    +0.000 OA
BRANCH  11  12
ATOM     12  C   UNL     1       4.803   3.997  18.189  0.00  0.00    +0.000 A 
ATOM     13  C   UNL     1       3.752   4.266  17.313  0.00  0.00    +0.000 A 
ATOM     14  C   UNL     1       2.438   3.962  17.679  0.00  0.00    +0.000 A 
ATOM     15  C   UNL     1       2.179   3.385  18.925  0.00  0.00    +0.000 A 
ATOM     16  C   UNL     1       3.224   3.139  19.818  0.00  0.00    +0.000 A 
ATOM     17  C   UNL     1       4.526   3.484  19.454  0.00  0.00    +0.000 A 
BRANCH  16  18
ATOM     18  O   UNL     1       2.869   2.569  21.012  0.00  0.00    +0.000 OA
ATOM     19  C   UNL     1       1.559   2.876  21.485  0.00  0.00    +0.000 C 
ENDBRANCH  16  18
ENDBRANCH  11  12
ENDBRANCH   1  11
TORSDOF 7
ENDMDL
MODEL 4
REMARK VINA RESULT:      -6.4      2.601      4.733
REMARK  Name = 
REMARK  10 active torsions:
REMARK  status: ('A' for Active; 'I' for Inactive)
REMARK    1  A    between atoms: C_1  and  C_2
REMARK    2  A    between atoms: C_2  and  C_3
REMARK    3  A    between atoms: C_3  and  C_4
REMARK    4  A    between atoms: N_6  and  C_7
REMARK    5  A    between atoms: C_7  and  C_8
REMARK    6  A    between atoms: C_8  and  C_9
REMARK    7  A    between atoms: C_8  and  O_10
REMARK    8  A    between atoms: O_10  and  C_11
REMARK    9  A    between atoms: C_15  and  O_16
REMARK   10  A    between atoms: O_16  and  C_17
REMARK                            x       y       z     vdW  Elec       q    Type
REMARK                         _______ _______ _______ _____ _____    ______ ____
ROOT
ATOM      1  C   UNL     1       6.872   5.318  18.247  0.00  0.00    +0.000 C 
ATOM      2  C   UNL     1       7.854   5.793  19.317  0.00  0.00    +0.000 C 
ENDROOT
BRANCH   1   3
ATOM      3  C   UNL     1       7.629   4.576  17.131  0.00  0.00    +0.000 C 
BRANCH   3   6
ATOM      4  C   UNL     1       6.603   4.366  14.881  0.00  0.00    +0.000 C 
ATOM      5  O   UNL     1       7.107   5.406  14.466  0.00  0.00    +0.000 OA
ATOM      6  N   UNL     1       6.756   3.914  16.170  0.00  0.00    +0.000 N 
ATOM      7  H   UNL     1       6.173   3.158  16.506  0.00  0.00    +0.000 HD
BRANCH   4   8
ATOM      8  C   UNL     1       5.745   3.474  14.006  0.00  0.00    +0.000 C 
BRANCH   8  10
ATOM      9  C   UNL     1       5.037   3.246  11.601  0.00  0.00    +0.000 C 
ATOM     10  C   UNL     1       6.189   3.536  12.551  0.00  0.00    +0.000 C 
ENDBRANCH   8  10
ENDBRANCH   4   8
ENDBRANCH   3   6
ENDBRANCH   1   3
BRANCH   1  11
ATOM     11  O   UNL     1       5.939   4.397  18.860  0.00  0.00    +0.000 OA
BRANCH  11  12
ATOM     12  C   UNL     1       4.615   4.621  18.581  0.00  0.00    +0.000 A 
ATOM     13  C   UNL     1       3.851   3.527  18.177  0.00  0.00    +0.000 A 
ATOM     14  C   UNL     1       2.495   3.688  17.880  0.00  0.00    +0.000 A 
ATOM     15  C   UNL     1       1.905   4.950  17.993  0.00  0.00    +0.000 A 
ATOM     16  C   UNL     1       2.670   6.054  18.370  0.00  0.00    +0.000 A 
ATOM     17  C   UNL     1       4.031   5.885  18.624  0.00  0.00    +0.000 A 
BRANCH  16  18
ATOM     18  O   UNL     1       2.000   7.246  18.453  0.00  0.00    +0.000 OA
ATOM     19  C   UNL     1       2.647   8.369  17.859  0.00  0.00    +0.000 C 
ENDBRANCH  16  18
ENDBRANCH  11  12
ENDBRANCH   1  11
TORSDOF 7
ENDMDL
MODEL 5
REMARK VINA RESULT:      -6.3      2.582      5.702
REMARK  Name = 
REMARK  10 active torsions:
REMARK  status: ('A' for Active; 'I' for Inactive)
REMARK    1  A    between atoms: C_1  and  C_2
REMARK    2  A    between atoms: C_2  and  C_3
REMARK    3  A    between atoms: C_3  and  C_4
REMARK    4  A    between atoms: N_6  and  C_7
REMARK    5  A    between atoms: C_7  and  C_8
REMARK    6  A    between atoms: C_8  and  C_9
REMARK    7  A    between atoms: C_8  and  O_10
REMARK    8  A    between atoms: O_10  and  C_11
REMARK    9  A    between atoms: C_15  and  O_16
REMARK   10  A    between atoms: O_16  and  C_17
REMARK                            x       y       z     vdW  Elec       q    Type
REMARK                         _______ _______ _______ _____ _____    ______ ____
ROOT
ATOM      1  C   UNL     1       3.569   3.027  18.083  0.00  0.00    +0.000 C 
ATOM      2  C   UNL     1       3.543   1.507  18.241  0.00  0.00    +0.000 C 
ENDROOT
BRANCH   1   3
ATOM      3  C   UNL     1       2.237   3.628  18.564  0.00  0.00    +0.000 C 
BRANCH   3   6
ATOM      4  C   UNL     1       2.192   5.784  19.791  0.00  0.00    +0.000 C 
ATOM      5  O   UNL     1       2.060   5.249  20.888  0.00  0.00    +0.000 OA
ATOM      6  N   UNL     1       2.233   5.084  18.609  0.00  0.00    +0.000 N 
ATOM      7  H   UNL     1       2.156   5.582  17.731  0.00  0.00    +0.000 HD
BRANCH   4   8
ATOM      8  C   UNL     1       2.313   7.286  19.630  0.00  0.00    +0.000 C 
BRANCH   8  10
ATOM      9  C   UNL     1       1.953   9.044  17.864  0.00  0.00    +0.000 C 
ATOM     10  C   UNL     1       2.528   7.670  18.172  0.00  0.00    +0.000 C 
ENDBRANCH   8  10
ENDBRANCH   4   8
ENDBRANCH   3   6
ENDBRANCH   1   3
BRANCH   1  11
ATOM     11  O   UNL     1       4.635   3.553  18.907  0.00  0.00    +0.000 OA
BRANCH  11  12
ATOM     12  C   UNL     1       5.504   4.408  18.279  0.00  0.00    +0.000 A 
ATOM     13  C   UNL     1       6.230   5.288  19.080  0.00  0.00    +0.000 A 
ATOM     14  C   UNL     1       7.133   6.183  18.500  0.00  0.00    +0.000 A 
ATOM     15  C   UNL     1       7.310   6.192  17.114  0.00  0.00    +0.000 A 
ATOM     16  C   UNL     1       6.566   5.333  16.304  0.00  0.00    +0.000 A 
ATOM     17  C   UNL     1       5.639   4.473  16.893  0.00  0.00    +0.000 A 
BRANCH  16  18
ATOM     18  O   UNL     1       6.812   5.416  14.959  0.00  0.00    +0.000 OA
ATOM     19  C   UNL     1       6.435   4.280  14.184  0.00  0.00    +0.000 C 
ENDBRANCH  16  18
ENDBRANCH  11  12
ENDBRANCH   1  11
TORSDOF 7
ENDMDL
MODEL 6
REMARK VINA RESULT:      -6.2      1.514      1.781
REMARK  Name = 
REMARK  10 active torsions:
REMARK  status: ('A' for Active; 'I' for Inactive)
REMARK    1  A    between atoms: C_1  and  C_2
REMARK    2  A    between atoms: C_2  and  C_3
REMARK    3  A    between atoms: C_3  and  C_4
REMARK    4  A    between atoms: N_6  and  C_7
REMARK    5  A    between atoms: C_7  and  C_8
REMARK    6  A    between atoms: C_8  and  C_9
REMARK    7  A    between atoms: C_8  and  O_10
REMARK    8  A    between atoms: O_10  and  C_11
REMARK    9  A    between atoms: C_15  and  O_16
REMARK   10  A    between atoms: O_16  and  C_17
REMARK                            x       y       z     vdW  Elec       q    Type
REMARK                         _______ _______ _______ _____ _____    ______ ____
ROOT
ATOM      1  C   UNL     1       4.838   4.413  16.746  0.00  0.00    +0.000 C 
ATOM      2  C   UNL     1       5.704   3.641  15.751  0.00  0.00    +0.000 C 
ENDROOT
BRANCH   1   3
ATOM      3  C   UNL     1       4.985   5.926  16.509  0.00  0.00    +0.000 C 
BRANCH   3   6
ATOM      4  C   UNL     1       7.234   6.787  17.105  0.00  0.00    +0.000 C 
ATOM      5  O   UNL     1       7.757   6.365  16.077  0.00  0.00    +0.000 OA
ATOM      6  N   UNL     1       5.915   6.576  17.424  0.00  0.00    +0.000 N 
ATOM      7  H   UNL     1       5.587   6.783  18.359  0.00  0.00    +0.000 HD
BRANCH   4   8
ATOM      8  C   UNL     1       8.006   7.581  18.140  0.00  0.00    +0.000 C 
BRANCH   8  10
ATOM      9  C   UNL     1       8.956   9.854  18.662  0.00  0.00    +0.000 C 
ATOM     10  C   UNL     1       7.915   9.077  17.870  0.00  0.00    +0.000 C 
ENDBRANCH   8  10
ENDBRANCH   4   8
ENDBRANCH   3   6
ENDBRANCH   1   3
BRANCH   1  11
ATOM     11  O   UNL     1       3.456   4.046  16.530  0.00  0.00    +0.000 OA
BRANCH  11  12
ATOM     12  C   UNL     1       2.728   3.775  17.661  0.00  0.00    +0.000 A 
ATOM     13  C   UNL     1       2.302   2.462  17.850  0.00  0.00    +0.000 A 
ATOM     14  C   UNL     1       1.559   2.121  18.983  0.00  0.00    +0.000 A 
ATOM     15  C   UNL     1       1.247   3.100  19.930  0.00  0.00    +0.000 A 
ATOM     16  C   UNL     1       1.648   4.422  19.734  0.00  0.00    +0.000 A 
ATOM     17  C   UNL     1       2.355   4.755  18.578  0.00  0.00    +0.000 A 
BRANCH  16  18
ATOM     18  O   UNL     1       1.297   5.307  20.719  0.00  0.00    +0.000 OA
ATOM     19  C   UNL     1       1.821   6.627  20.588  0.00  0.00    +0.000 C 
ENDBRANCH  16  18
ENDBRANCH  11  12
ENDBRANCH   1  11
TORSDOF 7
ENDMDL
MODEL 7
REMARK VINA RESULT:      -6.2      1.482      1.892
REMARK  Name = 
REMARK  10 active torsions:
REMARK  status: ('A' for Active; 'I' for Inactive)
REMARK    1  A    between atoms: C_1  and  C_2
REMARK    2  A    between atoms: C_2  and  C_3
REMARK    3  A    between atoms: C_3  and  C_4
REMARK    4  A    between atoms: N_6  and  C_7
REMARK    5  A    between atoms: C_7  and  C_8
REMARK    6  A    between atoms: C_8  and  C_9
REMARK    7  A    between atoms: C_8  and  O_10
REMARK    8  A    between atoms: O_10  and  C_11
REMARK    9  A    between atoms: C_15  and  O_16
REMARK   10  A    between atoms: O_16  and  C_17
REMARK                            x       y       z     vdW  Elec       q    Type
REMARK                         _______ _______ _______ _____ _____    ______ ____
ROOT
ATOM      1  C   UNL     1       5.874   4.253  16.286  0.00  0.00    +0.000 C 
ATOM      2  C   UNL     1       6.026   3.868  14.815  0.00  0.00    +0.000 C 
ENDROOT
BRANCH   1   3
ATOM      3  C   UNL     1       7.228   4.715  16.852  0.00  0.00    +0.000 C 
BRANCH   3   6
ATOM      4  C   UNL     1       7.691   6.923  17.884  0.00  0.00    +0.000 C 
ATOM      5  O   UNL     1       7.667   6.483  19.029  0.00  0.00    +0.000 OA
ATOM      6  N   UNL     1       7.437   6.155  16.774  0.00  0.00    +0.000 N 
ATOM      7  H   UNL     1       7.287   6.604  15.879  0.00  0.00    +0.000 HD
BRANCH   4   8
ATOM      8  C   UNL     1       7.994   8.377  17.579  0.00  0.00    +0.000 C 
BRANCH   8  10
ATOM      9  C   UNL     1       9.043  10.495  18.445  0.00  0.00    +0.000 C 
ATOM     10  C   UNL     1       8.849   9.004  18.672  0.00  0.00    +0.000 C 
ENDBRANCH   8  10
ENDBRANCH   4   8
ENDBRANCH   3   6
ENDBRANCH   1   3
BRANCH   1  11
ATOM     11  O   UNL     1       4.939   5.353  16.376  0.00  0.00    +0.000 OA
BRANCH  11  12
ATOM     12  C   UNL     1       3.913   5.190  17.273  0.00  0.00    +0.000 A 
ATOM     13  C   UNL     1       3.235   3.973  17.256  0.00  0.00    +0.000 A 
ATOM     14  C   UNL     1       2.182   3.743  18.146  0.00  0.00    +0.000 A 
ATOM     15  C   UNL     1       1.813   4.737  19.057  0.00  0.00    +0.000 A 
ATOM     16  C   UNL     1       2.470   5.969  19.059  0.00  0.00    +0.000 A 
ATOM     17  C   UNL     1       3.492   6.197  18.138  0.00  0.00    +0.000 A 
BRANCH  16  18
ATOM     18  O   UNL     1       2.037   6.876  19.990  0.00  0.00    +0.000 OA
ATOM     19  C   UNL     1       1.774   8.191  19.504  0.00  0.00    +0.000 C 
ENDBRANCH  16  18
ENDBRANCH  11  12
ENDBRANCH   1  11
TORSDOF 7
ENDMDL
MODEL 8
REMARK VINA RESULT:      -6.2      1.020      1.180
REMARK  Name = 
REMARK  10 active torsions:
REMARK  status: ('A' for Active; 'I' for Inactive)
REMARK    1  A    between atoms: C_1  and  C_2
REMARK    2  A    between atoms: C_2  and  C_3
REMARK    3  A    between atoms: C_3  and  C_4
REMARK    4  A    between atoms: N_6  and  C_7
REMARK    5  A    between atoms: C_7  and  C_8
REMARK    6  A    between atoms: C_8  and  C_9
REMARK    7  A    between atoms: C_8  and  O_10
REMARK    8  A    between atoms: O_10  and  C_11
REMARK    9  A    between atoms: C_15  and  O_16
REMARK   10  A    between atoms: O_16  and  C_17
REMARK                            x       y       z     vdW  Elec       q    Type
REMARK                         _______ _______ _______ _____ _____    ______ ____
ROOT
ATOM      1  C   UNL     1       5.606   4.121  16.155  0.00  0.00    +0.000 C 
ATOM      2  C   UNL     1       5.360   4.450  14.683  0.00  0.00    +0.000 C 
ENDROOT
BRANCH   1   3
ATOM      3  C   UNL     1       7.104   4.259  16.482  0.00  0.00    +0.000 C 
BRANCH   3   6
ATOM      4  C   UNL     1       7.660   5.737  18.395  0.00  0.00    +0.000 C 
ATOM      5  O   UNL     1       7.455   4.864  19.233  0.00  0.00    +0.000 OA
ATOM      6  N   UNL     1       7.465   5.552  17.048  0.00  0.00    +0.000 N 
ATOM      7  H   UNL     1       7.470   6.352  16.428  0.00  0.00    +0.000 HD
BRANCH   4   8
ATOM      8  C   UNL     1       8.143   7.124  18.770  0.00  0.00    +0.000 C 
BRANCH   8  10
ATOM      9  C   UNL     1       8.365   9.516  18.017  0.00  0.00    +0.000 C 
ATOM     10  C   UNL     1       7.858   8.127  17.660  0.00  0.00    +0.000 C 
ENDBRANCH   8  10
ENDBRANCH   4   8
ENDBRANCH   3   6
ENDBRANCH   1   3
BRANCH   1  11
ATOM     11  O   UNL     1       4.870   5.069  16.964  0.00  0.00    +0.000 OA
BRANCH  11  12
ATOM     12  C   UNL     1       3.850   4.542  17.714  0.00  0.00    +0.000 A 
ATOM     13  C   UNL     1       2.688   4.166  17.042  0.00  0.00    +0.000 A 
ATOM     14  C   UNL     1       1.613   3.621  17.750  0.00  0.00    +0.000 A 
ATOM     15  C   UNL     1       1.706   3.451  19.134  0.00  0.00    +0.000 A 
ATOM     16  C   UNL     1       2.856   3.851  19.816  0.00  0.00    +0.000 A 
ATOM     17  C   UNL     1       3.905   4.430  19.102  0.00  0.00    +0.000 A 
BRANCH  16  18
ATOM     18  O   UNL     1       2.852   3.641  21.170  0.00  0.00    +0.000 OA
ATOM     19  C   UNL     1       1.795   2.826  21.671  0.00  0.00    +0.000 C 
ENDBRANCH  16  18
ENDBRANCH  11  12
ENDBRANCH   1  11
TORSDOF 7
ENDMDL
MODEL 9
REMARK VINA RESULT:      -6.2      2.825      5.267
REMARK  Name = 
REMARK  10 active torsions:
REMARK  status: ('A' for Active; 'I' for Inactive)
REMARK    1  A    between atoms: C_1  and  C_2
REMARK    2  A    between atoms: C_2  and  C_3
REMARK    3  A    between atoms: C_3  and  C_4
REMARK    4  A    between atoms: N_6  and  C_7
REMARK    5  A    between atoms: C_7  and  C_8
REMARK    6  A    between atoms: C_8  and  C_9
REMARK    7  A    between atoms: C_8  and  O_10
REMARK    8  A    between atoms: O_10  and  C_11
REMARK    9  A    between atoms: C_15  and  O_16
REMARK   10  A    between atoms: O_16  and  C_17
REMARK                            x       y       z     vdW  Elec       q    Type
REMARK                         _______ _______ _______ _____ _____    ______ ____
ROOT
ATOM      1  C   UNL     1       6.389   5.142  15.968  0.00  0.00    +0.000 C 
ATOM      2  C   UNL     1       7.223   4.611  17.133  0.00  0.00    +0.000 C 
ENDROOT
BRANCH   1   3
ATOM      3  C   UNL     1       7.014   4.705  14.631  0.00  0.00    +0.000 C 
BRANCH   3   6
ATOM      4  C   UNL     1       6.382   3.667  12.468  0.00  0.00    +0.000 C 
ATOM      5  O   UNL     1       7.335   4.152  11.865  0.00  0.00    +0.000 OA
ATOM      6  N   UNL     1       6.117   3.921  13.792  0.00  0.00    +0.000 N 
ATOM      7  H   UNL     1       5.225   3.647  14.185  0.00  0.00    +0.000 HD
BRANCH   4   8
ATOM      8  C   UNL     1       5.388   2.737  11.801  0.00  0.00    +0.000 C 
BRANCH   8  10
ATOM      9  C   UNL     1       3.592   3.680  10.309  0.00  0.00    +0.000 C 
ATOM     10  C   UNL     1       4.001   3.364  11.740  0.00  0.00    +0.000 C 
ENDBRANCH   8  10
ENDBRANCH   4   8
ENDBRANCH   3   6
ENDBRANCH   1   3
BRANCH   1  11
ATOM     11  O   UNL     1       5.062   4.575  16.062  0.00  0.00    +0.000 OA
BRANCH  11  12
ATOM     12  C   UNL     1       4.332   4.951  17.161  0.00  0.00    +0.000 A 
ATOM     13  C   UNL     1       3.951   6.289  17.250  0.00  0.00    +0.000 A 
ATOM     14  C   UNL     1       3.204   6.734  18.344  0.00  0.00    +0.000 A 
ATOM     15  C   UNL     1       2.837   5.834  19.348  0.00  0.00    +0.000 A 
ATOM     16  C   UNL     1       3.239   4.500  19.279  0.00  0.00    +0.000 A 
ATOM     17  C   UNL     1       4.018   4.078  18.200  0.00  0.00    +0.000 A 
BRANCH  16  18
ATOM     18  O   UNL     1       2.828   3.696  20.309  0.00  0.00    +0.000 OA
ATOM     19  C   UNL     1       1.483   3.227  20.236  0.00  0.00    +0.000 C 
ENDBRANCH  16  18
ENDBRANCH  11  12
ENDBRANCH   1  11
TORSDOF 7
ENDMDL
