MODEL 1
REMARK VINA RESULT:      -7.0      0.000      0.000
REMARK  Name = 
REMARK  10 active torsions:
REMARK  status: ('A' for Active; 'I' for Inactive)
REMARK    1  A    between atoms: C_1  and  C_2
REMARK    2  A    between atoms: C_2  and  C_3
REMARK    3  A    between atoms: C_3  and  O_4
REMARK    4  A    between atoms: O_4  and  C_5
REMARK    5  A    between atoms: C_5  and  C_7
REMARK    6  A    between atoms: N_10  and  C_11
REMARK    7  A    between atoms: C_11  and  C_12
REMARK    8  A    between atoms: C_12  and  C_13
REMARK    9  A    between atoms: C_13  and  C_14
REMARK   10  A    between atoms: C_14  and  C_16
REMARK                            x       y       z     vdW  Elec       q    Type
REMARK                         _______ _______ _______ _____ _____    ______ ____
ROOT
ATOM      1  C   UNL     1       7.047   4.656  16.639  0.00  0.00    +0.000 C 
ATOM      2  C   UNL     1       5.699   4.069  17.058  0.00  0.00    +0.000 C 
ATOM      3  C   UNL     1       4.546   5.039  16.795  0.00  0.00    +0.000 C 
ATOM      4  N   UNL     1       4.771   6.342  17.443  0.00  0.00    +0.000 NA
ATOM      5  C   UNL     1       6.039   6.947  17.001  0.00  0.00    +0.000 C 
ATOM      6  C   UNL     1       7.231   6.031  17.275  0.00  0.00    +0.000 C 
ENDROOT
BRANCH   1   7
ATOM      7  C   UNL     1       7.188   4.675  15.123  0.00  0.00    +0.000 C 
ATOM      8  O   UNL     1       7.771   5.539  14.485  0.00  0.00    +0.000 OA
BRANCH   7   9
ATOM      9  O   UNL     1       6.468   3.657  14.571  0.00  0.00    +0.000 OA
BRANCH   9  10
ATOM     10  C   UNL     1       6.308   3.723  13.147  0.00  0.00    +0.000 C 
BRANCH  10  12
ATOM     11  C   UNL     1       4.671   3.102  11.367  0.00  0.00    +0.000 C 
ATOM     12  C   UNL     1       4.840   3.728  12.744  0.00  0.00    +0.000 C 
ENDBRANCH  10  12
ENDBRANCH   9  10
ENDBRANCH   7   9
ENDBRANCH   1   7
BRANCH   4  13
ATOM     13  C   UNL     1       3.661   7.275  17.165  0.00  0.00    +0.000 C 
BRANCH  13  14
ATOM     14  C   UNL     1       2.502   7.202  18.166  0.00  0.00    +0.000 C 
BRANCH  14  15
ATOM     15  C   UNL     1       2.944   6.723  19.551  0.00  0.00    +0.000 C 
BRANCH  15  16
ATOM     16  C   UNL     1       2.151   5.511  20.000  0.00  0.00    +0.000 C 
ATOM     17  O   UNL     1       1.177   5.601  20.745  0.00  0.00    +0.000 OA
BRANCH  16  18
ATOM     18  C   UNL     1       2.576   4.160  19.525  0.00  0.00    +0.000 A 
ATOM     19  C   UNL     1       1.937   3.499  18.465  0.00  0.00    +0.000 A 
ATOM     20  C   UNL     1       2.381   2.238  18.058  0.00  0.00    +0.000 A 
ATOM     21  C   UNL     1       3.458   1.643  18.707  0.00  0.00    +0.000 A 
ATOM     22  F   UNL     1       3.882   0.438  18.311  0.00  0.00    +0.000 F 
ATOM     23  C   UNL     1       4.100   2.283  19.761  0.00  0.00    +0.000 A 
ATOM     24  C   UNL     1       3.659   3.542  20.171  0.00  0.00    +0.000 A 
ENDBRANCH  16  18
ENDBRANCH  15  16
ENDBRANCH  14  15
ENDBRANCH  13  14
ENDBRANCH   4  13
TORSDOF 9
ENDMDL
MODEL 2
REMARK VINA RESULT:      -6.4      2.777      4.945
REMARK  Name = 
REMARK  10 active torsions:
REMARK  status: ('A' for Active; 'I' for Inactive)
REMARK    1  A    between atoms: C_1  and  C_2
REMARK    2  A    between atoms: C_2  and  C_3
REMARK    3  A    between atoms: C_3  and  O_4
REMARK    4  A    between atoms: O_4  and  C_5
REMARK    5  A    between atoms: C_5  and  C_7
REMARK    6  A    between atoms: N_10  and  C_11
REMARK    7  A    between atoms: C_11  and  C_12
REMARK    8  A    between atoms: C_12  and  C_13
REMARK    9  A    between atoms: C_13  and  C_14
REMARK   10  A    between atoms: C_14  and  C_16
REMARK                            x       y       z     vdW  Elec       q    Type
REMARK                         _______ _______ _______ _____ _____    ______ ____
ROOT
ATOM      1  C   UNL     1       5.752   6.639  17.446  0.00  0.00    +0.000 C 
ATOM      2  C   UNL     1       5.396   5.986  18.783  0.00  0.00    +0.000 C 
ATOM      3  C   UNL     1       5.422   4.460  18.698  0.00  0.00    +0.000 C 
ATOM      4  N   UNL     1       4.547   3.958  17.625  0.00  0.00    +0.000 NA
ATOM      5  C   UNL     1       4.919   4.533  16.321  0.00  0.00    +0.000 C 
ATOM      6  C   UNL     1       4.875   6.060  16.340  0.00  0.00    +0.000 C 
ENDROOT
BRANCH   1   7
ATOM      7  C   UNL     1       7.241   6.513  17.155  0.00  0.00    +0.000 C 
ATOM      8  O   UNL     1       7.730   5.768  16.318  0.00  0.00    +0.000 OA
BRANCH   7   9
ATOM      9  O   UNL     1       7.959   7.257  18.044  0.00  0.00    +0.000 OA
BRANCH   9  10
ATOM     10  C   UNL     1       7.934   8.674  17.816  0.00  0.00    +0.000 C 
BRANCH  10  12
ATOM     11  C   UNL     1       9.290  10.730  18.222  0.00  0.00    +0.000 C 
ATOM     12  C   UNL     1       8.797   9.421  18.823  0.00  0.00    +0.000 C 
ENDBRANCH  10  12
ENDBRANCH   9  10
ENDBRANCH   7   9
ENDBRANCH   1   7
BRANCH   4  13
ATOM     13  C   UNL     1       4.596   2.485  17.541  0.00  0.00    +0.000 C 
BRANCH  13  14
ATOM     14  C   UNL     1       3.229   1.796  17.639  0.00  0.00    +0.000 C 
BRANCH  14  15
ATOM     15  C   UNL     1       2.602   1.919  19.030  0.00  0.00    +0.000 C 
BRANCH  15  16
ATOM     16  C   UNL     1       1.389   2.829  19.015  0.00  0.00    +0.000 C 
ATOM     17  O   UNL     1       0.248   2.401  18.859  0.00  0.00    +0.000 OA
BRANCH  16  18
ATOM     18  C   UNL     1       1.594   4.298  19.190  0.00  0.00    +0.000 A 
ATOM     19  C   UNL     1       1.726   5.176  18.103  0.00  0.00    +0.000 A 
ATOM     20  C   UNL     1       1.909   6.543  18.326  0.00  0.00    +0.000 A 
ATOM     21  C   UNL     1       1.959   7.029  19.629  0.00  0.00    +0.000 A 
ATOM     22  F   UNL     1       2.132   8.340  19.836  0.00  0.00    +0.000 F 
ATOM     23  C   UNL     1       1.835   6.173  20.716  0.00  0.00    +0.000 A 
ATOM     24  C   UNL     1       1.652   4.807  20.497  0.00  0.00    +0.000 A 
ENDBRANCH  16  18
ENDBRANCH  15  16
ENDBRANCH  14  15
ENDBRANCH  13  14
ENDBRANCH   4  13
TORSDOF 9
ENDMDL
MODEL 3
REMARK VINA RESULT:      -6.3      2.725      4.164
REMARK  Name = 
REMARK  10 active torsions:
REMARK  status: ('A' for Active; 'I' for Inactive)
REMARK    1  A    between atoms: C_1  and  C_2
REMARK    2  A    between atoms: C_2  and  C_3
REMARK    3  A    between atoms: C_3  and  O_4
REMARK    4  A    between atoms: O_4  and  C_5
REMARK    5  A    between atoms: C_5  and  C_7
REMARK    6  A    between atoms: N_10  and  C_11
REMARK    7  A    between atoms: C_11  and  C_12
REMARK    8  A    between atoms: C_12  and  C_13
REMARK    9  A    between atoms: C_13  and  C_14
REMARK   10  A    between atoms: C_14  and  C_16
REMARK                            x       y       z     vdW  Elec       q    Type
REMARK                         _______ _______ _______ _____ _____    ______ ____
ROOT
ATOM      1  C   UNL     1       6.491   6.169  17.343  0.00  0.00    +0.000 C 
ATOM      2  C   UNL     1       6.573   5.508  18.720  0.00  0.00    +0.000 C 
ATOM      3  C   UNL     1       5.610   4.328  18.846  0.00  0.00    +0.000 C 
ATOM      4  N   UNL     1       4.224   4.720  18.539  0.00  0.00    +0.000 NA
ATOM      5  C   UNL     1       4.120   5.303  17.190  0.00  0.00    +0.000 C 
ATOM      6  C   UNL     1       5.039   6.511  17.021  0.00  0.00    +0.000 C 
ENDROOT
BRANCH   1   7
ATOM      7  C   UNL     1       7.150   5.301  16.280  0.00  0.00    +0.000 C 
ATOM      8  O   UNL     1       7.996   4.446  16.500  0.00  0.00    +0.000 OA
BRANCH   7   9
ATOM      9  O   UNL     1       6.753   5.697  15.037  0.00  0.00    +0.000 OA
BRANCH   9  10
ATOM     10  C   UNL     1       6.995   4.750  13.987  0.00  0.00    +0.000 C 
BRANCH  10  12
ATOM     11  C   UNL     1       5.913   3.231  12.327  0.00  0.00    +0.000 C 
ATOM     12  C   UNL     1       5.751   3.932  13.668  0.00  0.00    +0.000 C 
ENDBRANCH  10  12
ENDBRANCH   9  10
ENDBRANCH   7   9
ENDBRANCH   1   7
BRANCH   4  13
ATOM     13  C   UNL     1       3.307   3.567  18.645  0.00  0.00    +0.000 C 
BRANCH  13  14
ATOM     14  C   UNL     1       1.828   3.908  18.422  0.00  0.00    +0.000 C 
BRANCH  14  15
ATOM     15  C   UNL     1       1.064   4.115  19.732  0.00  0.00    +0.000 C 
BRANCH  15  16
ATOM     16  C   UNL     1       1.776   5.094  20.644  0.00  0.00    +0.000 C 
ATOM     17  O   UNL     1       2.534   4.727  21.539  0.00  0.00    +0.000 OA
BRANCH  16  18
ATOM     18  C   UNL     1       1.541   6.556  20.449  0.00  0.00    +0.000 A 
ATOM     19  C   UNL     1       0.837   7.337  21.378  0.00  0.00    +0.000 A 
ATOM     20  C   UNL     1       0.652   8.703  21.147  0.00  0.00    +0.000 A 
ATOM     21  C   UNL     1       1.171   9.283  19.994  0.00  0.00    +0.000 A 
ATOM     22  F   UNL     1       0.994  10.592  19.780  0.00  0.00    +0.000 F 
ATOM     23  C   UNL     1       1.867   8.524  19.062  0.00  0.00    +0.000 A 
ATOM     24  C   UNL     1       2.053   7.160  19.289  0.00  0.00    +0.000 A 
ENDBRANCH  16  18
ENDBRANCH  15  16
ENDBRANCH  14  15
ENDBRANCH  13  14
ENDBRANCH   4  13
TORSDOF 9
ENDMDL
MODEL 4
REMARK VINA RESULT:      -6.2      2.398      3.893
REMARK  Name = 
REMARK  10 active torsions:
REMARK  status: ('A' for Active; 'I' for Inactive)
REMARK    1  A    between atoms: C_1  and  C_2
REMARK    2  A    between atoms: C_2  and  C_3
REMARK    3  A    between atoms: C_3  and  O_4
REMARK    4  A    between atoms: O_4  and  C_5
REMARK    5  A    between atoms: C_5  and  C_7
REMARK    6  A    between atoms: N_10  and  C_11
REMARK    7  A    between atoms: C_11  and  C_12
REMARK    8  A    between atoms: C_12  and  C_13
REMARK    9  A    between atoms: C_13  and  C_14
REMARK   10  A    between atoms: C_14  and  C_16
REMARK                            x       y       z     vdW  Elec       q    Type
REMARK                         _______ _______ _______ _____ _____    ______ ____
ROOT
ATOM      1  C   UNL     1       5.933   5.669  16.706  0.00  0.00    +0.000 C 
ATOM      2  C   UNL     1       6.007   5.814  18.226  0.00  0.00    +0.000 C 
ATOM      3  C   UNL     1       5.886   4.465  18.936  0.00  0.00    +0.000 C 
ATOM      4  N   UNL     1       4.662   3.747  18.540  0.00  0.00    +0.000 NA
ATOM      5  C   UNL     1       4.608   3.547  17.082  0.00  0.00    +0.000 C 
ATOM      6  C   UNL     1       4.689   4.871  16.323  0.00  0.00    +0.000 C 
ENDROOT
BRANCH   1   7
ATOM      7  C   UNL     1       7.219   5.072  16.150  0.00  0.00    +0.000 C 
ATOM      8  O   UNL     1       8.034   4.435  16.802  0.00  0.00    +0.000 OA
BRANCH   7   9
ATOM      9  O   UNL     1       7.393   5.454  14.853  0.00  0.00    +0.000 OA
BRANCH   9  10
ATOM     10  C   UNL     1       6.966   4.498  13.871  0.00  0.00    +0.000 C 
BRANCH  10  12
ATOM     11  C   UNL     1       8.501   5.989  12.585  0.00  0.00    +0.000 C 
ATOM     12  C   UNL     1       7.576   4.783  12.505  0.00  0.00    +0.000 C 
ENDBRANCH  10  12
ENDBRANCH   9  10
ENDBRANCH   7   9
ENDBRANCH   1   7
BRANCH   4  13
ATOM     13  C   UNL     1       4.568   2.439  19.217  0.00  0.00    +0.000 C 
BRANCH  13  14
ATOM     14  C   UNL     1       3.392   1.568  18.756  0.00  0.00    +0.000 C 
BRANCH  14  15
ATOM     15  C   UNL     1       2.141   1.758  19.616  0.00  0.00    +0.000 C 
BRANCH  15  16
ATOM     16  C   UNL     1       1.202   2.784  19.013  0.00  0.00    +0.000 C 
ATOM     17  O   UNL     1       0.218   2.466  18.349  0.00  0.00    +0.000 OA
BRANCH  16  18
ATOM     18  C   UNL     1       1.490   4.233  19.230  0.00  0.00    +0.000 A 
ATOM     19  C   UNL     1       1.644   4.788  20.509  0.00  0.00    +0.000 A 
ATOM     20  C   UNL     1       1.920   6.151  20.653  0.00  0.00    +0.000 A 
ATOM     21  C   UNL     1       2.040   6.953  19.523  0.00  0.00    +0.000 A 
ATOM     22  F   UNL     1       2.308   8.256  19.666  0.00  0.00    +0.000 F 
ATOM     23  C   UNL     1       1.886   6.421  18.249  0.00  0.00    +0.000 A 
ATOM     24  C   UNL     1       1.611   5.061  18.101  0.00  0.00    +0.000 A 
ENDBRANCH  16  18
ENDBRANCH  15  16
ENDBRANCH  14  15
ENDBRANCH  13  14
ENDBRANCH   4  13
TORSDOF 9
ENDMDL
MODEL 5
REMARK VINA RESULT:      -6.2      4.313      6.905
REMARK  Name = 
REMARK  10 active torsions:
REMARK  status: ('A' for Active; 'I' for Inactive)
REMARK    1  A    between atoms: C_1  and  C_2
REMARK    2  A    between atoms: C_2  and  C_3
REMARK    3  A    between atoms: C_3  and  O_4
REMARK    4  A    between atoms: O_4  and  C_5
REMARK    5  A    between atoms: C_5  and  C_7
REMARK    6  A    between atoms: N_10  and  C_11
REMARK    7  A    between atoms: C_11  and  C_12
REMARK    8  A    between atoms: C_12  and  C_13
REMARK    9  A    between atoms: C_13  and  C_14
REMARK   10  A    between atoms: C_14  and  C_16
REMARK                            x       y       z     vdW  Elec       q    Type
REMARK                         _______ _______ _______ _____ _____    ______ ____
ROOT
ATOM      1  C   UNL     1       4.048   3.266  17.929  0.00  0.00    +0.000 C 
ATOM      2  C   UNL     1       5.165   4.110  17.315  0.00  0.00    +0.000 C 
ATOM      3  C   UNL     1       5.022   5.591  17.667  0.00  0.00    +0.000 C 
ATOM      4  N   UNL     1       3.701   6.118  17.284  0.00  0.00    +0.000 NA
ATOM      5  C   UNL     1       2.615   5.351  17.918  0.00  0.00    +0.000 C 
ATOM      6  C   UNL     1       2.691   3.865  17.569  0.00  0.00    +0.000 C 
ENDROOT
BRANCH   1   7
ATOM      7  C   UNL     1       4.248   3.102  19.430  0.00  0.00    +0.000 C 
ATOM      8  O   UNL     1       5.222   2.579  19.953  0.00  0.00    +0.000 OA
BRANCH   7   9
ATOM      9  O   UNL     1       3.133   3.509  20.101  0.00  0.00    +0.000 OA
BRANCH   9  10
ATOM     10  C   UNL     1       2.855   2.796  21.315  0.00  0.00    +0.000 C 
BRANCH  10  12
ATOM     11  C   UNL     1       0.581   3.287  20.410  0.00  0.00    +0.000 C 
ATOM     12  C   UNL     1       1.359   2.674  21.566  0.00  0.00    +0.000 C 
ENDBRANCH  10  12
ENDBRANCH   9  10
ENDBRANCH   7   9
ENDBRANCH   1   7
BRANCH   4  13
ATOM     13  C   UNL     1       3.568   7.543  17.647  0.00  0.00    +0.000 C 
BRANCH  13  14
ATOM     14  C   UNL     1       2.214   7.920  18.260  0.00  0.00    +0.000 C 
BRANCH  14  15
ATOM     15  C   UNL     1       1.929   9.421  18.190  0.00  0.00    +0.000 C 
BRANCH  15  16
ATOM     16  C   UNL     1       0.463   9.722  18.435  0.00  0.00    +0.000 C 
ATOM     17  O   UNL     1      -0.373   9.702  17.534  0.00  0.00    +0.000 OA
BRANCH  16  18
ATOM     18  C   UNL     1       0.024  10.061  19.822  0.00  0.00    +0.000 A 
ATOM     19  C   UNL     1       0.140   9.160  20.891  0.00  0.00    +0.000 A 
ATOM     20  C   UNL     1      -0.281   9.533  22.171  0.00  0.00    +0.000 A 
ATOM     21  C   UNL     1      -0.816  10.801  22.378  0.00  0.00    +0.000 A 
ATOM     22  F   UNL     1      -1.215  11.155  23.605  0.00  0.00    +0.000 F 
ATOM     23  C   UNL     1      -0.942  11.704  21.329  0.00  0.00    +0.000 A 
ATOM     24  C   UNL     1      -0.522  11.335  20.051  0.00  0.00    +0.000 A 
ENDBRANCH  16  18
ENDBRANCH  15  16
ENDBRANCH  14  15
ENDBRANCH  13  14
ENDBRANCH   4  13
TORSDOF 9
ENDMDL
MODEL 6
REMARK VINA RESULT:      -6.1      3.136      5.146
REMARK  Name = 
REMARK  10 active torsions:
REMARK  status: ('A' for Active; 'I' for Inactive)
REMARK    1  A    between atoms: C_1  and  C_2
REMARK    2  A    between atoms: C_2  and  C_3
REMARK    3  A    between atoms: C_3  and  O_4
REMARK    4  A    between atoms: O_4  and  C_5
REMARK    5  A    between atoms: C_5  and  C_7
REMARK    6  A    between atoms: N_10  and  C_11
REMARK    7  A    between atoms: C_11  and  C_12
REMARK    8  A    between atoms: C_12  and  C_13
REMARK    9  A    between atoms: C_13  and  C_14
REMARK   10  A    between atoms: C_14  and  C_16
REMARK                            x       y       z     vdW  Elec       q    Type
REMARK                         _______ _______ _______ _____ _____    ______ ____
ROOT
ATOM      1  C   UNL     1       4.007   2.690  17.205  0.00  0.00    +0.000 C 
ATOM      2  C   UNL     1       2.617   3.194  16.814  0.00  0.00    +0.000 C 
ATOM      3  C   UNL     1       1.807   3.640  18.032  0.00  0.00    +0.000 C 
ATOM      4  N   UNL     1       1.708   2.573  19.042  0.00  0.00    +0.000 NA
ATOM      5  C   UNL     1       3.042   2.121  19.473  0.00  0.00    +0.000 C 
ATOM      6  C   UNL     1       3.883   1.630  18.295  0.00  0.00    +0.000 C 
ENDROOT
BRANCH   1   7
ATOM      7  C   UNL     1       4.917   3.846  17.597  0.00  0.00    +0.000 C 
ATOM      8  O   UNL     1       5.649   3.860  18.576  0.00  0.00    +0.000 OA
BRANCH   7   9
ATOM      9  O   UNL     1       4.709   4.910  16.770  0.00  0.00    +0.000 OA
BRANCH   9  10
ATOM     10  C   UNL     1       5.837   5.295  15.972  0.00  0.00    +0.000 C 
BRANCH  10  12
ATOM     11  C   UNL     1       5.989   3.982  13.854  0.00  0.00    +0.000 C 
ATOM     12  C   UNL     1       6.480   4.095  15.290  0.00  0.00    +0.000 C 
ENDBRANCH  10  12
ENDBRANCH   9  10
ENDBRANCH   7   9
ENDBRANCH   1   7
BRANCH   4  13
ATOM     13  C   UNL     1       0.941   3.023  20.221  0.00  0.00    +0.000 C 
BRANCH  13  14
ATOM     14  C   UNL     1       0.804   4.545  20.348  0.00  0.00    +0.000 C 
BRANCH  14  15
ATOM     15  C   UNL     1       1.980   5.186  21.088  0.00  0.00    +0.000 C 
BRANCH  15  16
ATOM     16  C   UNL     1       2.766   6.117  20.186  0.00  0.00    +0.000 C 
ATOM     17  O   UNL     1       3.908   5.861  19.810  0.00  0.00    +0.000 OA
BRANCH  16  18
ATOM     18  C   UNL     1       2.128   7.394  19.745  0.00  0.00    +0.000 A 
ATOM     19  C   UNL     1       1.395   8.211  20.617  0.00  0.00    +0.000 A 
ATOM     20  C   UNL     1       0.825   9.400  20.152  0.00  0.00    +0.000 A 
ATOM     21  C   UNL     1       0.989   9.767  18.820  0.00  0.00    +0.000 A 
ATOM     22  F   UNL     1       0.445  10.907  18.380  0.00  0.00    +0.000 F 
ATOM     23  C   UNL     1       1.709   8.967  17.941  0.00  0.00    +0.000 A 
ATOM     24  C   UNL     1       2.279   7.780  18.403  0.00  0.00    +0.000 A 
ENDBRANCH  16  18
ENDBRANCH  15  16
ENDBRANCH  14  15
ENDBRANCH  13  14
ENDBRANCH   4  13
TORSDOF 9
ENDMDL
MODEL 7
REMARK VINA RESULT:      -6.0      3.791      5.229
REMARK  Name = 
REMARK  10 active torsions:
REMARK  status: ('A' for Active; 'I' for Inactive)
REMARK    1  A    between atoms: C_1  and  C_2
REMARK    2  A    between atoms: C_2  and  C_3
REMARK    3  A    between atoms: C_3  and  O_4
REMARK    4  A    between atoms: O_4  and  C_5
REMARK    5  A    between atoms: C_5  and  C_7
REMARK    6  A    between atoms: N_10  and  C_11
REMARK    7  A    between atoms: C_11  and  C_12
REMARK    8  A    between atoms: C_12  and  C_13
REMARK    9  A    between atoms: C_13  and  C_14
REMARK   10  A    between atoms: C_14  and  C_16
REMARK                            x       y       z     vdW  Elec       q    Type
REMARK                         _______ _______ _______ _____ _____    ______ ____
ROOT
ATOM      1  C   UNL     1       6.818   6.287  17.142  0.00  0.00    +0.000 C 
ATOM      2  C   UNL     1       6.851   5.847  18.607  0.00  0.00    +0.000 C 
ATOM      3  C   UNL     1       5.640   4.989  18.973  0.00  0.00    +0.000 C 
ATOM      4  N   UNL     1       4.373   5.673  18.663  0.00  0.00    +0.000 NA
ATOM      5  C   UNL     1       4.302   6.048  17.241  0.00  0.00    +0.000 C 
ATOM      6  C   UNL     1       5.474   6.939  16.830  0.00  0.00    +0.000 C 
ENDROOT
BRANCH   1   7
ATOM      7  C   UNL     1       7.149   5.126  16.215  0.00  0.00    +0.000 C 
ATOM      8  O   UNL     1       7.808   4.145  16.528  0.00  0.00    +0.000 OA
BRANCH   7   9
ATOM      9  O   UNL     1       6.711   5.393  14.951  0.00  0.00    +0.000 OA
BRANCH   9  10
ATOM     10  C   UNL     1       5.730   4.480  14.438  0.00  0.00    +0.000 C 
BRANCH  10  12
ATOM     11  C   UNL     1       6.983   4.425  12.280  0.00  0.00    +0.000 C 
ATOM     12  C   UNL     1       6.309   3.583  13.353  0.00  0.00    +0.000 C 
ENDBRANCH  10  12
ENDBRANCH   9  10
ENDBRANCH   7   9
ENDBRANCH   1   7
BRANCH   4  13
ATOM     13  C   UNL     1       3.212   4.826  19.003  0.00  0.00    +0.000 C 
BRANCH  13  14
ATOM     14  C   UNL     1       2.061   5.570  19.692  0.00  0.00    +0.000 C 
BRANCH  14  15
ATOM     15  C   UNL     1       2.512   6.871  20.359  0.00  0.00    +0.000 C 
BRANCH  15  16
ATOM     16  C   UNL     1       1.799   8.074  19.774  0.00  0.00    +0.000 C 
ATOM     17  O   UNL     1       1.887   8.378  18.586  0.00  0.00    +0.000 OA
BRANCH  16  18
ATOM     18  C   UNL     1       0.965   8.922  20.678  0.00  0.00    +0.000 A 
ATOM     19  C   UNL     1       0.305   8.403  21.801  0.00  0.00    +0.000 A 
ATOM     20  C   UNL     1      -0.457   9.245  22.617  0.00  0.00    +0.000 A 
ATOM     21  C   UNL     1      -0.557  10.598  22.308  0.00  0.00    +0.000 A 
ATOM     22  F   UNL     1      -1.285  11.400  23.094  0.00  0.00    +0.000 F 
ATOM     23  C   UNL     1       0.087  11.128  21.197  0.00  0.00    +0.000 A 
ATOM     24  C   UNL     1       0.849  10.290  20.381  0.00  0.00    +0.000 A 
ENDBRANCH  16  18
ENDBRANCH  15  16
ENDBRANCH  14  15
ENDBRANCH  13  14
ENDBRANCH   4  13
TORSDOF 9
ENDMDL
MODEL 8
REMARK VINA RESULT:      -6.0      3.015      5.190
REMARK  Name = 
REMARK  10 active torsions:
REMARK  status: ('A' for Active; 'I' for Inactive)
REMARK    1  A    between atoms: C_1  and  C_2
REMARK    2  A    between atoms: C_2  and  C_3
REMARK    3  A    between atoms: C_3  and  O_4
REMARK    4  A    between atoms: O_4  and  C_5
REMARK    5  A    between atoms: C_5  and  C_7
REMARK    6  A    between atoms: N_10  and  C_11
REMARK    7  A    between atoms: C_11  and  C_12
REMARK    8  A    between atoms: C_12  and  C_13
REMARK    9  A    between atoms: C_13  and  C_14
REMARK   10  A    between atoms: C_14  and  C_16
REMARK                            x       y       z     vdW  Elec       q    Type
REMARK                         _______ _______ _______ _____ _____    ______ ____
ROOT
ATOM      1  C   UNL     1       7.687   5.799  18.501  0.00  0.00    +0.000 C 
ATOM      2  C   UNL     1       7.894   4.637  17.528  0.00  0.00    +0.000 C 
ATOM      3  C   UNL     1       6.584   4.205  16.868  0.00  0.00    +0.000 C 
ATOM      4  N   UNL     1       5.554   3.872  17.865  0.00  0.00    +0.000 NA
ATOM      5  C   UNL     1       5.301   5.006  18.772  0.00  0.00    +0.000 C 
ATOM      6  C   UNL     1       6.574   5.455  19.487  0.00  0.00    +0.000 C 
ENDROOT
BRANCH   1   7
ATOM      7  C   UNL     1       7.441   7.102  17.752  0.00  0.00    +0.000 C 
ATOM      8  O   UNL     1       6.736   7.216  16.759  0.00  0.00    +0.000 OA
BRANCH   7   9
ATOM      9  O   UNL     1       8.214   8.097  18.272  0.00  0.00    +0.000 OA
BRANCH   9  10
ATOM     10  C   UNL     1       8.123   9.359  17.595  0.00  0.00    +0.000 C 
BRANCH  10  12
ATOM     11  C   UNL     1       9.286   9.977  19.716  0.00  0.00    +0.000 C 
ATOM     12  C   UNL     1       8.914  10.443  18.316  0.00  0.00    +0.000 C 
ENDBRANCH  10  12
ENDBRANCH   9  10
ENDBRANCH   7   9
ENDBRANCH   1   7
BRANCH   4  13
ATOM     13  C   UNL     1       4.289   3.476  17.215  0.00  0.00    +0.000 C 
BRANCH  13  14
ATOM     14  C   UNL     1       3.680   2.174  17.749  0.00  0.00    +0.000 C 
BRANCH  14  15
ATOM     15  C   UNL     1       2.879   2.378  19.037  0.00  0.00    +0.000 C 
BRANCH  15  16
ATOM     16  C   UNL     1       1.670   3.263  18.807  0.00  0.00    +0.000 C 
ATOM     17  O   UNL     1       0.623   2.835  18.328  0.00  0.00    +0.000 OA
BRANCH  16  18
ATOM     18  C   UNL     1       1.762   4.709  19.171  0.00  0.00    +0.000 A 
ATOM     19  C   UNL     1       1.615   5.166  20.490  0.00  0.00    +0.000 A 
ATOM     20  C   UNL     1       1.717   6.530  20.774  0.00  0.00    +0.000 A 
ATOM     21  C   UNL     1       1.964   7.432  19.744  0.00  0.00    +0.000 A 
ATOM     22  F   UNL     1       2.064   8.737  20.022  0.00  0.00    +0.000 F 
ATOM     23  C   UNL     1       2.107   6.998  18.432  0.00  0.00    +0.000 A 
ATOM     24  C   UNL     1       2.006   5.636  18.145  0.00  0.00    +0.000 A 
ENDBRANCH  16  18
ENDBRANCH  15  16
ENDBRANCH  14  15
ENDBRANCH  13  14
ENDBRANCH   4  13
TORSDOF 9
ENDMDL
MODEL 9
REMARK VINA RESULT:      -6.0      4.508      6.454
REMARK  Name = 
REMARK  10 active torsions:
REMARK  status: ('A' for Active; 'I' for Inactive)
REMARK    1  A    between atoms: C_1  and  C_2
REMARK    2  A    between atoms: C_2  and  C_3
REMARK    3  A    between atoms: C_3  and  O_4
REMARK    4  A    between atoms: O_4  and  C_5
REMARK    5  A    between atoms: C_5  and  C_7
REMARK    6  A    between atoms: N_10  and  C_11
REMARK    7  A    between atoms: C_11  and  C_12
REMARK    8  A    between atoms: C_12  and  C_13
REMARK    9  A    between atoms: C_13  and  C_14
REMARK   10  A    between atoms: C_14  and  C_16
REMARK                            x       y       z     vdW  Elec       q    Type
REMARK                         _______ _______ _______ _____ _____    ______ ____
ROOT
ATOM      1  C   UNL     1       3.244   2.926  18.276  0.00  0.00    +0.000 C 
ATOM      2  C   UNL     1       2.248   3.847  17.570  0.00  0.00    +0.000 C 
ATOM      3  C   UNL     1       2.111   5.193  18.283  0.00  0.00    +0.000 C 
ATOM      4  N   UNL     1       1.750   5.025  19.701  0.00  0.00    +0.000 NA
ATOM      5  C   UNL     1       2.735   4.188  20.407  0.00  0.00    +0.000 C 
ATOM      6  C   UNL     1       2.886   2.815  19.755  0.00  0.00    +0.000 C 
ENDROOT
BRANCH   1   7
ATOM      7  C   UNL     1       4.677   3.387  18.041  0.00  0.00    +0.000 C 
ATOM      8  O   UNL     1       5.490   3.622  18.923  0.00  0.00    +0.000 OA
BRANCH   7   9
ATOM      9  O   UNL     1       4.885   3.617  16.713  0.00  0.00    +0.000 OA
BRANCH   9  10
ATOM     10  C   UNL     1       5.954   4.524  16.410  0.00  0.00    +0.000 C 
BRANCH  10  12
ATOM     11  C   UNL     1       6.195   4.015  13.978  0.00  0.00    +0.000 C 
ATOM     12  C   UNL     1       5.834   5.084  14.999  0.00  0.00    +0.000 C 
ENDBRANCH  10  12
ENDBRANCH   9  10
ENDBRANCH   7   9
ENDBRANCH   1   7
BRANCH   4  13
ATOM     13  C   UNL     1       1.639   6.330  20.382  0.00  0.00    +0.000 C 
BRANCH  13  14
ATOM     14  C   UNL     1       2.169   7.518  19.570  0.00  0.00    +0.000 C 
BRANCH  14  15
ATOM     15  C   UNL     1       1.389   8.809  19.830  0.00  0.00    +0.000 C 
BRANCH  15  16
ATOM     16  C   UNL     1       0.973   9.478  18.535  0.00  0.00    +0.000 C 
ATOM     17  O   UNL     1       1.691   9.488  17.538  0.00  0.00    +0.000 OA
BRANCH  16  18
ATOM     18  C   UNL     1      -0.357  10.156  18.475  0.00  0.00    +0.000 A 
ATOM     19  C   UNL     1      -1.269   9.937  17.432  0.00  0.00    +0.000 A 
ATOM     20  C   UNL     1      -2.503  10.593  17.430  0.00  0.00    +0.000 A 
ATOM     21  C   UNL     1      -2.821  11.464  18.467  0.00  0.00    +0.000 A 
ATOM     22  F   UNL     1      -4.005  12.088  18.462  0.00  0.00    +0.000 F 
ATOM     23  C   UNL     1      -1.929  11.696  19.506  0.00  0.00    +0.000 A 
ATOM     24  C   UNL     1      -0.696  11.042  19.511  0.00  0.00    +0.000 A 
ENDBRANCH  16  18
ENDBRANCH  15  16
ENDBRANCH  14  15
ENDBRANCH  13  14
ENDBRANCH   4  13
TORSDOF 9
ENDMDL
