MODEL 1
REMARK VINA RESULT:      -9.6      0.000      0.000
REMARK  Name = 
REMARK  5 active torsions:
REMARK  status: ('A' for Active; 'I' for Inactive)
REMARK    1  A    between atoms: C_1  and  C_2
REMARK    2  A    between atoms: C_6  and  N_7
REMARK    3  A    between atoms: C_11  and  C_13
REMARK    4  A    between atoms: C_16  and  N_17
REMARK    5  A    between atoms: C_35  and  C_36
REMARK                            x       y       z     vdW  Elec       q    Type
REMARK                         _______ _______ _______ _____ _____    ______ ____
ROOT
ATOM      1  C   UNL     1       0.333  10.212  19.350  0.00  0.00    +0.000 A 
ATOM      2  C   UNL     1       0.252   9.538  20.568  0.00  0.00    +0.000 A 
ATOM      3  C   UNL     1       1.037   8.406  20.803  0.00  0.00    +0.000 A 
ATOM      4  C   UNL     1       1.833   7.852  19.793  0.00  0.00    +0.000 A 
ATOM      5  C   UNL     1       1.859   8.507  18.554  0.00  0.00    +0.000 A 
ATOM      6  C   UNL     1       1.119   9.672  18.331  0.00  0.00    +0.000 A 
ENDROOT
BRANCH   4   7
ATOM      7  N   UNL     1       2.504   6.647  20.065  0.00  0.00    +0.000 N 
ATOM      8  C   UNL     1       3.278   5.905  19.192  0.00  0.00    +0.000 A 
ATOM      9  N   UNL     1       3.790   6.412  18.098  0.00  0.00    +0.000 NA
ATOM     10  C   UNL     1       4.549   5.628  17.212  0.00  0.00    +0.000 A 
ATOM     11  C   UNL     1       5.042   6.231  16.057  0.00  0.00    +0.000 A 
ATOM     12  C   UNL     1       5.803   5.490  15.153  0.00  0.00    +0.000 A 
ATOM     13  C   UNL     1       6.078   4.139  15.399  0.00  0.00    +0.000 A 
ATOM     14  C   UNL     1       5.584   3.515  16.546  0.00  0.00    +0.000 A 
ATOM     15  C   UNL     1       4.825   4.272  17.432  0.00  0.00    +0.000 A 
ATOM     16  N   UNL     1       4.269   3.757  18.598  0.00  0.00    +0.000 N 
ATOM     17  N   UNL     1       4.331   2.496  19.057  0.00  0.00    +0.000 NA
ATOM     18  N   UNL     1       3.619   2.504  20.183  0.00  0.00    +0.000 NA
ATOM     19  N   UNL     1       3.111   3.764  20.449  0.00  0.00    +0.000 NA
ATOM     20  C   UNL     1       3.530   4.512  19.453  0.00  0.00    +0.000 A 
ATOM     21  H   UNL     1       2.133   6.125  20.853  0.00  0.00    +0.000 HD
ENDBRANCH   4   7
BRANCH   1  26
ATOM     22  N   UNL     1      -1.266  14.291  21.976  0.00  0.00    +0.000 N 
ATOM     23  C   UNL     1      -2.094  14.069  20.760  0.00  0.00    +0.000 C 
ATOM     24  C   UNL     1      -1.201  13.720  19.557  0.00  0.00    +0.000 C 
ATOM     25  N   UNL     1      -0.352  12.565  19.867  0.00  0.00    +0.000 N 
ATOM     26  C   UNL     1      -0.442  11.442  19.050  0.00  0.00    +0.000 C 
ATOM     27  O   UNL     1      -1.149  11.419  18.042  0.00  0.00    +0.000 OA
ATOM     28  C   UNL     1       0.478  12.785  21.063  0.00  0.00    +0.000 C 
ATOM     29  C   UNL     1      -0.415  13.109  22.287  0.00  0.00    +0.000 C 
BRANCH  22  35
ATOM     30  C   UNL     1      -1.258  17.423  25.913  0.00  0.00    +0.000 C 
ATOM     31  C   UNL     1      -1.923  16.407  25.021  0.00  0.00    +0.000 A 
ATOM     32  C   UNL     1      -3.212  15.975  25.355  0.00  0.00    +0.000 A 
ATOM     33  C   UNL     1      -3.855  15.028  24.575  0.00  0.00    +0.000 A 
ATOM     34  C   UNL     1      -3.204  14.476  23.473  0.00  0.00    +0.000 A 
ATOM     35  C   UNL     1      -1.904  14.866  23.096  0.00  0.00    +0.000 A 
ATOM     36  C   UNL     1      -1.280  15.891  23.862  0.00  0.00    +0.000 A 
ATOM     37  C   UNL     1       0.053  16.478  23.461  0.00  0.00    +0.000 C 
ENDBRANCH  22  35
ENDBRANCH   1  26
TORSDOF 3
ENDMDL
MODEL 2
REMARK VINA RESULT:      -9.4      2.146      2.911
REMARK  Name = 
REMARK  5 active torsions:
REMARK  status: ('A' for Active; 'I' for Inactive)
REMARK    1  A    between atoms: C_1  and  C_2
REMARK    2  A    between atoms: C_6  and  N_7
REMARK    3  A    between atoms: C_11  and  C_13
REMARK    4  A    between atoms: C_16  and  N_17
REMARK    5  A    between atoms: C_35  and  C_36
REMARK                            x       y       z     vdW  Elec       q    Type
REMARK                         _______ _______ _______ _____ _____    ______ ____
ROOT
ATOM      1  C   UNL     1       0.759  10.925  20.826  0.00  0.00    +0.000 A 
ATOM      2  C   UNL     1       1.012  10.223  22.004  0.00  0.00    +0.000 A 
ATOM      3  C   UNL     1       1.388   8.877  21.959  0.00  0.00    +0.000 A 
ATOM      4  C   UNL     1       1.409   8.170  20.751  0.00  0.00    +0.000 A 
ATOM      5  C   UNL     1       1.095   8.873  19.580  0.00  0.00    +0.000 A 
ATOM      6  C   UNL     1       0.773  10.234  19.613  0.00  0.00    +0.000 A 
ENDROOT
BRANCH   4   7
ATOM      7  N   UNL     1       1.682   6.792  20.795  0.00  0.00    +0.000 N 
ATOM      8  C   UNL     1       2.363   6.042  19.854  0.00  0.00    +0.000 A 
ATOM      9  N   UNL     1       3.162   6.581  18.966  0.00  0.00    +0.000 NA
ATOM     10  C   UNL     1       3.817   5.800  18.000  0.00  0.00    +0.000 A 
ATOM     11  C   UNL     1       4.633   6.446  17.074  0.00  0.00    +0.000 A 
ATOM     12  C   UNL     1       5.306   5.708  16.101  0.00  0.00    +0.000 A 
ATOM     13  C   UNL     1       5.169   4.314  16.047  0.00  0.00    +0.000 A 
ATOM     14  C   UNL     1       4.347   3.651  16.961  0.00  0.00    +0.000 A 
ATOM     15  C   UNL     1       3.684   4.407  17.921  0.00  0.00    +0.000 A 
ATOM     16  N   UNL     1       2.830   3.859  18.871  0.00  0.00    +0.000 N 
ATOM     17  N   UNL     1       2.479   2.571  19.024  0.00  0.00    +0.000 NA
ATOM     18  N   UNL     1       1.622   2.566  20.043  0.00  0.00    +0.000 NA
ATOM     19  N   UNL     1       1.431   3.841  20.548  0.00  0.00    +0.000 NA
ATOM     20  C   UNL     1       2.189   4.614  19.803  0.00  0.00    +0.000 A 
ATOM     21  H   UNL     1       1.064   6.257  21.398  0.00  0.00    +0.000 HD
ENDBRANCH   4   7
BRANCH   1  26
ATOM     22  N   UNL     1      -3.420  13.686  21.823  0.00  0.00    +0.000 N 
ATOM     23  C   UNL     1      -2.490  14.415  20.918  0.00  0.00    +0.000 C 
ATOM     24  C   UNL     1      -1.038  14.262  21.402  0.00  0.00    +0.000 C 
ATOM     25  N   UNL     1      -0.687  12.843  21.530  0.00  0.00    +0.000 N 
ATOM     26  C   UNL     1       0.396  12.363  20.801  0.00  0.00    +0.000 C 
ATOM     27  O   UNL     1       1.107  13.101  20.119  0.00  0.00    +0.000 OA
ATOM     28  C   UNL     1      -1.598  12.122  22.435  0.00  0.00    +0.000 C 
ATOM     29  C   UNL     1      -3.061  12.246  21.939  0.00  0.00    +0.000 C 
BRANCH  22  35
ATOM     30  C   UNL     1      -7.731  15.707  23.449  0.00  0.00    +0.000 C 
ATOM     31  C   UNL     1      -6.919  14.933  22.443  0.00  0.00    +0.000 A 
ATOM     32  C   UNL     1      -7.580  14.391  21.334  0.00  0.00    +0.000 A 
ATOM     33  C   UNL     1      -6.878  13.655  20.394  0.00  0.00    +0.000 A 
ATOM     34  C   UNL     1      -5.514  13.424  20.568  0.00  0.00    +0.000 A 
ATOM     35  C   UNL     1      -4.801  13.937  21.669  0.00  0.00    +0.000 A 
ATOM     36  C   UNL     1      -5.517  14.750  22.592  0.00  0.00    +0.000 A 
ATOM     37  C   UNL     1      -4.817  15.460  23.728  0.00  0.00    +0.000 C 
ENDBRANCH  22  35
ENDBRANCH   1  26
TORSDOF 3
ENDMDL
MODEL 3
REMARK VINA RESULT:      -9.4      2.686      4.272
REMARK  Name = 
REMARK  5 active torsions:
REMARK  status: ('A' for Active; 'I' for Inactive)
REMARK    1  A    between atoms: C_1  and  C_2
REMARK    2  A    between atoms: C_6  and  N_7
REMARK    3  A    between atoms: C_11  and  C_13
REMARK    4  A    between atoms: C_16  and  N_17
REMARK    5  A    between atoms: C_35  and  C_36
REMARK                            x       y       z     vdW  Elec       q    Type
REMARK                         _______ _______ _______ _____ _____    ______ ____
ROOT
ATOM      1  C   UNL     1       0.172   9.821  21.755  0.00  0.00    +0.000 A 
ATOM      2  C   UNL     1      -0.707   8.806  21.378  0.00  0.00    +0.000 A 
ATOM      3  C   UNL     1      -0.243   7.501  21.189  0.00  0.00    +0.000 A 
ATOM      4  C   UNL     1       1.123   7.200  21.258  0.00  0.00    +0.000 A 
ATOM      5  C   UNL     1       2.003   8.242  21.580  0.00  0.00    +0.000 A 
ATOM      6  C   UNL     1       1.537   9.538  21.825  0.00  0.00    +0.000 A 
ENDROOT
BRANCH   4   7
ATOM      7  N   UNL     1       1.529   5.892  20.941  0.00  0.00    +0.000 N 
ATOM      8  C   UNL     1       2.277   5.489  19.851  0.00  0.00    +0.000 A 
ATOM      9  N   UNL     1       3.018   6.319  19.159  0.00  0.00    +0.000 NA
ATOM     10  C   UNL     1       3.745   5.889  18.035  0.00  0.00    +0.000 A 
ATOM     11  C   UNL     1       4.493   6.833  17.335  0.00  0.00    +0.000 A 
ATOM     12  C   UNL     1       5.233   6.449  16.217  0.00  0.00    +0.000 A 
ATOM     13  C   UNL     1       5.232   5.114  15.791  0.00  0.00    +0.000 A 
ATOM     14  C   UNL     1       4.480   4.157  16.475  0.00  0.00    +0.000 A 
ATOM     15  C   UNL     1       3.748   4.563  17.585  0.00  0.00    +0.000 A 
ATOM     16  N   UNL     1       2.953   3.702  18.334  0.00  0.00    +0.000 N 
ATOM     17  N   UNL     1       2.730   2.393  18.130  0.00  0.00    +0.000 NA
ATOM     18  N   UNL     1       1.879   2.035  19.090  0.00  0.00    +0.000 NA
ATOM     19  N   UNL     1       1.566   3.105  19.911  0.00  0.00    +0.000 NA
ATOM     20  C   UNL     1       2.244   4.117  19.417  0.00  0.00    +0.000 A 
ATOM     21  H   UNL     1       0.966   5.160  21.364  0.00  0.00    +0.000 HD
ENDBRANCH   4   7
BRANCH   1  26
ATOM     22  N   UNL     1       0.564  14.302  19.335  0.00  0.00    +0.000 N 
ATOM     23  C   UNL     1       0.340  14.489  20.794  0.00  0.00    +0.000 C 
ATOM     24  C   UNL     1      -0.738  13.517  21.303  0.00  0.00    +0.000 C 
ATOM     25  N   UNL     1      -0.379  12.134  20.972  0.00  0.00    +0.000 N 
ATOM     26  C   UNL     1      -0.261  11.217  22.011  0.00  0.00    +0.000 C 
ATOM     27  O   UNL     1      -0.522  11.510  23.178  0.00  0.00    +0.000 OA
ATOM     28  C   UNL     1      -0.167  11.942  19.527  0.00  0.00    +0.000 C 
ATOM     29  C   UNL     1       0.938  12.897  19.011  0.00  0.00    +0.000 C 
BRANCH  22  35
ATOM     30  C   UNL     1       0.914  18.626  16.790  0.00  0.00    +0.000 C 
ATOM     31  C   UNL     1       1.522  17.407  17.432  0.00  0.00    +0.000 A 
ATOM     32  C   UNL     1       2.903  17.212  17.310  0.00  0.00    +0.000 A 
ATOM     33  C   UNL     1       3.502  16.095  17.867  0.00  0.00    +0.000 A 
ATOM     34  C   UNL     1       2.724  15.142  18.523  0.00  0.00    +0.000 A 
ATOM     35  C   UNL     1       1.330  15.282  18.668  0.00  0.00    +0.000 A 
ATOM     36  C   UNL     1       0.734  16.467  18.153  0.00  0.00    +0.000 A 
ATOM     37  C   UNL     1      -0.728  16.779  18.377  0.00  0.00    +0.000 C 
ENDBRANCH  22  35
ENDBRANCH   1  26
TORSDOF 3
ENDMDL
MODEL 4
REMARK VINA RESULT:      -9.4      2.113      3.073
REMARK  Name = 
REMARK  5 active torsions:
REMARK  status: ('A' for Active; 'I' for Inactive)
REMARK    1  A    between atoms: C_1  and  C_2
REMARK    2  A    between atoms: C_6  and  N_7
REMARK    3  A    between atoms: C_11  and  C_13
REMARK    4  A    between atoms: C_16  and  N_17
REMARK    5  A    between atoms: C_35  and  C_36
REMARK                            x       y       z     vdW  Elec       q    Type
REMARK                         _______ _______ _______ _____ _____    ______ ____
ROOT
ATOM      1  C   UNL     1       0.686  10.893  20.862  0.00  0.00    +0.000 A 
ATOM      2  C   UNL     1       0.857  10.163  22.038  0.00  0.00    +0.000 A 
ATOM      3  C   UNL     1       1.249   8.823  21.989  0.00  0.00    +0.000 A 
ATOM      4  C   UNL     1       1.367   8.146  20.768  0.00  0.00    +0.000 A 
ATOM      5  C   UNL     1       1.134   8.876  19.595  0.00  0.00    +0.000 A 
ATOM      6  C   UNL     1       0.796  10.233  19.637  0.00  0.00    +0.000 A 
ENDROOT
BRANCH   4   7
ATOM      7  N   UNL     1       1.650   6.770  20.799  0.00  0.00    +0.000 N 
ATOM      8  C   UNL     1       2.328   6.032  19.846  0.00  0.00    +0.000 A 
ATOM      9  N   UNL     1       3.116   6.584  18.957  0.00  0.00    +0.000 NA
ATOM     10  C   UNL     1       3.769   5.815  17.979  0.00  0.00    +0.000 A 
ATOM     11  C   UNL     1       4.574   6.474  17.052  0.00  0.00    +0.000 A 
ATOM     12  C   UNL     1       5.244   5.749  16.068  0.00  0.00    +0.000 A 
ATOM     13  C   UNL     1       5.116   4.355  16.003  0.00  0.00    +0.000 A 
ATOM     14  C   UNL     1       4.306   3.679  16.918  0.00  0.00    +0.000 A 
ATOM     15  C   UNL     1       3.644   4.423  17.889  0.00  0.00    +0.000 A 
ATOM     16  N   UNL     1       2.802   3.860  18.842  0.00  0.00    +0.000 N 
ATOM     17  N   UNL     1       2.461   2.569  18.987  0.00  0.00    +0.000 NA
ATOM     18  N   UNL     1       1.612   2.550  20.013  0.00  0.00    +0.000 NA
ATOM     19  N   UNL     1       1.417   3.819  20.529  0.00  0.00    +0.000 NA
ATOM     20  C   UNL     1       2.163   4.603  19.785  0.00  0.00    +0.000 A 
ATOM     21  H   UNL     1       1.040   6.226  21.402  0.00  0.00    +0.000 HD
ENDBRANCH   4   7
BRANCH   1  26
ATOM     22  N   UNL     1      -3.257  13.691  22.510  0.00  0.00    +0.000 N 
ATOM     23  C   UNL     1      -2.520  14.380  21.416  0.00  0.00    +0.000 C 
ATOM     24  C   UNL     1      -1.002  14.250  21.624  0.00  0.00    +0.000 C 
ATOM     25  N   UNL     1      -0.620  12.839  21.744  0.00  0.00    +0.000 N 
ATOM     26  C   UNL     1       0.311  12.329  20.845  0.00  0.00    +0.000 C 
ATOM     27  O   UNL     1       0.874  13.037  20.010  0.00  0.00    +0.000 OA
ATOM     28  C   UNL     1      -1.338  12.156  22.833  0.00  0.00    +0.000 C 
ATOM     29  C   UNL     1      -2.869  12.257  22.617  0.00  0.00    +0.000 C 
BRANCH  22  35
ATOM     30  C   UNL     1      -7.916  13.378  20.640  0.00  0.00    +0.000 C 
ATOM     31  C   UNL     1      -6.936  13.775  21.714  0.00  0.00    +0.000 A 
ATOM     32  C   UNL     1      -7.420  14.466  22.832  0.00  0.00    +0.000 A 
ATOM     33  C   UNL     1      -6.553  14.867  23.834  0.00  0.00    +0.000 A 
ATOM     34  C   UNL     1      -5.187  14.615  23.715  0.00  0.00    +0.000 A 
ATOM     35  C   UNL     1      -4.644  13.933  22.608  0.00  0.00    +0.000 A 
ATOM     36  C   UNL     1      -5.552  13.463  21.619  0.00  0.00    +0.000 A 
ATOM     37  C   UNL     1      -5.089  12.602  20.465  0.00  0.00    +0.000 C 
ENDBRANCH  22  35
ENDBRANCH   1  26
TORSDOF 3
ENDMDL
MODEL 5
REMARK VINA RESULT:      -9.3      0.951      1.039
REMARK  Name = 
REMARK  5 active torsions:
REMARK  status: ('A' for Active; 'I' for Inactive)
REMARK    1  A    between atoms: C_1  and  C_2
REMARK    2  A    between atoms: C_6  and  N_7
REMARK    3  A    between atoms: C_11  and  C_13
REMARK    4  A    between atoms: C_16  and  N_17
REMARK    5  A    between atoms: C_35  and  C_36
REMARK                            x       y       z     vdW  Elec       q    Type
REMARK                         _______ _______ _______ _____ _____    ______ ____
ROOT
ATOM      1  C   UNL     1       0.070  10.816  19.752  0.00  0.00    +0.000 A 
ATOM      2  C   UNL     1      -0.345  10.082  20.862  0.00  0.00    +0.000 A 
ATOM      3  C   UNL     1       0.295   8.886  21.200  0.00  0.00    +0.000 A 
ATOM      4  C   UNL     1       1.284   8.335  20.375  0.00  0.00    +0.000 A 
ATOM      5  C   UNL     1       1.650   9.054  19.230  0.00  0.00    +0.000 A 
ATOM      6  C   UNL     1       1.053  10.280  18.918  0.00  0.00    +0.000 A 
ENDROOT
BRANCH   4   7
ATOM      7  N   UNL     1       1.799   7.072  20.714  0.00  0.00    +0.000 N 
ATOM      8  C   UNL     1       2.521   6.216  19.902  0.00  0.00    +0.000 A 
ATOM      9  N   UNL     1       3.134   6.624  18.818  0.00  0.00    +0.000 NA
ATOM     10  C   UNL     1       3.835   5.728  17.992  0.00  0.00    +0.000 A 
ATOM     11  C   UNL     1       4.443   6.230  16.843  0.00  0.00    +0.000 A 
ATOM     12  C   UNL     1       5.152   5.377  15.999  0.00  0.00    +0.000 A 
ATOM     13  C   UNL     1       5.260   4.012  16.298  0.00  0.00    +0.000 A 
ATOM     14  C   UNL     1       4.648   3.490  17.440  0.00  0.00    +0.000 A 
ATOM     15  C   UNL     1       3.944   4.359  18.266  0.00  0.00    +0.000 A 
ATOM     16  N   UNL     1       3.284   3.950  19.420  0.00  0.00    +0.000 N 
ATOM     17  N   UNL     1       3.181   2.708  19.919  0.00  0.00    +0.000 NA
ATOM     18  N   UNL     1       2.427   2.836  21.009  0.00  0.00    +0.000 NA
ATOM     19  N   UNL     1       2.056   4.154  21.214  0.00  0.00    +0.000 NA
ATOM     20  C   UNL     1       2.600   4.814  20.216  0.00  0.00    +0.000 A 
ATOM     21  H   UNL     1       1.338   6.623  21.499  0.00  0.00    +0.000 HD
ENDBRANCH   4   7
BRANCH   1  26
ATOM     22  N   UNL     1      -1.434  15.055  22.172  0.00  0.00    +0.000 N 
ATOM     23  C   UNL     1      -2.123  14.903  20.862  0.00  0.00    +0.000 C 
ATOM     24  C   UNL     1      -1.128  14.458  19.778  0.00  0.00    +0.000 C 
ATOM     25  N   UNL     1      -0.440  13.229  20.187  0.00  0.00    +0.000 N 
ATOM     26  C   UNL     1      -0.538  12.113  19.362  0.00  0.00    +0.000 C 
ATOM     27  O   UNL     1      -1.114  12.148  18.275  0.00  0.00    +0.000 OA
ATOM     28  C   UNL     1       0.254  13.379  21.477  0.00  0.00    +0.000 C 
ATOM     29  C   UNL     1      -0.748  13.799  22.583  0.00  0.00    +0.000 C 
BRANCH  22  35
ATOM     30  C   UNL     1      -1.798  18.631  25.692  0.00  0.00    +0.000 C 
ATOM     31  C   UNL     1      -2.348  17.455  24.926  0.00  0.00    +0.000 A 
ATOM     32  C   UNL     1      -3.598  16.947  25.299  0.00  0.00    +0.000 A 
ATOM     33  C   UNL     1      -4.134  15.856  24.635  0.00  0.00    +0.000 A 
ATOM     34  C   UNL     1      -3.412  15.237  23.616  0.00  0.00    +0.000 A 
ATOM     35  C   UNL     1      -2.146  15.700  23.206  0.00  0.00    +0.000 A 
ATOM     36  C   UNL     1      -1.636  16.864  23.846  0.00  0.00    +0.000 A 
ATOM     37  C   UNL     1      -0.354  17.522  23.388  0.00  0.00    +0.000 C 
ENDBRANCH  22  35
ENDBRANCH   1  26
TORSDOF 3
ENDMDL
MODEL 6
REMARK VINA RESULT:      -9.2      0.928      1.615
REMARK  Name = 
REMARK  5 active torsions:
REMARK  status: ('A' for Active; 'I' for Inactive)
REMARK    1  A    between atoms: C_1  and  C_2
REMARK    2  A    between atoms: C_6  and  N_7
REMARK    3  A    between atoms: C_11  and  C_13
REMARK    4  A    between atoms: C_16  and  N_17
REMARK    5  A    between atoms: C_35  and  C_36
REMARK                            x       y       z     vdW  Elec       q    Type
REMARK                         _______ _______ _______ _____ _____    ______ ____
ROOT
ATOM      1  C   UNL     1       0.503  10.363  19.255  0.00  0.00    +0.000 A 
ATOM      2  C   UNL     1       0.436   9.716  20.488  0.00  0.00    +0.000 A 
ATOM      3  C   UNL     1       1.176   8.554  20.719  0.00  0.00    +0.000 A 
ATOM      4  C   UNL     1       1.910   7.945  19.693  0.00  0.00    +0.000 A 
ATOM      5  C   UNL     1       1.921   8.574  18.441  0.00  0.00    +0.000 A 
ATOM      6  C   UNL     1       1.227   9.768  18.220  0.00  0.00    +0.000 A 
ENDROOT
BRANCH   4   7
ATOM      7  N   UNL     1       2.534   6.716  19.966  0.00  0.00    +0.000 N 
ATOM      8  C   UNL     1       3.282   5.945  19.095  0.00  0.00    +0.000 A 
ATOM      9  N   UNL     1       3.815   6.433  18.002  0.00  0.00    +0.000 NA
ATOM     10  C   UNL     1       4.545   5.621  17.117  0.00  0.00    +0.000 A 
ATOM     11  C   UNL     1       5.062   6.205  15.962  0.00  0.00    +0.000 A 
ATOM     12  C   UNL     1       5.796   5.436  15.060  0.00  0.00    +0.000 A 
ATOM     13  C   UNL     1       6.021   4.075  15.306  0.00  0.00    +0.000 A 
ATOM     14  C   UNL     1       5.501   3.471  16.453  0.00  0.00    +0.000 A 
ATOM     15  C   UNL     1       4.769   4.256  17.338  0.00  0.00    +0.000 A 
ATOM     16  N   UNL     1       4.193   3.761  18.502  0.00  0.00    +0.000 N 
ATOM     17  N   UNL     1       4.207   2.499  18.962  0.00  0.00    +0.000 NA
ATOM     18  N   UNL     1       3.494   2.534  20.086  0.00  0.00    +0.000 NA
ATOM     19  N   UNL     1       3.033   3.812  20.352  0.00  0.00    +0.000 NA
ATOM     20  C   UNL     1       3.481   4.544  19.356  0.00  0.00    +0.000 A 
ATOM     21  H   UNL     1       2.143   6.208  20.753  0.00  0.00    +0.000 HD
ENDBRANCH   4   7
BRANCH   1  26
ATOM     22  N   UNL     1       0.243  15.040  21.293  0.00  0.00    +0.000 N 
ATOM     23  C   UNL     1      -0.969  14.730  20.486  0.00  0.00    +0.000 C 
ATOM     24  C   UNL     1      -0.576  14.041  19.168  0.00  0.00    +0.000 C 
ATOM     25  N   UNL     1       0.231  12.846  19.434  0.00  0.00    +0.000 N 
ATOM     26  C   UNL     1      -0.225  11.621  18.957  0.00  0.00    +0.000 C 
ATOM     27  O   UNL     1      -1.235  11.524  18.260  0.00  0.00    +0.000 OA
ATOM     28  C   UNL     1       1.437  13.150  20.223  0.00  0.00    +0.000 C 
ATOM     29  C   UNL     1       1.049  13.818  21.566  0.00  0.00    +0.000 C 
BRANCH  22  35
ATOM     30  C   UNL     1      -1.764  16.070  25.789  0.00  0.00    +0.000 C 
ATOM     31  C   UNL     1      -0.884  16.411  24.614  0.00  0.00    +0.000 A 
ATOM     32  C   UNL     1      -0.248  17.658  24.600  0.00  0.00    +0.000 A 
ATOM     33  C   UNL     1       0.554  18.021  23.532  0.00  0.00    +0.000 A 
ATOM     34  C   UNL     1       0.702  17.157  22.447  0.00  0.00    +0.000 A 
ATOM     35  C   UNL     1       0.078  15.895  22.403  0.00  0.00    +0.000 A 
ATOM     36  C   UNL     1      -0.686  15.503  23.537  0.00  0.00    +0.000 A 
ATOM     37  C   UNL     1      -1.281  14.118  23.649  0.00  0.00    +0.000 C 
ENDBRANCH  22  35
ENDBRANCH   1  26
TORSDOF 3
ENDMDL
MODEL 7
REMARK VINA RESULT:      -9.2      1.399      1.787
REMARK  Name = 
REMARK  5 active torsions:
REMARK  status: ('A' for Active; 'I' for Inactive)
REMARK    1  A    between atoms: C_1  and  C_2
REMARK    2  A    between atoms: C_6  and  N_7
REMARK    3  A    between atoms: C_11  and  C_13
REMARK    4  A    between atoms: C_16  and  N_17
REMARK    5  A    between atoms: C_35  and  C_36
REMARK                            x       y       z     vdW  Elec       q    Type
REMARK                         _______ _______ _______ _____ _____    ______ ____
ROOT
ATOM      1  C   UNL     1       0.686  11.069  20.048  0.00  0.00    +0.000 A 
ATOM      2  C   UNL     1       0.661  10.484  21.314  0.00  0.00    +0.000 A 
ATOM      3  C   UNL     1       1.120   9.177  21.499  0.00  0.00    +0.000 A 
ATOM      4  C   UNL     1       1.506   8.383  20.412  0.00  0.00    +0.000 A 
ATOM      5  C   UNL     1       1.470   8.964  19.137  0.00  0.00    +0.000 A 
ATOM      6  C   UNL     1       1.065  10.290  18.953  0.00  0.00    +0.000 A 
ENDROOT
BRANCH   4   7
ATOM      7  N   UNL     1       1.844   7.041  20.659  0.00  0.00    +0.000 N 
ATOM      8  C   UNL     1       2.502   6.172  19.807  0.00  0.00    +0.000 A 
ATOM      9  N   UNL     1       3.223   6.589  18.795  0.00  0.00    +0.000 NA
ATOM     10  C   UNL     1       3.857   5.684  17.926  0.00  0.00    +0.000 A 
ATOM     11  C   UNL     1       4.587   6.200  16.858  0.00  0.00    +0.000 A 
ATOM     12  C   UNL     1       5.236   5.338  15.974  0.00  0.00    +0.000 A 
ATOM     13  C   UNL     1       5.160   3.950  16.153  0.00  0.00    +0.000 A 
ATOM     14  C   UNL     1       4.424   3.416  17.213  0.00  0.00    +0.000 A 
ATOM     15  C   UNL     1       3.783   4.294  18.080  0.00  0.00    +0.000 A 
ATOM     16  N   UNL     1       3.012   3.877  19.159  0.00  0.00    +0.000 N 
ATOM     17  N   UNL     1       2.730   2.620  19.539  0.00  0.00    +0.000 NA
ATOM     18  N   UNL     1       1.935   2.750  20.599  0.00  0.00    +0.000 NA
ATOM     19  N   UNL     1       1.715   4.082  20.904  0.00  0.00    +0.000 NA
ATOM     20  C   UNL     1       2.392   4.750  19.998  0.00  0.00    +0.000 A 
ATOM     21  H   UNL     1       1.287   6.590  21.378  0.00  0.00    +0.000 HD
ENDBRANCH   4   7
BRANCH   1  26
ATOM     22  N   UNL     1      -2.452  14.423  22.283  0.00  0.00    +0.000 N 
ATOM     23  C   UNL     1      -2.243  14.747  20.845  0.00  0.00    +0.000 C 
ATOM     24  C   UNL     1      -0.760  14.594  20.468  0.00  0.00    +0.000 C 
ATOM     25  N   UNL     1      -0.281  13.250  20.807  0.00  0.00    +0.000 N 
ATOM     26  C   UNL     1       0.251  12.464  19.790  0.00  0.00    +0.000 C 
ATOM     27  O   UNL     1       0.401  12.886  18.643  0.00  0.00    +0.000 OA
ATOM     28  C   UNL     1      -0.474  12.930  22.231  0.00  0.00    +0.000 C 
ATOM     29  C   UNL     1      -1.971  13.054  22.614  0.00  0.00    +0.000 C 
BRANCH  22  35
ATOM     30  C   UNL     1      -5.360  17.484  25.017  0.00  0.00    +0.000 C 
ATOM     31  C   UNL     1      -5.145  16.256  24.171  0.00  0.00    +0.000 A 
ATOM     32  C   UNL     1      -6.223  15.381  23.986  0.00  0.00    +0.000 A 
ATOM     33  C   UNL     1      -6.066  14.230  23.232  0.00  0.00    +0.000 A 
ATOM     34  C   UNL     1      -4.821  13.921  22.684  0.00  0.00    +0.000 A 
ATOM     35  C   UNL     1      -3.701  14.759  22.846  0.00  0.00    +0.000 A 
ATOM     36  C   UNL     1      -3.891  15.974  23.563  0.00  0.00    +0.000 A 
ATOM     37  C   UNL     1      -2.792  17.006  23.675  0.00  0.00    +0.000 C 
ENDBRANCH  22  35
ENDBRANCH   1  26
TORSDOF 3
ENDMDL
MODEL 8
REMARK VINA RESULT:      -9.2      1.297      1.908
REMARK  Name = 
REMARK  5 active torsions:
REMARK  status: ('A' for Active; 'I' for Inactive)
REMARK    1  A    between atoms: C_1  and  C_2
REMARK    2  A    between atoms: C_6  and  N_7
REMARK    3  A    between atoms: C_11  and  C_13
REMARK    4  A    between atoms: C_16  and  N_17
REMARK    5  A    between atoms: C_35  and  C_36
REMARK                            x       y       z     vdW  Elec       q    Type
REMARK                         _______ _______ _______ _____ _____    ______ ____
ROOT
ATOM      1  C   UNL     1       0.793  10.645  19.649  0.00  0.00    +0.000 A 
ATOM      2  C   UNL     1       1.364   9.899  18.619  0.00  0.00    +0.000 A 
ATOM      3  C   UNL     1       1.770   8.580  18.840  0.00  0.00    +0.000 A 
ATOM      4  C   UNL     1       1.723   8.012  20.119  0.00  0.00    +0.000 A 
ATOM      5  C   UNL     1       1.202   8.793  21.159  0.00  0.00    +0.000 A 
ATOM      6  C   UNL     1       0.742  10.094  20.931  0.00  0.00    +0.000 A 
ENDROOT
BRANCH   4   7
ATOM      7  N   UNL     1       2.257   6.723  20.291  0.00  0.00    +0.000 N 
ATOM      8  C   UNL     1       2.979   5.986  19.370  0.00  0.00    +0.000 A 
ATOM      9  N   UNL     1       3.576   6.535  18.340  0.00  0.00    +0.000 NA
ATOM     10  C   UNL     1       4.277   5.759  17.401  0.00  0.00    +0.000 A 
ATOM     11  C   UNL     1       4.867   6.410  16.319  0.00  0.00    +0.000 A 
ATOM     12  C   UNL     1       5.576   5.679  15.367  0.00  0.00    +0.000 A 
ATOM     13  C   UNL     1       5.704   4.289  15.490  0.00  0.00    +0.000 A 
ATOM     14  C   UNL     1       5.110   3.619  16.563  0.00  0.00    +0.000 A 
ATOM     15  C   UNL     1       4.405   4.368  17.499  0.00  0.00    +0.000 A 
ATOM     16  N   UNL     1       3.762   3.809  18.598  0.00  0.00    +0.000 N 
ATOM     17  N   UNL     1       3.680   2.512  18.938  0.00  0.00    +0.000 NA
ATOM     18  N   UNL     1       2.936   2.492  20.042  0.00  0.00    +0.000 NA
ATOM     19  N   UNL     1       2.552   3.768  20.415  0.00  0.00    +0.000 NA
ATOM     20  C   UNL     1       3.077   4.556  19.504  0.00  0.00    +0.000 A 
ATOM     21  H   UNL     1       1.810   6.173  21.017  0.00  0.00    +0.000 HD
ENDBRANCH   4   7
BRANCH   1  26
ATOM     22  N   UNL     1      -2.503  13.726  22.043  0.00  0.00    +0.000 N 
ATOM     23  C   UNL     1      -2.293  14.146  20.630  0.00  0.00    +0.000 C 
ATOM     24  C   UNL     1      -0.801  14.077  20.264  0.00  0.00    +0.000 C 
ATOM     25  N   UNL     1      -0.270  12.735  20.526  0.00  0.00    +0.000 N 
ATOM     26  C   UNL     1       0.305  12.035  19.471  0.00  0.00    +0.000 C 
ATOM     27  O   UNL     1       0.449  12.533  18.354  0.00  0.00    +0.000 OA
ATOM     28  C   UNL     1      -0.465  12.320  21.926  0.00  0.00    +0.000 C 
ATOM     29  C   UNL     1      -1.970  12.359  22.296  0.00  0.00    +0.000 C 
BRANCH  22  35
ATOM     30  C   UNL     1      -5.714  16.736  24.478  0.00  0.00    +0.000 C 
ATOM     31  C   UNL     1      -5.363  15.443  23.790  0.00  0.00    +0.000 A 
ATOM     32  C   UNL     1      -6.323  14.424  23.762  0.00  0.00    +0.000 A 
ATOM     33  C   UNL     1      -6.038  13.212  23.157  0.00  0.00    +0.000 A 
ATOM     34  C   UNL     1      -4.778  12.990  22.603  0.00  0.00    +0.000 A 
ATOM     35  C   UNL     1      -3.771  13.976  22.610  0.00  0.00    +0.000 A 
ATOM     36  C   UNL     1      -4.098  15.242  23.171  0.00  0.00    +0.000 A 
ATOM     37  C   UNL     1      -3.139  16.408  23.104  0.00  0.00    +0.000 C 
ENDBRANCH  22  35
ENDBRANCH   1  26
TORSDOF 3
ENDMDL
MODEL 9
REMARK VINA RESULT:      -9.1      1.675      2.460
REMARK  Name = 
REMARK  5 active torsions:
REMARK  status: ('A' for Active; 'I' for Inactive)
REMARK    1  A    between atoms: C_1  and  C_2
REMARK    2  A    between atoms: C_6  and  N_7
REMARK    3  A    between atoms: C_11  and  C_13
REMARK    4  A    between atoms: C_16  and  N_17
REMARK    5  A    between atoms: C_35  and  C_36
REMARK                            x       y       z     vdW  Elec       q    Type
REMARK                         _______ _______ _______ _____ _____    ______ ____
ROOT
ATOM      1  C   UNL     1      -0.052  10.214  19.134  0.00  0.00    +0.000 A 
ATOM      2  C   UNL     1       0.517   9.491  20.181  0.00  0.00    +0.000 A 
ATOM      3  C   UNL     1       1.650   8.702  19.964  0.00  0.00    +0.000 A 
ATOM      4  C   UNL     1       2.174   8.523  18.678  0.00  0.00    +0.000 A 
ATOM      5  C   UNL     1       1.556   9.209  17.623  0.00  0.00    +0.000 A 
ATOM      6  C   UNL     1       0.456  10.044  17.844  0.00  0.00    +0.000 A 
ENDROOT
BRANCH   4   7
ATOM      7  N   UNL     1       3.241   7.623  18.517  0.00  0.00    +0.000 N 
ATOM      8  C   UNL     1       3.200   6.246  18.629  0.00  0.00    +0.000 A 
ATOM      9  N   UNL     1       2.083   5.565  18.543  0.00  0.00    +0.000 NA
ATOM     10  C   UNL     1       2.064   4.167  18.692  0.00  0.00    +0.000 A 
ATOM     11  C   UNL     1       0.837   3.514  18.611  0.00  0.00    +0.000 A 
ATOM     12  C   UNL     1       0.773   2.128  18.748  0.00  0.00    +0.000 A 
ATOM     13  C   UNL     1       1.939   1.383  18.967  0.00  0.00    +0.000 A 
ATOM     14  C   UNL     1       3.177   2.022  19.061  0.00  0.00    +0.000 A 
ATOM     15  C   UNL     1       3.217   3.406  18.924  0.00  0.00    +0.000 A 
ATOM     16  N   UNL     1       4.387   4.150  19.014  0.00  0.00    +0.000 N 
ATOM     17  N   UNL     1       5.632   3.709  19.261  0.00  0.00    +0.000 NA
ATOM     18  N   UNL     1       6.388   4.805  19.278  0.00  0.00    +0.000 NA
ATOM     19  N   UNL     1       5.636   5.941  19.035  0.00  0.00    +0.000 NA
ATOM     20  C   UNL     1       4.408   5.503  18.876  0.00  0.00    +0.000 A 
ATOM     21  H   UNL     1       4.162   8.032  18.644  0.00  0.00    +0.000 HD
ENDBRANCH   4   7
BRANCH   1  26
ATOM     22  N   UNL     1      -1.256  14.210  22.077  0.00  0.00    +0.000 N 
ATOM     23  C   UNL     1      -2.474  13.516  21.577  0.00  0.00    +0.000 C 
ATOM     24  C   UNL     1      -2.317  13.155  20.091  0.00  0.00    +0.000 C 
ATOM     25  N   UNL     1      -1.102  12.360  19.882  0.00  0.00    +0.000 N 
ATOM     26  C   UNL     1      -1.229  11.101  19.304  0.00  0.00    +0.000 C 
ATOM     27  O   UNL     1      -2.309  10.671  18.897  0.00  0.00    +0.000 OA
ATOM     28  C   UNL     1       0.107  13.048  20.365  0.00  0.00    +0.000 C 
ATOM     29  C   UNL     1      -0.031  13.390  21.870  0.00  0.00    +0.000 C 
BRANCH  22  35
ATOM     30  C   UNL     1       0.208  17.744  25.344  0.00  0.00    +0.000 C 
ATOM     31  C   UNL     1      -0.645  16.566  24.950  0.00  0.00    +0.000 A 
ATOM     32  C   UNL     1      -1.519  16.032  25.905  0.00  0.00    +0.000 A 
ATOM     33  C   UNL     1      -2.308  14.937  25.593  0.00  0.00    +0.000 A 
ATOM     34  C   UNL     1      -2.208  14.342  24.337  0.00  0.00    +0.000 A 
ATOM     35  C   UNL     1      -1.340  14.832  23.341  0.00  0.00    +0.000 A 
ATOM     36  C   UNL     1      -0.586  15.999  23.647  0.00  0.00    +0.000 A 
ATOM     37  C   UNL     1       0.269  16.684  22.606  0.00  0.00    +0.000 C 
ENDBRANCH  22  35
ENDBRANCH   1  26
TORSDOF 3
ENDMDL
