MODEL 1
REMARK VINA RESULT:      -6.1      0.000      0.000
REMARK  Name = 
REMARK  13 active torsions:
REMARK  status: ('A' for Active; 'I' for Inactive)
REMARK    1  A    between atoms: C_1  and  C_2
REMARK    2  A    between atoms: C_2  and  C_3
REMARK    3  A    between atoms: C_2  and  C_4
REMARK    4  A    between atoms: C_2  and  N_16
REMARK    5  A    between atoms: C_4  and  C_5
REMARK    6  A    between atoms: C_5  and  S_6
REMARK    7  A    between atoms: S_6  and  C_9
REMARK    8  A    between atoms: C_9  and  C_10
REMARK    9  A    between atoms: C_9  and  C_12
REMARK   10  A    between atoms: C_10  and  O_11
REMARK   11  A    between atoms: C_12  and  O_13
REMARK   12  A    between atoms: C_12  and  C_14
REMARK   13  A    between atoms: C_14  and  O_15
REMARK                            x       y       z     vdW  Elec       q    Type
REMARK                         _______ _______ _______ _____ _____    ______ ____
ROOT
ATOM      1  S   UNL     1       3.098   3.337  17.900  0.00  0.00    +0.000 S 
ATOM      2  O   UNL     1       1.963   3.526  17.019  0.00  0.00    +0.000 OA
ATOM      3  O   UNL     1       3.748   2.037  17.966  0.00  0.00    +0.000 OA
ENDROOT
BRANCH   1   4
ATOM      4  C   UNL     1       4.322   4.556  17.460  0.00  0.00    +0.000 C 
BRANCH   4   5
ATOM      5  C   UNL     1       5.366   4.046  16.467  0.00  0.00    +0.000 C 
BRANCH   5   7
ATOM      6  C   UNL     1       6.665   4.668  14.389  0.00  0.00    +0.000 C 
ATOM      7  C   UNL     1       6.159   5.195  15.758  0.00  0.00    +0.000 C 
ATOM      8  C   UNL     1       5.186   6.361  15.485  0.00  0.00    +0.000 C 
BRANCH   7   9
ATOM      9  N   UNL     1       7.322   5.613  16.583  0.00  0.00    +0.000 NA
ATOM     10 CL   UNL     1       7.180   7.187  17.374  0.00  0.00    +0.000 Cl
ATOM     11 CL   UNL     1       7.882   4.427  17.768  0.00  0.00    +0.000 Cl
ENDBRANCH   7   9
ENDBRANCH   5   7
ENDBRANCH   4   5
ENDBRANCH   1   4
BRANCH   1  12
ATOM     12  C   UNL     1       2.540   3.762  19.568  0.00  0.00    +0.000 C 
BRANCH  12  13
ATOM     13  C   UNL     1       2.280   5.266  19.598  0.00  0.00    +0.000 C 
BRANCH  13  14
ATOM     14  O   UNL     1       2.481   5.816  20.887  0.00  0.00    +0.000 OA
ATOM     15  H   UNL     1       2.473   6.795  20.809  0.00  0.00    +0.000 HD
ENDBRANCH  13  14
ENDBRANCH  12  13
BRANCH  12  16
ATOM     16  C   UNL     1       1.336   2.923  20.001  0.00  0.00    +0.000 C 
BRANCH  16  17
ATOM     17  O   UNL     1       1.349   1.685  19.263  0.00  0.00    +0.000 OA
ATOM     18  H   UNL     1       0.434   1.455  19.011  0.00  0.00    +0.000 HD
ENDBRANCH  16  17
BRANCH  16  19
ATOM     19  C   UNL     1       1.343   2.557  21.496  0.00  0.00    +0.000 C 
BRANCH  19  20
ATOM     20  O   UNL     1       2.606   2.886  22.075  0.00  0.00    +0.000 OA
ATOM     21  H   UNL     1       2.874   2.141  22.645  0.00  0.00    +0.000 HD
ENDBRANCH  19  20
ENDBRANCH  16  19
ENDBRANCH  12  16
ENDBRANCH   1  12
TORSDOF 11
ENDMDL
MODEL 2
REMARK VINA RESULT:      -6.0      4.123      5.935
REMARK  Name = 
REMARK  13 active torsions:
REMARK  status: ('A' for Active; 'I' for Inactive)
REMARK    1  A    between atoms: C_1  and  C_2
REMARK    2  A    between atoms: C_2  and  C_3
REMARK    3  A    between atoms: C_2  and  C_4
REMARK    4  A    between atoms: C_2  and  N_16
REMARK    5  A    between atoms: C_4  and  C_5
REMARK    6  A    between atoms: C_5  and  S_6
REMARK    7  A    between atoms: S_6  and  C_9
REMARK    8  A    between atoms: C_9  and  C_10
REMARK    9  A    between atoms: C_9  and  C_12
REMARK   10  A    between atoms: C_10  and  O_11
REMARK   11  A    between atoms: C_12  and  O_13
REMARK   12  A    between atoms: C_12  and  C_14
REMARK   13  A    between atoms: C_14  and  O_15
REMARK                            x       y       z     vdW  Elec       q    Type
REMARK                         _______ _______ _______ _____ _____    ______ ____
ROOT
ATOM      1  S   UNL     1       5.024   5.786  16.821  0.00  0.00    +0.000 S 
ATOM      2  O   UNL     1       5.049   6.419  15.517  0.00  0.00    +0.000 OA
ATOM      3  O   UNL     1       4.652   6.567  17.991  0.00  0.00    +0.000 OA
ENDROOT
BRANCH   1   4
ATOM      4  C   UNL     1       3.930   4.384  16.710  0.00  0.00    +0.000 C 
BRANCH   4   5
ATOM      5  C   UNL     1       3.853   3.563  17.997  0.00  0.00    +0.000 C 
BRANCH   5   7
ATOM      6  C   UNL     1       1.475   4.380  17.738  0.00  0.00    +0.000 C 
ATOM      7  C   UNL     1       2.407   3.483  18.594  0.00  0.00    +0.000 C 
ATOM      8  C   UNL     1       1.909   2.028  18.470  0.00  0.00    +0.000 C 
BRANCH   7   9
ATOM      9  N   UNL     1       2.396   3.964  20.000  0.00  0.00    +0.000 NA
ATOM     10 CL   UNL     1       2.190   5.706  20.218  0.00  0.00    +0.000 Cl
ATOM     11 CL   UNL     1       1.286   3.118  21.086  0.00  0.00    +0.000 Cl
ENDBRANCH   7   9
ENDBRANCH   5   7
ENDBRANCH   4   5
ENDBRANCH   1   4
BRANCH   1  12
ATOM     12  C   UNL     1       6.679   5.114  17.107  0.00  0.00    +0.000 C 
BRANCH  12  13
ATOM     13  C   UNL     1       7.132   4.439  15.815  0.00  0.00    +0.000 C 
BRANCH  13  14
ATOM     14  O   UNL     1       7.701   5.360  14.903  0.00  0.00    +0.000 OA
ATOM     15  H   UNL     1       7.405   5.120  13.998  0.00  0.00    +0.000 HD
ENDBRANCH  13  14
ENDBRANCH  12  13
BRANCH  12  16
ATOM     16  C   UNL     1       7.652   6.182  17.614  0.00  0.00    +0.000 C 
BRANCH  16  17
ATOM     17  O   UNL     1       7.120   7.481  17.287  0.00  0.00    +0.000 OA
ATOM     18  H   UNL     1       7.140   8.044  18.084  0.00  0.00    +0.000 HD
ENDBRANCH  16  17
BRANCH  16  19
ATOM     19  C   UNL     1       7.863   6.152  19.137  0.00  0.00    +0.000 C 
BRANCH  19  20
ATOM     20  O   UNL     1       6.870   5.333  19.754  0.00  0.00    +0.000 OA
ATOM     21  H   UNL     1       6.961   5.432  20.720  0.00  0.00    +0.000 HD
ENDBRANCH  19  20
ENDBRANCH  16  19
ENDBRANCH  12  16
ENDBRANCH   1  12
TORSDOF 11
ENDMDL
MODEL 3
REMARK VINA RESULT:      -6.0      1.026      1.434
REMARK  Name = 
REMARK  13 active torsions:
REMARK  status: ('A' for Active; 'I' for Inactive)
REMARK    1  A    between atoms: C_1  and  C_2
REMARK    2  A    between atoms: C_2  and  C_3
REMARK    3  A    between atoms: C_2  and  C_4
REMARK    4  A    between atoms: C_2  and  N_16
REMARK    5  A    between atoms: C_4  and  C_5
REMARK    6  A    between atoms: C_5  and  S_6
REMARK    7  A    between atoms: S_6  and  C_9
REMARK    8  A    between atoms: C_9  and  C_10
REMARK    9  A    between atoms: C_9  and  C_12
REMARK   10  A    between atoms: C_10  and  O_11
REMARK   11  A    between atoms: C_12  and  O_13
REMARK   12  A    between atoms: C_12  and  C_14
REMARK   13  A    between atoms: C_14  and  O_15
REMARK                            x       y       z     vdW  Elec       q    Type
REMARK                         _______ _______ _______ _____ _____    ______ ____
ROOT
ATOM      1  S   UNL     1       3.145   3.065  18.079  0.00  0.00    +0.000 S 
ATOM      2  O   UNL     1       2.262   3.577  17.050  0.00  0.00    +0.000 OA
ATOM      3  O   UNL     1       3.205   1.632  18.326  0.00  0.00    +0.000 OA
ENDROOT
BRANCH   1   4
ATOM      4  C   UNL     1       4.790   3.639  17.703  0.00  0.00    +0.000 C 
BRANCH   4   5
ATOM      5  C   UNL     1       4.896   4.359  16.360  0.00  0.00    +0.000 C 
BRANCH   5   7
ATOM      6  C   UNL     1       7.277   4.515  17.196  0.00  0.00    +0.000 C 
ATOM      7  C   UNL     1       6.278   5.064  16.143  0.00  0.00    +0.000 C 
ATOM      8  C   UNL     1       6.806   4.681  14.745  0.00  0.00    +0.000 C 
BRANCH   7   9
ATOM      9  N   UNL     1       6.146   6.534  16.312  0.00  0.00    +0.000 NA
ATOM     10 CL   UNL     1       4.549   7.115  16.796  0.00  0.00    +0.000 Cl
ATOM     11 CL   UNL     1       7.366   7.296  17.341  0.00  0.00    +0.000 Cl
ENDBRANCH   7   9
ENDBRANCH   5   7
ENDBRANCH   4   5
ENDBRANCH   1   4
BRANCH   1  12
ATOM     12  C   UNL     1       2.669   3.874  19.626  0.00  0.00    +0.000 C 
BRANCH  12  13
ATOM     13  C   UNL     1       2.777   5.381  19.410  0.00  0.00    +0.000 C 
BRANCH  13  14
ATOM     14  O   UNL     1       2.416   6.113  20.568  0.00  0.00    +0.000 OA
ATOM     15  H   UNL     1       1.442   6.235  20.563  0.00  0.00    +0.000 HD
ENDBRANCH  13  14
ENDBRANCH  12  13
BRANCH  12  16
ATOM     16  C   UNL     1       1.289   3.422  20.108  0.00  0.00    +0.000 C 
BRANCH  16  17
ATOM     17  O   UNL     1       0.711   2.560  19.108  0.00  0.00    +0.000 OA
ATOM     18  H   UNL     1       1.227   1.732  19.064  0.00  0.00    +0.000 HD
ENDBRANCH  16  17
BRANCH  16  19
ATOM     19  C   UNL     1       1.324   2.624  21.424  0.00  0.00    +0.000 C 
BRANCH  19  20
ATOM     20  O   UNL     1       2.446   3.026  22.210  0.00  0.00    +0.000 OA
ATOM     21  H   UNL     1       2.892   3.755  21.740  0.00  0.00    +0.000 HD
ENDBRANCH  19  20
ENDBRANCH  16  19
ENDBRANCH  12  16
ENDBRANCH   1  12
TORSDOF 11
ENDMDL
MODEL 4
REMARK VINA RESULT:      -6.0      4.205      6.192
REMARK  Name = 
REMARK  13 active torsions:
REMARK  status: ('A' for Active; 'I' for Inactive)
REMARK    1  A    between atoms: C_1  and  C_2
REMARK    2  A    between atoms: C_2  and  C_3
REMARK    3  A    between atoms: C_2  and  C_4
REMARK    4  A    between atoms: C_2  and  N_16
REMARK    5  A    between atoms: C_4  and  C_5
REMARK    6  A    between atoms: C_5  and  S_6
REMARK    7  A    between atoms: S_6  and  C_9
REMARK    8  A    between atoms: C_9  and  C_10
REMARK    9  A    between atoms: C_9  and  C_12
REMARK   10  A    between atoms: C_10  and  O_11
REMARK   11  A    between atoms: C_12  and  O_13
REMARK   12  A    between atoms: C_12  and  C_14
REMARK   13  A    between atoms: C_14  and  O_15
REMARK                            x       y       z     vdW  Elec       q    Type
REMARK                         _______ _______ _______ _____ _____    ______ ____
ROOT
ATOM      1  S   UNL     1       5.143   5.341  17.847  0.00  0.00    +0.000 S 
ATOM      2  O   UNL     1       5.111   4.812  16.499  0.00  0.00    +0.000 OA
ATOM      3  O   UNL     1       4.257   6.436  18.211  0.00  0.00    +0.000 OA
ENDROOT
BRANCH   1   4
ATOM      4  C   UNL     1       4.841   3.982  18.960  0.00  0.00    +0.000 C 
BRANCH   4   5
ATOM      5  C   UNL     1       3.777   3.005  18.460  0.00  0.00    +0.000 C 
BRANCH   5   7
ATOM      6  C   UNL     1       1.581   4.198  18.084  0.00  0.00    +0.000 C 
ATOM      7  C   UNL     1       2.357   3.277  19.061  0.00  0.00    +0.000 C 
ATOM      8  C   UNL     1       1.600   1.935  19.147  0.00  0.00    +0.000 C 
BRANCH   7   9
ATOM      9  N   UNL     1       2.469   3.946  20.383  0.00  0.00    +0.000 NA
ATOM     10 CL   UNL     1       1.698   5.532  20.512  0.00  0.00    +0.000 Cl
ATOM     11 CL   UNL     1       1.996   2.967  21.777  0.00  0.00    +0.000 Cl
ENDBRANCH   7   9
ENDBRANCH   5   7
ENDBRANCH   4   5
ENDBRANCH   1   4
BRANCH   1  12
ATOM     12  C   UNL     1       6.843   5.879  18.157  0.00  0.00    +0.000 C 
BRANCH  12  13
ATOM     13  C   UNL     1       7.719   4.630  18.208  0.00  0.00    +0.000 C 
BRANCH  13  14
ATOM     14  O   UNL     1       8.004   4.127  16.915  0.00  0.00    +0.000 OA
ATOM     15  H   UNL     1       8.513   4.808  16.425  0.00  0.00    +0.000 HD
ENDBRANCH  13  14
ENDBRANCH  12  13
BRANCH  12  16
ATOM     16  C   UNL     1       7.312   6.916  17.134  0.00  0.00    +0.000 C 
BRANCH  16  17
ATOM     17  O   UNL     1       6.189   7.293  16.313  0.00  0.00    +0.000 OA
ATOM     18  H   UNL     1       6.513   7.554  15.430  0.00  0.00    +0.000 HD
ENDBRANCH  16  17
BRANCH  16  19
ATOM     19  C   UNL     1       7.860   8.206  17.768  0.00  0.00    +0.000 C 
BRANCH  19  20
ATOM     20  O   UNL     1       8.637   7.892  18.924  0.00  0.00    +0.000 OA
ATOM     21  H   UNL     1       9.569   7.825  18.645  0.00  0.00    +0.000 HD
ENDBRANCH  19  20
ENDBRANCH  16  19
ENDBRANCH  12  16
ENDBRANCH   1  12
TORSDOF 11
ENDMDL
MODEL 5
REMARK VINA RESULT:      -5.9      1.323      1.680
REMARK  Name = 
REMARK  13 active torsions:
REMARK  status: ('A' for Active; 'I' for Inactive)
REMARK    1  A    between atoms: C_1  and  C_2
REMARK    2  A    between atoms: C_2  and  C_3
REMARK    3  A    between atoms: C_2  and  C_4
REMARK    4  A    between atoms: C_2  and  N_16
REMARK    5  A    between atoms: C_4  and  C_5
REMARK    6  A    between atoms: C_5  and  S_6
REMARK    7  A    between atoms: S_6  and  C_9
REMARK    8  A    between atoms: C_9  and  C_10
REMARK    9  A    between atoms: C_9  and  C_12
REMARK   10  A    between atoms: C_10  and  O_11
REMARK   11  A    between atoms: C_12  and  O_13
REMARK   12  A    between atoms: C_12  and  C_14
REMARK   13  A    between atoms: C_14  and  O_15
REMARK                            x       y       z     vdW  Elec       q    Type
REMARK                         _______ _______ _______ _____ _____    ______ ____
ROOT
ATOM      1  S   UNL     1       3.402   2.817  18.885  0.00  0.00    +0.000 S 
ATOM      2  O   UNL     1       2.612   1.821  18.189  0.00  0.00    +0.000 OA
ATOM      3  O   UNL     1       4.239   2.416  20.005  0.00  0.00    +0.000 OA
ENDROOT
BRANCH   1   4
ATOM      4  C   UNL     1       4.432   3.622  17.673  0.00  0.00    +0.000 C 
BRANCH   4   5
ATOM      5  C   UNL     1       5.477   4.558  18.280  0.00  0.00    +0.000 C 
BRANCH   5   7
ATOM      6  C   UNL     1       6.696   4.427  16.070  0.00  0.00    +0.000 C 
ATOM      7  C   UNL     1       6.261   5.387  17.208  0.00  0.00    +0.000 C 
ATOM      8  C   UNL     1       5.301   6.433  16.605  0.00  0.00    +0.000 C 
BRANCH   7   9
ATOM      9  N   UNL     1       7.467   6.011  17.811  0.00  0.00    +0.000 NA
ATOM     10 CL   UNL     1       7.671   7.741  17.514  0.00  0.00    +0.000 Cl
ATOM     11 CL   UNL     1       7.709   5.696  19.534  0.00  0.00    +0.000 Cl
ENDBRANCH   7   9
ENDBRANCH   5   7
ENDBRANCH   4   5
ENDBRANCH   1   4
BRANCH   1  12
ATOM     12  C   UNL     1       2.247   4.076  19.481  0.00  0.00    +0.000 C 
BRANCH  12  13
ATOM     13  C   UNL     1       1.810   4.907  18.278  0.00  0.00    +0.000 C 
BRANCH  13  14
ATOM     14  O   UNL     1       1.151   4.124  17.299  0.00  0.00    +0.000 OA
ATOM     15  H   UNL     1       1.697   3.326  17.126  0.00  0.00    +0.000 HD
ENDBRANCH  13  14
ENDBRANCH  12  13
BRANCH  12  16
ATOM     16  C   UNL     1       1.079   3.461  20.257  0.00  0.00    +0.000 C 
BRANCH  16  17
ATOM     17  O   UNL     1       0.321   2.625  19.361  0.00  0.00    +0.000 OA
ATOM     18  H   UNL     1      -0.393   2.187  19.862  0.00  0.00    +0.000 HD
ENDBRANCH  16  17
BRANCH  16  19
ATOM     19  C   UNL     1       1.519   2.575  21.436  0.00  0.00    +0.000 C 
BRANCH  19  20
ATOM     20  O   UNL     1       2.439   3.285  22.266  0.00  0.00    +0.000 OA
ATOM     21  H   UNL     1       3.270   2.775  22.291  0.00  0.00    +0.000 HD
ENDBRANCH  19  20
ENDBRANCH  16  19
ENDBRANCH  12  16
ENDBRANCH   1  12
TORSDOF 11
ENDMDL
MODEL 6
REMARK VINA RESULT:      -5.9      1.479      2.260
REMARK  Name = 
REMARK  13 active torsions:
REMARK  status: ('A' for Active; 'I' for Inactive)
REMARK    1  A    between atoms: C_1  and  C_2
REMARK    2  A    between atoms: C_2  and  C_3
REMARK    3  A    between atoms: C_2  and  C_4
REMARK    4  A    between atoms: C_2  and  N_16
REMARK    5  A    between atoms: C_4  and  C_5
REMARK    6  A    between atoms: C_5  and  S_6
REMARK    7  A    between atoms: S_6  and  C_9
REMARK    8  A    between atoms: C_9  and  C_10
REMARK    9  A    between atoms: C_9  and  C_12
REMARK   10  A    between atoms: C_10  and  O_11
REMARK   11  A    between atoms: C_12  and  O_13
REMARK   12  A    between atoms: C_12  and  C_14
REMARK   13  A    between atoms: C_14  and  O_15
REMARK                            x       y       z     vdW  Elec       q    Type
REMARK                         _______ _______ _______ _____ _____    ______ ____
ROOT
ATOM      1  S   UNL     1       4.276   2.755  19.469  0.00  0.00    +0.000 S 
ATOM      2  O   UNL     1       3.655   2.086  18.344  0.00  0.00    +0.000 OA
ATOM      3  O   UNL     1       5.155   2.007  20.354  0.00  0.00    +0.000 OA
ENDROOT
BRANCH   1   4
ATOM      4  C   UNL     1       5.180   4.150  18.827  0.00  0.00    +0.000 C 
BRANCH   4   5
ATOM      5  C   UNL     1       5.102   4.284  17.306  0.00  0.00    +0.000 C 
BRANCH   5   7
ATOM      6  C   UNL     1       7.594   4.585  17.606  0.00  0.00    +0.000 C 
ATOM      7  C   UNL     1       6.395   4.901  16.673  0.00  0.00    +0.000 C 
ATOM      8  C   UNL     1       6.653   4.205  15.320  0.00  0.00    +0.000 C 
BRANCH   7   9
ATOM      9  N   UNL     1       6.257   6.373  16.533  0.00  0.00    +0.000 NA
ATOM     10 CL   UNL     1       4.635   7.024  16.793  0.00  0.00    +0.000 Cl
ATOM     11 CL   UNL     1       7.414   7.339  17.457  0.00  0.00    +0.000 Cl
ENDBRANCH   7   9
ENDBRANCH   5   7
ENDBRANCH   4   5
ENDBRANCH   1   4
BRANCH   1  12
ATOM     12  C   UNL     1       2.935   3.441  20.473  0.00  0.00    +0.000 C 
BRANCH  12  13
ATOM     13  C   UNL     1       2.698   4.875  20.007  0.00  0.00    +0.000 C 
BRANCH  13  14
ATOM     14  O   UNL     1       2.176   5.692  21.040  0.00  0.00    +0.000 OA
ATOM     15  H   UNL     1       2.680   5.508  21.862  0.00  0.00    +0.000 HD
ENDBRANCH  13  14
ENDBRANCH  12  13
BRANCH  12  16
ATOM     16  C   UNL     1       1.680   2.567  20.427  0.00  0.00    +0.000 C 
BRANCH  16  17
ATOM     17  O   UNL     1       0.954   2.739  21.661  0.00  0.00    +0.000 OA
ATOM     18  H   UNL     1       0.151   3.266  21.487  0.00  0.00    +0.000 HD
ENDBRANCH  16  17
BRANCH  16  19
ATOM     19  C   UNL     1       0.716   2.928  19.283  0.00  0.00    +0.000 C 
BRANCH  19  20
ATOM     20  O   UNL     1       0.714   1.893  18.300  0.00  0.00    +0.000 OA
ATOM     21  H   UNL     1       0.196   2.211  17.536  0.00  0.00    +0.000 HD
ENDBRANCH  19  20
ENDBRANCH  16  19
ENDBRANCH  12  16
ENDBRANCH   1  12
TORSDOF 11
ENDMDL
MODEL 7
REMARK VINA RESULT:      -5.9      1.295      2.360
REMARK  Name = 
REMARK  13 active torsions:
REMARK  status: ('A' for Active; 'I' for Inactive)
REMARK    1  A    between atoms: C_1  and  C_2
REMARK    2  A    between atoms: C_2  and  C_3
REMARK    3  A    between atoms: C_2  and  C_4
REMARK    4  A    between atoms: C_2  and  N_16
REMARK    5  A    between atoms: C_4  and  C_5
REMARK    6  A    between atoms: C_5  and  S_6
REMARK    7  A    between atoms: S_6  and  C_9
REMARK    8  A    between atoms: C_9  and  C_10
REMARK    9  A    between atoms: C_9  and  C_12
REMARK   10  A    between atoms: C_10  and  O_11
REMARK   11  A    between atoms: C_12  and  O_13
REMARK   12  A    between atoms: C_12  and  C_14
REMARK   13  A    between atoms: C_14  and  O_15
REMARK                            x       y       z     vdW  Elec       q    Type
REMARK                         _______ _______ _______ _____ _____    ______ ____
ROOT
ATOM      1  S   UNL     1       4.107   4.461  18.687  0.00  0.00    +0.000 S 
ATOM      2  O   UNL     1       5.302   3.888  19.272  0.00  0.00    +0.000 OA
ATOM      3  O   UNL     1       3.776   5.854  18.950  0.00  0.00    +0.000 OA
ENDROOT
BRANCH   1   4
ATOM      4  C   UNL     1       4.214   4.232  16.923  0.00  0.00    +0.000 C 
BRANCH   4   5
ATOM      5  C   UNL     1       5.632   3.954  16.425  0.00  0.00    +0.000 C 
BRANCH   5   7
ATOM      6  C   UNL     1       6.822   4.830  14.374  0.00  0.00    +0.000 C 
ATOM      7  C   UNL     1       6.322   5.210  15.793  0.00  0.00    +0.000 C 
ATOM      8  C   UNL     1       5.264   6.321  15.640  0.00  0.00    +0.000 C 
BRANCH   7   9
ATOM      9  N   UNL     1       7.478   5.642  16.621  0.00  0.00    +0.000 NA
ATOM     10 CL   UNL     1       7.331   7.230  17.382  0.00  0.00    +0.000 Cl
ATOM     11 CL   UNL     1       8.026   4.477  17.833  0.00  0.00    +0.000 Cl
ENDBRANCH   7   9
ENDBRANCH   5   7
ENDBRANCH   4   5
ENDBRANCH   1   4
BRANCH   1  12
ATOM     12  C   UNL     1       2.715   3.448  19.245  0.00  0.00    +0.000 C 
BRANCH  12  13
ATOM     13  C   UNL     1       2.844   2.082  18.577  0.00  0.00    +0.000 C 
BRANCH  13  14
ATOM     14  O   UNL     1       1.667   1.717  17.879  0.00  0.00    +0.000 OA
ATOM     15  H   UNL     1       0.975   1.493  18.538  0.00  0.00    +0.000 HD
ENDBRANCH  13  14
ENDBRANCH  12  13
BRANCH  12  16
ATOM     16  C   UNL     1       2.632   3.378  20.772  0.00  0.00    +0.000 C 
BRANCH  16  17
ATOM     17  O   UNL     1       2.777   4.711  21.302  0.00  0.00    +0.000 OA
ATOM     18  H   UNL     1       2.481   4.718  22.232  0.00  0.00    +0.000 HD
ENDBRANCH  16  17
BRANCH  16  19
ATOM     19  C   UNL     1       1.293   2.830  21.293  0.00  0.00    +0.000 C 
BRANCH  19  20
ATOM     20  O   UNL     1       0.258   3.075  20.340  0.00  0.00    +0.000 OA
ATOM     21  H   UNL     1      -0.131   2.215  20.096  0.00  0.00    +0.000 HD
ENDBRANCH  19  20
ENDBRANCH  16  19
ENDBRANCH  12  16
ENDBRANCH   1  12
TORSDOF 11
ENDMDL
MODEL 8
REMARK VINA RESULT:      -5.9      2.008      2.801
REMARK  Name = 
REMARK  13 active torsions:
REMARK  status: ('A' for Active; 'I' for Inactive)
REMARK    1  A    between atoms: C_1  and  C_2
REMARK    2  A    between atoms: C_2  and  C_3
REMARK    3  A    between atoms: C_2  and  C_4
REMARK    4  A    between atoms: C_2  and  N_16
REMARK    5  A    between atoms: C_4  and  C_5
REMARK    6  A    between atoms: C_5  and  S_6
REMARK    7  A    between atoms: S_6  and  C_9
REMARK    8  A    between atoms: C_9  and  C_10
REMARK    9  A    between atoms: C_9  and  C_12
REMARK   10  A    between atoms: C_10  and  O_11
REMARK   11  A    between atoms: C_12  and  O_13
REMARK   12  A    between atoms: C_12  and  C_14
REMARK   13  A    between atoms: C_14  and  O_15
REMARK                            x       y       z     vdW  Elec       q    Type
REMARK                         _______ _______ _______ _____ _____    ______ ____
ROOT
ATOM      1  S   UNL     1       3.808   3.984  18.003  0.00  0.00    +0.000 S 
ATOM      2  O   UNL     1       2.853   4.965  17.528  0.00  0.00    +0.000 OA
ATOM      3  O   UNL     1       4.429   3.069  17.057  0.00  0.00    +0.000 OA
ENDROOT
BRANCH   1   4
ATOM      4  C   UNL     1       5.098   4.868  18.859  0.00  0.00    +0.000 C 
BRANCH   4   5
ATOM      5  C   UNL     1       5.503   6.174  18.177  0.00  0.00    +0.000 C 
BRANCH   5   7
ATOM      6  C   UNL     1       7.722   7.310  17.757  0.00  0.00    +0.000 C 
ATOM      7  C   UNL     1       6.859   6.071  17.400  0.00  0.00    +0.000 C 
ATOM      8  C   UNL     1       7.608   4.816  17.892  0.00  0.00    +0.000 C 
BRANCH   7   9
ATOM      9  N   UNL     1       6.620   6.046  15.934  0.00  0.00    +0.000 NA
ATOM     10 CL   UNL     1       6.964   4.514  15.122  0.00  0.00    +0.000 Cl
ATOM     11 CL   UNL     1       5.034   6.626  15.410  0.00  0.00    +0.000 Cl
ENDBRANCH   7   9
ENDBRANCH   5   7
ENDBRANCH   4   5
ENDBRANCH   1   4
BRANCH   1  12
ATOM     12  C   UNL     1       2.959   2.992  19.255  0.00  0.00    +0.000 C 
BRANCH  12  13
ATOM     13  C   UNL     1       4.008   2.526  20.262  0.00  0.00    +0.000 C 
BRANCH  13  14
ATOM     14  O   UNL     1       4.918   1.602  19.694  0.00  0.00    +0.000 OA
ATOM     15  H   UNL     1       4.825   0.747  20.168  0.00  0.00    +0.000 HD
ENDBRANCH  13  14
ENDBRANCH  12  13
BRANCH  12  16
ATOM     16  C   UNL     1       1.792   3.750  19.893  0.00  0.00    +0.000 C 
BRANCH  16  17
ATOM     17  O   UNL     1       0.763   2.802  20.240  0.00  0.00    +0.000 OA
ATOM     18  H   UNL     1       0.335   3.087  21.071  0.00  0.00    +0.000 HD
ENDBRANCH  16  17
BRANCH  16  19
ATOM     19  C   UNL     1       2.171   4.496  21.183  0.00  0.00    +0.000 C 
BRANCH  19  20
ATOM     20  O   UNL     1       2.278   5.897  20.926  0.00  0.00    +0.000 OA
ATOM     21  H   UNL     1       2.642   6.319  21.726  0.00  0.00    +0.000 HD
ENDBRANCH  19  20
ENDBRANCH  16  19
ENDBRANCH  12  16
ENDBRANCH   1  12
TORSDOF 11
ENDMDL
MODEL 9
REMARK VINA RESULT:      -5.8      1.260      2.358
REMARK  Name = 
REMARK  13 active torsions:
REMARK  status: ('A' for Active; 'I' for Inactive)
REMARK    1  A    between atoms: C_1  and  C_2
REMARK    2  A    between atoms: C_2  and  C_3
REMARK    3  A    between atoms: C_2  and  C_4
REMARK    4  A    between atoms: C_2  and  N_16
REMARK    5  A    between atoms: C_4  and  C_5
REMARK    6  A    between atoms: C_5  and  S_6
REMARK    7  A    between atoms: S_6  and  C_9
REMARK    8  A    between atoms: C_9  and  C_10
REMARK    9  A    between atoms: C_9  and  C_12
REMARK   10  A    between atoms: C_10  and  O_11
REMARK   11  A    between atoms: C_12  and  O_13
REMARK   12  A    between atoms: C_12  and  C_14
REMARK   13  A    between atoms: C_14  and  O_15
REMARK                            x       y       z     vdW  Elec       q    Type
REMARK                         _______ _______ _______ _____ _____    ______ ____
ROOT
ATOM      1  S   UNL     1       2.919   3.126  18.130  0.00  0.00    +0.000 S 
ATOM      2  O   UNL     1       2.279   3.205  16.832  0.00  0.00    +0.000 OA
ATOM      3  O   UNL     1       3.277   1.826  18.677  0.00  0.00    +0.000 OA
ENDROOT
BRANCH   1   4
ATOM      4  C   UNL     1       4.390   4.130  18.060  0.00  0.00    +0.000 C 
BRANCH   4   5
ATOM      5  C   UNL     1       5.301   3.804  16.877  0.00  0.00    +0.000 C 
BRANCH   5   7
ATOM      6  C   UNL     1       7.602   4.528  17.631  0.00  0.00    +0.000 C 
ATOM      7  C   UNL     1       6.437   4.859  16.661  0.00  0.00    +0.000 C 
ATOM      8  C   UNL     1       6.967   4.716  15.219  0.00  0.00    +0.000 C 
BRANCH   7   9
ATOM      9  N   UNL     1       5.938   6.230  16.945  0.00  0.00    +0.000 NA
ATOM     10 CL   UNL     1       7.166   7.422  17.385  0.00  0.00    +0.000 Cl
ATOM     11 CL   UNL     1       4.882   6.927  15.710  0.00  0.00    +0.000 Cl
ENDBRANCH   7   9
ENDBRANCH   5   7
ENDBRANCH   4   5
ENDBRANCH   1   4
BRANCH   1  12
ATOM     12  C   UNL     1       1.810   3.936  19.309  0.00  0.00    +0.000 C 
BRANCH  12  13
ATOM     13  C   UNL     1       0.636   2.993  19.558  0.00  0.00    +0.000 C 
BRANCH  13  14
ATOM     14  O   UNL     1       0.330   2.210  18.418  0.00  0.00    +0.000 OA
ATOM     15  H   UNL     1      -0.646   2.177  18.321  0.00  0.00    +0.000 HD
ENDBRANCH  13  14
ENDBRANCH  12  13
BRANCH  12  16
ATOM     16  C   UNL     1       2.540   4.357  20.586  0.00  0.00    +0.000 C 
BRANCH  16  17
ATOM     17  O   UNL     1       2.159   5.708  20.910  0.00  0.00    +0.000 OA
ATOM     18  H   UNL     1       1.204   5.820  20.737  0.00  0.00    +0.000 HD
ENDBRANCH  16  17
BRANCH  16  19
ATOM     19  C   UNL     1       2.198   3.487  21.808  0.00  0.00    +0.000 C 
BRANCH  19  20
ATOM     20  O   UNL     1       3.062   2.351  21.858  0.00  0.00    +0.000 OA
ATOM     21  H   UNL     1       3.946   2.661  22.130  0.00  0.00    +0.000 HD
ENDBRANCH  19  20
ENDBRANCH  16  19
ENDBRANCH  12  16
ENDBRANCH   1  12
TORSDOF 11
ENDMDL
