MODEL 1
REMARK VINA RESULT:      -9.2      0.000      0.000
REMARK  Name = 
REMARK  4 active torsions:
REMARK  status: ('A' for Active; 'I' for Inactive)
REMARK    1  A    between atoms: C_1  and  N_2
REMARK    2  A    between atoms: C_11  and  C_12
REMARK    3  A    between atoms: C_12  and  N_13
REMARK    4  A    between atoms: N_16  and  C_17
REMARK                            x       y       z     vdW  Elec       q    Type
REMARK                         _______ _______ _______ _____ _____    ______ ____
ROOT
ATOM      1  N   UNL     1       1.707   8.136  21.151  0.00  0.00    +0.000 N 
ATOM      2  C   UNL     1       2.040   7.158  20.232  0.00  0.00    +0.000 C 
ATOM      3  O   UNL     1       2.371   7.442  19.087  0.00  0.00    +0.000 OA
ATOM      4  N   UNL     1       1.905   5.887  20.750  0.00  0.00    +0.000 N 
ATOM      5  H   UNL     1       1.950   7.949  22.112  0.00  0.00    +0.000 HD
ATOM      6  H   UNL     1       1.338   5.818  21.582  0.00  0.00    +0.000 HD
ENDROOT
BRANCH   4   7
ATOM      7  C   UNL     1       2.156   4.684  20.041  0.00  0.00    +0.000 A 
ATOM      8  C   UNL     1       1.149   3.750  19.743  0.00  0.00    +0.000 A 
ATOM      9  C   UNL     1       1.425   2.537  19.105  0.00  0.00    +0.000 A 
ATOM     10  C   UNL     1       2.723   2.206  18.721  0.00  0.00    +0.000 A 
ATOM     11  C   UNL     1       3.714   3.155  18.974  0.00  0.00    +0.000 A 
ATOM     12  N   UNL     1       5.058   3.135  18.715  0.00  0.00    +0.000 N 
ATOM     13  N   UNL     1       5.707   4.249  19.096  0.00  0.00    +0.000 NA
ATOM     14  C   UNL     1       4.740   4.995  19.639  0.00  0.00    +0.000 A 
ATOM     15  C   UNL     1       3.467   4.376  19.602  0.00  0.00    +0.000 A 
ATOM     16  H   UNL     1       5.594   2.390  18.282  0.00  0.00    +0.000 HD
ENDBRANCH   4   7
BRANCH   1  17
ATOM     17  C   UNL     1       1.808   9.512  20.705  0.00  0.00    +0.000 C 
BRANCH  17  28
ATOM     18  C   UNL     1      -3.934  12.913  19.975  0.00  0.00    +0.000 C 
ATOM     19  N   UNL     1      -3.097  11.949  19.292  0.00  0.00    +0.000 N 
ATOM     20  C   UNL     1      -3.317  11.451  18.024  0.00  0.00    +0.000 A 
ATOM     21  C   UNL     1      -4.360  11.671  17.107  0.00  0.00    +0.000 A 
ATOM     22  C   UNL     1      -4.296  11.037  15.863  0.00  0.00    +0.000 A 
ATOM     23  C   UNL     1      -3.224  10.214  15.538  0.00  0.00    +0.000 A 
ATOM     24  C   UNL     1      -2.194   9.993  16.458  0.00  0.00    +0.000 A 
ATOM     25  C   UNL     1      -2.238  10.613  17.726  0.00  0.00    +0.000 A 
ATOM     26  C   UNL     1      -1.376  10.589  18.871  0.00  0.00    +0.000 A 
ATOM     27  C   UNL     1      -0.158   9.934  19.171  0.00  0.00    +0.000 A 
ATOM     28  C   UNL     1       0.475  10.145  20.410  0.00  0.00    +0.000 A 
ATOM     29  C   UNL     1      -0.126  10.986  21.353  0.00  0.00    +0.000 A 
ATOM     30  C   UNL     1      -1.331  11.641  21.081  0.00  0.00    +0.000 A 
ATOM     31  C   UNL     1      -1.937  11.429  19.833  0.00  0.00    +0.000 A 
ENDBRANCH  17  28
ENDBRANCH   1  17
TORSDOF 3
ENDMDL
MODEL 2
REMARK VINA RESULT:      -9.2      5.847      9.805
REMARK  Name = 
REMARK  4 active torsions:
REMARK  status: ('A' for Active; 'I' for Inactive)
REMARK    1  A    between atoms: C_1  and  N_2
REMARK    2  A    between atoms: C_11  and  C_12
REMARK    3  A    between atoms: C_12  and  N_13
REMARK    4  A    between atoms: N_16  and  C_17
REMARK                            x       y       z     vdW  Elec       q    Type
REMARK                         _______ _______ _______ _____ _____    ______ ____
ROOT
ATOM      1  N   UNL     1       8.161   7.902  18.047  0.00  0.00    +0.000 N 
ATOM      2  C   UNL     1       8.364   9.244  18.309  0.00  0.00    +0.000 C 
ATOM      3  O   UNL     1       7.889  10.115  17.591  0.00  0.00    +0.000 OA
ATOM      4  N   UNL     1       9.175   9.445  19.407  0.00  0.00    +0.000 N 
ATOM      5  H   UNL     1       8.092   7.293  18.849  0.00  0.00    +0.000 HD
ATOM      6  H   UNL     1       9.724   8.647  19.690  0.00  0.00    +0.000 HD
ENDROOT
BRANCH   4   7
ATOM      7  C   UNL     1       9.575  10.711  19.907  0.00  0.00    +0.000 A 
ATOM      8  C   UNL     1       9.121  11.224  21.135  0.00  0.00    +0.000 A 
ATOM      9  C   UNL     1       9.469  12.503  21.580  0.00  0.00    +0.000 A 
ATOM     10  C   UNL     1      10.302  13.325  20.825  0.00  0.00    +0.000 A 
ATOM     11  C   UNL     1      10.791  12.797  19.629  0.00  0.00    +0.000 A 
ATOM     12  N   UNL     1      11.620  13.338  18.685  0.00  0.00    +0.000 N 
ATOM     13  N   UNL     1      11.888  12.518  17.654  0.00  0.00    +0.000 NA
ATOM     14  C   UNL     1      11.181  11.422  17.944  0.00  0.00    +0.000 A 
ATOM     15  C   UNL     1      10.466  11.522  19.163  0.00  0.00    +0.000 A 
ATOM     16  H   UNL     1      12.036  14.264  18.685  0.00  0.00    +0.000 HD
ENDBRANCH   4   7
BRANCH   1  17
ATOM     17  C   UNL     1       7.327   7.579  16.907  0.00  0.00    +0.000 C 
BRANCH  17  28
ATOM     18  C   UNL     1       3.807   1.932  17.802  0.00  0.00    +0.000 C 
ATOM     19  N   UNL     1       3.801   3.335  18.157  0.00  0.00    +0.000 N 
ATOM     20  C   UNL     1       2.896   3.945  19.001  0.00  0.00    +0.000 A 
ATOM     21  C   UNL     1       1.769   3.442  19.675  0.00  0.00    +0.000 A 
ATOM     22  C   UNL     1       1.046   4.310  20.499  0.00  0.00    +0.000 A 
ATOM     23  C   UNL     1       1.436   5.634  20.654  0.00  0.00    +0.000 A 
ATOM     24  C   UNL     1       2.553   6.131  19.974  0.00  0.00    +0.000 A 
ATOM     25  C   UNL     1       3.296   5.279  19.126  0.00  0.00    +0.000 A 
ATOM     26  C   UNL     1       4.452   5.467  18.299  0.00  0.00    +0.000 A 
ATOM     27  C   UNL     1       5.285   6.574  18.012  0.00  0.00    +0.000 A 
ATOM     28  C   UNL     1       6.392   6.425  17.156  0.00  0.00    +0.000 A 
ATOM     29  C   UNL     1       6.645   5.180  16.571  0.00  0.00    +0.000 A 
ATOM     30  C   UNL     1       5.833   4.072  16.836  0.00  0.00    +0.000 A 
ATOM     31  C   UNL     1       4.744   4.239  17.705  0.00  0.00    +0.000 A 
ENDBRANCH  17  28
ENDBRANCH   1  17
TORSDOF 3
ENDMDL
MODEL 3
REMARK VINA RESULT:      -9.1      7.627      9.899
REMARK  Name = 
REMARK  4 active torsions:
REMARK  status: ('A' for Active; 'I' for Inactive)
REMARK    1  A    between atoms: C_1  and  N_2
REMARK    2  A    between atoms: C_11  and  C_12
REMARK    3  A    between atoms: C_12  and  N_13
REMARK    4  A    between atoms: N_16  and  C_17
REMARK                            x       y       z     vdW  Elec       q    Type
REMARK                         _______ _______ _______ _____ _____    ______ ____
ROOT
ATOM      1  N   UNL     1       8.176   9.199  17.790  0.00  0.00    +0.000 N 
ATOM      2  C   UNL     1       7.784   7.874  17.847  0.00  0.00    +0.000 C 
ATOM      3  O   UNL     1       8.210   7.118  18.712  0.00  0.00    +0.000 OA
ATOM      4  N   UNL     1       6.931   7.537  16.817  0.00  0.00    +0.000 N 
ATOM      5  H   UNL     1       7.484   9.858  17.466  0.00  0.00    +0.000 HD
ATOM      6  H   UNL     1       6.928   8.173  16.033  0.00  0.00    +0.000 HD
ENDROOT
BRANCH   4   7
ATOM      7  C   UNL     1       6.378   6.249  16.602  0.00  0.00    +0.000 A 
ATOM      8  C   UNL     1       7.039   5.247  15.870  0.00  0.00    +0.000 A 
ATOM      9  C   UNL     1       6.450   4.007  15.608  0.00  0.00    +0.000 A 
ATOM     10  C   UNL     1       5.175   3.702  16.080  0.00  0.00    +0.000 A 
ATOM     11  C   UNL     1       4.539   4.679  16.847  0.00  0.00    +0.000 A 
ATOM     12  N   UNL     1       3.310   4.683  17.450  0.00  0.00    +0.000 N 
ATOM     13  N   UNL     1       3.034   5.812  18.126  0.00  0.00    +0.000 NA
ATOM     14  C   UNL     1       4.121   6.562  17.923  0.00  0.00    +0.000 A 
ATOM     15  C   UNL     1       5.105   5.922  17.131  0.00  0.00    +0.000 A 
ATOM     16  H   UNL     1       2.612   3.947  17.437  0.00  0.00    +0.000 HD
ENDBRANCH   4   7
BRANCH   1  17
ATOM     17  C   UNL     1       9.081   9.657  18.826  0.00  0.00    +0.000 C 
BRANCH  17  28
ATOM     18  C   UNL     1      12.263  15.314  17.106  0.00  0.00    +0.000 C 
ATOM     19  N   UNL     1      11.005  14.845  17.649  0.00  0.00    +0.000 N 
ATOM     20  C   UNL     1       9.912  15.636  17.941  0.00  0.00    +0.000 A 
ATOM     21  C   UNL     1       9.722  17.026  17.856  0.00  0.00    +0.000 A 
ATOM     22  C   UNL     1       8.472  17.549  18.200  0.00  0.00    +0.000 A 
ATOM     23  C   UNL     1       7.441  16.713  18.610  0.00  0.00    +0.000 A 
ATOM     24  C   UNL     1       7.639  15.331  18.702  0.00  0.00    +0.000 A 
ATOM     25  C   UNL     1       8.895  14.778  18.369  0.00  0.00    +0.000 A 
ATOM     26  C   UNL     1       9.420  13.444  18.364  0.00  0.00    +0.000 A 
ATOM     27  C   UNL     1       8.884  12.176  18.694  0.00  0.00    +0.000 A 
ATOM     28  C   UNL     1       9.668  11.016  18.550  0.00  0.00    +0.000 A 
ATOM     29  C   UNL     1      10.989  11.131  18.105  0.00  0.00    +0.000 A 
ATOM     30  C   UNL     1      11.542  12.373  17.777  0.00  0.00    +0.000 A 
ATOM     31  C   UNL     1      10.737  13.515  17.913  0.00  0.00    +0.000 A 
ENDBRANCH  17  28
ENDBRANCH   1  17
TORSDOF 3
ENDMDL
MODEL 4
REMARK VINA RESULT:      -9.1      7.691     10.428
REMARK  Name = 
REMARK  4 active torsions:
REMARK  status: ('A' for Active; 'I' for Inactive)
REMARK    1  A    between atoms: C_1  and  N_2
REMARK    2  A    between atoms: C_11  and  C_12
REMARK    3  A    between atoms: C_12  and  N_13
REMARK    4  A    between atoms: N_16  and  C_17
REMARK                            x       y       z     vdW  Elec       q    Type
REMARK                         _______ _______ _______ _____ _____    ______ ____
ROOT
ATOM      1  N   UNL     1       8.181   9.003  17.967  0.00  0.00    +0.000 N 
ATOM      2  C   UNL     1       7.764   7.685  17.922  0.00  0.00    +0.000 C 
ATOM      3  O   UNL     1       8.091   6.881  18.788  0.00  0.00    +0.000 OA
ATOM      4  N   UNL     1       7.011   7.413  16.799  0.00  0.00    +0.000 N 
ATOM      5  H   UNL     1       7.535   9.690  17.608  0.00  0.00    +0.000 HD
ATOM      6  H   UNL     1       7.096   8.084  16.050  0.00  0.00    +0.000 HD
ENDROOT
BRANCH   4   7
ATOM      7  C   UNL     1       6.462   6.148  16.470  0.00  0.00    +0.000 A 
ATOM      8  C   UNL     1       7.084   5.252  15.584  0.00  0.00    +0.000 A 
ATOM      9  C   UNL     1       6.495   4.039  15.216  0.00  0.00    +0.000 A 
ATOM     10  C   UNL     1       5.259   3.655  15.731  0.00  0.00    +0.000 A 
ATOM     11  C   UNL     1       4.664   4.522  16.648  0.00  0.00    +0.000 A 
ATOM     12  N   UNL     1       3.478   4.430  17.327  0.00  0.00    +0.000 N 
ATOM     13  N   UNL     1       3.234   5.467  18.147  0.00  0.00    +0.000 NA
ATOM     14  C   UNL     1       4.295   6.258  17.964  0.00  0.00    +0.000 A 
ATOM     15  C   UNL     1       5.232   5.735  17.039  0.00  0.00    +0.000 A 
ATOM     16  H   UNL     1       2.790   3.686  17.272  0.00  0.00    +0.000 HD
ENDBRANCH   4   7
BRANCH   1  17
ATOM     17  C   UNL     1       8.987   9.394  19.106  0.00  0.00    +0.000 C 
BRANCH  17  28
ATOM     18  C   UNL     1      11.597  15.404  17.639  0.00  0.00    +0.000 C 
ATOM     19  N   UNL     1      11.041  14.653  18.745  0.00  0.00    +0.000 N 
ATOM     20  C   UNL     1      10.820  15.142  20.016  0.00  0.00    +0.000 A 
ATOM     21  C   UNL     1      11.092  16.396  20.589  0.00  0.00    +0.000 A 
ATOM     22  C   UNL     1      10.722  16.613  21.920  0.00  0.00    +0.000 A 
ATOM     23  C   UNL     1      10.096  15.615  22.656  0.00  0.00    +0.000 A 
ATOM     24  C   UNL     1       9.836  14.365  22.082  0.00  0.00    +0.000 A 
ATOM     25  C   UNL     1      10.208  14.116  20.743  0.00  0.00    +0.000 A 
ATOM     26  C   UNL     1      10.100  12.976  19.881  0.00  0.00    +0.000 A 
ATOM     27  C   UNL     1       9.587  11.667  20.042  0.00  0.00    +0.000 A 
ATOM     28  C   UNL     1       9.600  10.762  18.965  0.00  0.00    +0.000 A 
ATOM     29  C   UNL     1      10.150  11.160  17.741  0.00  0.00    +0.000 A 
ATOM     30  C   UNL     1      10.666  12.446  17.559  0.00  0.00    +0.000 A 
ATOM     31  C   UNL     1      10.629  13.338  18.642  0.00  0.00    +0.000 A 
ENDBRANCH  17  28
ENDBRANCH   1  17
TORSDOF 3
ENDMDL
MODEL 5
REMARK VINA RESULT:      -9.0      1.364      1.468
REMARK  Name = 
REMARK  4 active torsions:
REMARK  status: ('A' for Active; 'I' for Inactive)
REMARK    1  A    between atoms: C_1  and  N_2
REMARK    2  A    between atoms: C_11  and  C_12
REMARK    3  A    between atoms: C_12  and  N_13
REMARK    4  A    between atoms: N_16  and  C_17
REMARK                            x       y       z     vdW  Elec       q    Type
REMARK                         _______ _______ _______ _____ _____    ______ ____
ROOT
ATOM      1  N   UNL     1       2.232   8.226  17.679  0.00  0.00    +0.000 N 
ATOM      2  C   UNL     1       2.358   7.079  18.441  0.00  0.00    +0.000 C 
ATOM      3  O   UNL     1       2.609   7.132  19.639  0.00  0.00    +0.000 OA
ATOM      4  N   UNL     1       2.216   5.933  17.687  0.00  0.00    +0.000 N 
ATOM      5  H   UNL     1       1.562   8.192  16.925  0.00  0.00    +0.000 HD
ATOM      6  H   UNL     1       2.323   6.055  16.691  0.00  0.00    +0.000 HD
ENDROOT
BRANCH   4   7
ATOM      7  C   UNL     1       2.312   4.609  18.187  0.00  0.00    +0.000 A 
ATOM      8  C   UNL     1       1.210   3.741  18.265  0.00  0.00    +0.000 A 
ATOM      9  C   UNL     1       1.307   2.464  18.825  0.00  0.00    +0.000 A 
ATOM     10  C   UNL     1       2.518   1.986  19.321  0.00  0.00    +0.000 A 
ATOM     11  C   UNL     1       3.623   2.830  19.199  0.00  0.00    +0.000 A 
ATOM     12  N   UNL     1       4.928   2.655  19.573  0.00  0.00    +0.000 N 
ATOM     13  N   UNL     1       5.727   3.696  19.282  0.00  0.00    +0.000 NA
ATOM     14  C   UNL     1       4.891   4.575  18.723  0.00  0.00    +0.000 A 
ATOM     15  C   UNL     1       3.557   4.106  18.638  0.00  0.00    +0.000 A 
ATOM     16  H   UNL     1       5.336   1.848  20.033  0.00  0.00    +0.000 HD
ENDBRANCH   4   7
BRANCH   1  17
ATOM     17  C   UNL     1       2.371   9.490  18.374  0.00  0.00    +0.000 C 
BRANCH  17  28
ATOM     18  C   UNL     1      -3.042  12.589  20.858  0.00  0.00    +0.000 C 
ATOM     19  N   UNL     1      -2.595  11.856  19.692  0.00  0.00    +0.000 N 
ATOM     20  C   UNL     1      -3.337  11.638  18.550  0.00  0.00    +0.000 A 
ATOM     21  C   UNL     1      -4.658  11.986  18.218  0.00  0.00    +0.000 A 
ATOM     22  C   UNL     1      -5.136  11.648  16.949  0.00  0.00    +0.000 A 
ATOM     23  C   UNL     1      -4.323  10.989  16.034  0.00  0.00    +0.000 A 
ATOM     24  C   UNL     1      -3.011  10.637  16.374  0.00  0.00    +0.000 A 
ATOM     25  C   UNL     1      -2.507  10.958  17.653  0.00  0.00    +0.000 A 
ATOM     26  C   UNL     1      -1.249  10.738  18.306  0.00  0.00    +0.000 A 
ATOM     27  C   UNL     1      -0.039  10.113  17.921  0.00  0.00    +0.000 A 
ATOM     28  C   UNL     1       1.057  10.085  18.804  0.00  0.00    +0.000 A 
ATOM     29  C   UNL     1       0.929  10.657  20.075  0.00  0.00    +0.000 A 
ATOM     30  C   UNL     1      -0.258  11.276  20.478  0.00  0.00    +0.000 A 
ATOM     31  C   UNL     1      -1.333  11.307  19.576  0.00  0.00    +0.000 A 
ENDBRANCH  17  28
ENDBRANCH   1  17
TORSDOF 3
ENDMDL
MODEL 6
REMARK VINA RESULT:      -9.0      1.220      2.859
REMARK  Name = 
REMARK  4 active torsions:
REMARK  status: ('A' for Active; 'I' for Inactive)
REMARK    1  A    between atoms: C_1  and  N_2
REMARK    2  A    between atoms: C_11  and  C_12
REMARK    3  A    between atoms: C_12  and  N_13
REMARK    4  A    between atoms: N_16  and  C_17
REMARK                            x       y       z     vdW  Elec       q    Type
REMARK                         _______ _______ _______ _____ _____    ______ ____
ROOT
ATOM      1  N   UNL     1       1.734   8.747  19.648  0.00  0.00    +0.000 N 
ATOM      2  C   UNL     1       1.997   7.455  19.232  0.00  0.00    +0.000 C 
ATOM      3  O   UNL     1       2.028   7.160  18.043  0.00  0.00    +0.000 OA
ATOM      4  N   UNL     1       2.161   6.587  20.292  0.00  0.00    +0.000 N 
ATOM      5  H   UNL     1       2.203   9.052  20.488  0.00  0.00    +0.000 HD
ATOM      6  H   UNL     1       1.803   6.915  21.176  0.00  0.00    +0.000 HD
ENDROOT
BRANCH   4   7
ATOM      7  C   UNL     1       2.422   5.198  20.178  0.00  0.00    +0.000 A 
ATOM      8  C   UNL     1       1.467   4.214  20.487  0.00  0.00    +0.000 A 
ATOM      9  C   UNL     1       1.764   2.849  20.437  0.00  0.00    +0.000 A 
ATOM     10  C   UNL     1       3.027   2.401  20.059  0.00  0.00    +0.000 A 
ATOM     11  C   UNL     1       3.960   3.376  19.706  0.00  0.00    +0.000 A 
ATOM     12  N   UNL     1       5.259   3.263  19.290  0.00  0.00    +0.000 N 
ATOM     13  N   UNL     1       5.855   4.438  19.023  0.00  0.00    +0.000 NA
ATOM     14  C   UNL     1       4.903   5.333  19.304  0.00  0.00    +0.000 A 
ATOM     15  C   UNL     1       3.690   4.745  19.739  0.00  0.00    +0.000 A 
ATOM     16  H   UNL     1       5.798   2.411  19.169  0.00  0.00    +0.000 HD
ENDBRANCH   4   7
BRANCH   1  17
ATOM     17  C   UNL     1       1.538   9.740  18.611  0.00  0.00    +0.000 C 
BRANCH  17  28
ATOM     18  C   UNL     1      -4.922  11.411  17.864  0.00  0.00    +0.000 C 
ATOM     19  N   UNL     1      -3.769  11.696  18.694  0.00  0.00    +0.000 N 
ATOM     20  C   UNL     1      -3.763  12.514  19.804  0.00  0.00    +0.000 A 
ATOM     21  C   UNL     1      -4.775  13.296  20.388  0.00  0.00    +0.000 A 
ATOM     22  C   UNL     1      -4.474  14.014  21.549  0.00  0.00    +0.000 A 
ATOM     23  C   UNL     1      -3.206  13.951  22.116  0.00  0.00    +0.000 A 
ATOM     24  C   UNL     1      -2.201  13.178  21.525  0.00  0.00    +0.000 A 
ATOM     25  C   UNL     1      -2.476  12.451  20.345  0.00  0.00    +0.000 A 
ATOM     26  C   UNL     1      -1.691  11.596  19.503  0.00  0.00    +0.000 A 
ATOM     27  C   UNL     1      -0.345  11.158  19.529  0.00  0.00    +0.000 A 
ATOM     28  C   UNL     1       0.130  10.269  18.547  0.00  0.00    +0.000 A 
ATOM     29  C   UNL     1      -0.732   9.845  17.530  0.00  0.00    +0.000 A 
ATOM     30  C   UNL     1      -2.065  10.266  17.482  0.00  0.00    +0.000 A 
ATOM     31  C   UNL     1      -2.522  11.140  18.481  0.00  0.00    +0.000 A 
ENDBRANCH  17  28
ENDBRANCH   1  17
TORSDOF 3
ENDMDL
MODEL 7
REMARK VINA RESULT:      -8.9      1.520      2.957
REMARK  Name = 
REMARK  4 active torsions:
REMARK  status: ('A' for Active; 'I' for Inactive)
REMARK    1  A    between atoms: C_1  and  N_2
REMARK    2  A    between atoms: C_11  and  C_12
REMARK    3  A    between atoms: C_12  and  N_13
REMARK    4  A    between atoms: N_16  and  C_17
REMARK                            x       y       z     vdW  Elec       q    Type
REMARK                         _______ _______ _______ _____ _____    ______ ____
ROOT
ATOM      1  N   UNL     1       1.607   8.766  19.427  0.00  0.00    +0.000 N 
ATOM      2  C   UNL     1       2.159   7.811  18.594  0.00  0.00    +0.000 C 
ATOM      3  O   UNL     1       2.464   8.071  17.436  0.00  0.00    +0.000 OA
ATOM      4  N   UNL     1       2.264   6.579  19.207  0.00  0.00    +0.000 N 
ATOM      5  H   UNL     1       1.850   8.703  20.405  0.00  0.00    +0.000 HD
ATOM      6  H   UNL     1       1.695   6.458  20.032  0.00  0.00    +0.000 HD
ENDROOT
BRANCH   4   7
ATOM      7  C   UNL     1       2.774   5.404  18.599  0.00  0.00    +0.000 A 
ATOM      8  C   UNL     1       1.975   4.526  17.847  0.00  0.00    +0.000 A 
ATOM      9  C   UNL     1       2.478   3.335  17.314  0.00  0.00    +0.000 A 
ATOM     10  C   UNL     1       3.811   2.973  17.494  0.00  0.00    +0.000 A 
ATOM     11  C   UNL     1       4.615   3.869  18.199  0.00  0.00    +0.000 A 
ATOM     12  N   UNL     1       5.942   3.809  18.532  0.00  0.00    +0.000 N 
ATOM     13  N   UNL     1       6.384   4.877  19.218  0.00  0.00    +0.000 NA
ATOM     14  C   UNL     1       5.290   5.633  19.346  0.00  0.00    +0.000 A 
ATOM     15  C   UNL     1       4.143   5.067  18.737  0.00  0.00    +0.000 A 
ATOM     16  H   UNL     1       6.599   3.066  18.321  0.00  0.00    +0.000 HD
ENDBRANCH   4   7
BRANCH   1  17
ATOM     17  C   UNL     1       1.445  10.097  18.877  0.00  0.00    +0.000 C 
BRANCH  17  28
ATOM     18  C   UNL     1      -5.065  11.157  17.623  0.00  0.00    +0.000 C 
ATOM     19  N   UNL     1      -3.999  11.586  18.505  0.00  0.00    +0.000 N 
ATOM     20  C   UNL     1      -4.137  12.463  19.561  0.00  0.00    +0.000 A 
ATOM     21  C   UNL     1      -5.247  13.185  20.031  0.00  0.00    +0.000 A 
ATOM     22  C   UNL     1      -5.087  13.989  21.163  0.00  0.00    +0.000 A 
ATOM     23  C   UNL     1      -3.860  14.068  21.812  0.00  0.00    +0.000 A 
ATOM     24  C   UNL     1      -2.756  13.353  21.334  0.00  0.00    +0.000 A 
ATOM     25  C   UNL     1      -2.888  12.541  20.186  0.00  0.00    +0.000 A 
ATOM     26  C   UNL     1      -1.980  11.712  19.449  0.00  0.00    +0.000 A 
ATOM     27  C   UNL     1      -0.608  11.395  19.586  0.00  0.00    +0.000 A 
ATOM     28  C   UNL     1       0.006  10.498  18.692  0.00  0.00    +0.000 A 
ATOM     29  C   UNL     1      -0.747   9.944  17.651  0.00  0.00    +0.000 A 
ATOM     30  C   UNL     1      -2.103  10.245  17.493  0.00  0.00    +0.000 A 
ATOM     31  C   UNL     1      -2.699  11.130  18.405  0.00  0.00    +0.000 A 
ENDBRANCH  17  28
ENDBRANCH   1  17
TORSDOF 3
ENDMDL
MODEL 8
REMARK VINA RESULT:      -8.8      2.395      8.887
REMARK  Name = 
REMARK  4 active torsions:
REMARK  status: ('A' for Active; 'I' for Inactive)
REMARK    1  A    between atoms: C_1  and  N_2
REMARK    2  A    between atoms: C_11  and  C_12
REMARK    3  A    between atoms: C_12  and  N_13
REMARK    4  A    between atoms: N_16  and  C_17
REMARK                            x       y       z     vdW  Elec       q    Type
REMARK                         _______ _______ _______ _____ _____    ______ ____
ROOT
ATOM      1  N   UNL     1       0.915   9.668  19.435  0.00  0.00    +0.000 N 
ATOM      2  C   UNL     1      -0.440   9.939  19.487  0.00  0.00    +0.000 C 
ATOM      3  O   UNL     1      -1.153   9.470  20.366  0.00  0.00    +0.000 OA
ATOM      4  N   UNL     1      -0.856  10.729  18.435  0.00  0.00    +0.000 N 
ATOM      5  H   UNL     1       1.507  10.408  19.089  0.00  0.00    +0.000 HD
ATOM      6  H   UNL     1      -0.224  10.767  17.649  0.00  0.00    +0.000 HD
ENDROOT
BRANCH   4   7
ATOM      7  C   UNL     1      -2.189  11.156  18.211  0.00  0.00    +0.000 A 
ATOM      8  C   UNL     1      -2.928  11.881  19.161  0.00  0.00    +0.000 A 
ATOM      9  C   UNL     1      -4.265  12.233  18.953  0.00  0.00    +0.000 A 
ATOM     10  C   UNL     1      -4.924  11.890  17.774  0.00  0.00    +0.000 A 
ATOM     11  C   UNL     1      -4.176  11.212  16.812  0.00  0.00    +0.000 A 
ATOM     12  N   UNL     1      -4.523  10.750  15.570  0.00  0.00    +0.000 N 
ATOM     13  N   UNL     1      -3.521  10.145  14.910  0.00  0.00    +0.000 NA
ATOM     14  C   UNL     1      -2.505  10.203  15.776  0.00  0.00    +0.000 A 
ATOM     15  C   UNL     1      -2.839  10.853  16.989  0.00  0.00    +0.000 A 
ATOM     16  H   UNL     1      -5.428  10.817  15.117  0.00  0.00    +0.000 HD
ENDBRANCH   4   7
BRANCH   1  17
ATOM     17  C   UNL     1       1.456   8.838  20.493  0.00  0.00    +0.000 C 
BRANCH  17  28
ATOM     18  C   UNL     1       3.009   2.558  18.695  0.00  0.00    +0.000 C 
ATOM     19  N   UNL     1       3.316   3.935  18.370  0.00  0.00    +0.000 N 
ATOM     20  C   UNL     1       4.137   4.353  17.344  0.00  0.00    +0.000 A 
ATOM     21  C   UNL     1       4.902   3.630  16.412  0.00  0.00    +0.000 A 
ATOM     22  C   UNL     1       5.627   4.341  15.452  0.00  0.00    +0.000 A 
ATOM     23  C   UNL     1       5.588   5.730  15.415  0.00  0.00    +0.000 A 
ATOM     24  C   UNL     1       4.832   6.445  16.351  0.00  0.00    +0.000 A 
ATOM     25  C   UNL     1       4.097   5.751  17.338  0.00  0.00    +0.000 A 
ATOM     26  C   UNL     1       3.255   6.167  18.421  0.00  0.00    +0.000 A 
ATOM     27  C   UNL     1       2.842   7.427  18.916  0.00  0.00    +0.000 A 
ATOM     28  C   UNL     1       1.959   7.504  20.009  0.00  0.00    +0.000 A 
ATOM     29  C   UNL     1       1.517   6.325  20.619  0.00  0.00    +0.000 A 
ATOM     30  C   UNL     1       1.915   5.069  20.150  0.00  0.00    +0.000 A 
ATOM     31  C   UNL     1       2.782   5.015  19.048  0.00  0.00    +0.000 A 
ENDBRANCH  17  28
ENDBRANCH   1  17
TORSDOF 3
ENDMDL
MODEL 9
REMARK VINA RESULT:      -8.7      7.385      9.518
REMARK  Name = 
REMARK  4 active torsions:
REMARK  status: ('A' for Active; 'I' for Inactive)
REMARK    1  A    between atoms: C_1  and  N_2
REMARK    2  A    between atoms: C_11  and  C_12
REMARK    3  A    between atoms: C_12  and  N_13
REMARK    4  A    between atoms: N_16  and  C_17
REMARK                            x       y       z     vdW  Elec       q    Type
REMARK                         _______ _______ _______ _____ _____    ______ ____
ROOT
ATOM      1  N   UNL     1       7.947   9.135  17.685  0.00  0.00    +0.000 N 
ATOM      2  C   UNL     1       7.514   7.829  17.827  0.00  0.00    +0.000 C 
ATOM      3  O   UNL     1       8.079   7.046  18.581  0.00  0.00    +0.000 OA
ATOM      4  N   UNL     1       6.444   7.541  17.005  0.00  0.00    +0.000 N 
ATOM      5  H   UNL     1       7.233   9.828  17.517  0.00  0.00    +0.000 HD
ATOM      6  H   UNL     1       6.304   8.183  16.239  0.00  0.00    +0.000 HD
ENDROOT
BRANCH   4   7
ATOM      7  C   UNL     1       5.798   6.282  16.916  0.00  0.00    +0.000 A 
ATOM      8  C   UNL     1       4.829   5.854  17.840  0.00  0.00    +0.000 A 
ATOM      9  C   UNL     1       4.252   4.582  17.778  0.00  0.00    +0.000 A 
ATOM     10  C   UNL     1       4.607   3.680  16.778  0.00  0.00    +0.000 A 
ATOM     11  C   UNL     1       5.533   4.122  15.832  0.00  0.00    +0.000 A 
ATOM     12  N   UNL     1       6.070   3.491  14.743  0.00  0.00    +0.000 N 
ATOM     13  N   UNL     1       6.937   4.244  14.044  0.00  0.00    +0.000 NA
ATOM     14  C   UNL     1       6.969   5.389  14.732  0.00  0.00    +0.000 A 
ATOM     15  C   UNL     1       6.119   5.388  15.865  0.00  0.00    +0.000 A 
ATOM     16  H   UNL     1       5.886   2.546  14.423  0.00  0.00    +0.000 HD
ENDBRANCH   4   7
BRANCH   1  17
ATOM     17  C   UNL     1       9.073   9.541  18.501  0.00  0.00    +0.000 C 
BRANCH  17  28
ATOM     18  C   UNL     1      11.447  15.633  16.978  0.00  0.00    +0.000 C 
ATOM     19  N   UNL     1      10.306  14.986  17.591  0.00  0.00    +0.000 N 
ATOM     20  C   UNL     1       9.170  15.624  18.045  0.00  0.00    +0.000 A 
ATOM     21  C   UNL     1       8.826  16.986  18.094  0.00  0.00    +0.000 A 
ATOM     22  C   UNL     1       7.567  17.336  18.592  0.00  0.00    +0.000 A 
ATOM     23  C   UNL     1       6.676  16.360  19.023  0.00  0.00    +0.000 A 
ATOM     24  C   UNL     1       7.029  15.007  18.981  0.00  0.00    +0.000 A 
ATOM     25  C   UNL     1       8.298  14.626  18.491  0.00  0.00    +0.000 A 
ATOM     26  C   UNL     1       8.959  13.365  18.328  0.00  0.00    +0.000 A 
ATOM     27  C   UNL     1       8.597  12.023  18.598  0.00  0.00    +0.000 A 
ATOM     28  C   UNL     1       9.482  10.974  18.288  0.00  0.00    +0.000 A 
ATOM     29  C   UNL     1      10.733  11.271  17.736  0.00  0.00    +0.000 A 
ATOM     30  C   UNL     1      11.114  12.588  17.464  0.00  0.00    +0.000 A 
ATOM     31  C   UNL     1      10.210  13.619  17.766  0.00  0.00    +0.000 A 
ENDBRANCH  17  28
ENDBRANCH   1  17
TORSDOF 3
ENDMDL
