MODEL 1
REMARK VINA RESULT:      -6.9      0.000      0.000
REMARK  Name = 
REMARK  7 active torsions:
REMARK  status: ('A' for Active; 'I' for Inactive)
REMARK    1  A    between atoms: C_1  and  C_2
REMARK    2  A    between atoms: C_2  and  C_3
REMARK    3  A    between atoms: C_2  and  O_4
REMARK    4  A    between atoms: C_2  and  C_5
REMARK    5  A    between atoms: C_6  and  C_7
REMARK    6  A    between atoms: C_11  and  C_12
REMARK    7  A    between atoms: C_11  and  O_13
REMARK                            x       y       z     vdW  Elec       q    Type
REMARK                         _______ _______ _______ _____ _____    ______ ____
ROOT
ATOM      1  C   UNL     1       4.649   5.584  18.667  0.00  0.00    +0.000 C 
ATOM      2  C   UNL     1       4.422   6.213  17.510  0.00  0.00    +0.000 C 
ATOM      3  C   UNL     1       5.498   6.612  16.591  0.00  0.00    +0.000 C 
ATOM      4  O   UNL     1       5.192   7.047  15.481  0.00  0.00    +0.000 OA
ATOM      5  C   UNL     1       6.956   6.502  17.022  0.00  0.00    +0.000 C 
ATOM      6  C   UNL     1       7.494   7.914  17.270  0.00  0.00    +0.000 C 
ATOM      7  C   UNL     1       7.219   5.591  18.213  0.00  0.00    +0.000 C 
ATOM      8  C   UNL     1       6.042   5.224  19.077  0.00  0.00    +0.000 C 
ATOM      9  O   UNL     1       6.231   4.609  20.130  0.00  0.00    +0.000 OA
ENDROOT
BRANCH   1  11
ATOM     10  C   UNL     1       2.868   4.012  19.378  0.00  0.00    +0.000 C 
ATOM     11  C   UNL     1       3.556   5.157  19.524  0.00  0.00    +0.000 C 
BRANCH  10  13
ATOM     12  C   UNL     1       2.144   2.878  21.484  0.00  0.00    +0.000 C 
ATOM     13  C   UNL     1       1.679   3.591  20.214  0.00  0.00    +0.000 C 
ATOM     14  C   UNL     1       0.766   2.684  19.385  0.00  0.00    +0.000 C 
BRANCH  13  15
ATOM     15  O   UNL     1       0.937   4.744  20.605  0.00  0.00    +0.000 OA
ATOM     16  H   UNL     1       1.030   5.411  19.907  0.00  0.00    +0.000 HD
ENDBRANCH  13  15
ENDBRANCH  10  13
ENDBRANCH   1  11
BRANCH   5  17
ATOM     17  O   UNL     1       7.673   5.970  15.894  0.00  0.00    +0.000 OA
ATOM     18  H   UNL     1       7.883   6.730  15.313  0.00  0.00    +0.000 HD
ENDBRANCH   5  17
TORSDOF 4
ENDMDL
MODEL 2
REMARK VINA RESULT:      -6.9      1.916      6.220
REMARK  Name = 
REMARK  7 active torsions:
REMARK  status: ('A' for Active; 'I' for Inactive)
REMARK    1  A    between atoms: C_1  and  C_2
REMARK    2  A    between atoms: C_2  and  C_3
REMARK    3  A    between atoms: C_2  and  O_4
REMARK    4  A    between atoms: C_2  and  C_5
REMARK    5  A    between atoms: C_6  and  C_7
REMARK    6  A    between atoms: C_11  and  C_12
REMARK    7  A    between atoms: C_11  and  O_13
REMARK                            x       y       z     vdW  Elec       q    Type
REMARK                         _______ _______ _______ _____ _____    ______ ____
ROOT
ATOM      1  C   UNL     1       3.710   4.448  18.867  0.00  0.00    +0.000 C 
ATOM      2  C   UNL     1       3.438   3.147  18.731  0.00  0.00    +0.000 C 
ATOM      3  C   UNL     1       2.230   2.519  19.287  0.00  0.00    +0.000 C 
ATOM      4  O   UNL     1       1.982   1.351  18.986  0.00  0.00    +0.000 OA
ATOM      5  C   UNL     1       1.324   3.301  20.231  0.00  0.00    +0.000 C 
ATOM      6  C   UNL     1       1.507   2.746  21.646  0.00  0.00    +0.000 C 
ATOM      7  C   UNL     1       1.497   4.813  20.201  0.00  0.00    +0.000 C 
ATOM      8  C   UNL     1       2.760   5.353  19.586  0.00  0.00    +0.000 C 
ATOM      9  O   UNL     1       3.007   6.559  19.670  0.00  0.00    +0.000 OA
ENDROOT
BRANCH   1  11
ATOM     10  C   UNL     1       5.771   4.385  17.489  0.00  0.00    +0.000 C 
ATOM     11  C   UNL     1       4.886   5.043  18.256  0.00  0.00    +0.000 C 
BRANCH  10  13
ATOM     12  C   UNL     1       7.272   6.383  17.456  0.00  0.00    +0.000 C 
ATOM     13  C   UNL     1       7.039   4.974  16.911  0.00  0.00    +0.000 C 
ATOM     14  C   UNL     1       6.945   4.990  15.383  0.00  0.00    +0.000 C 
BRANCH  13  15
ATOM     15  O   UNL     1       8.154   4.169  17.286  0.00  0.00    +0.000 OA
ATOM     16  H   UNL     1       8.242   3.455  16.635  0.00  0.00    +0.000 HD
ENDBRANCH  13  15
ENDBRANCH  10  13
ENDBRANCH   1  11
BRANCH   5  17
ATOM     17  O   UNL     1      -0.027   3.004  19.834  0.00  0.00    +0.000 OA
ATOM     18  H   UNL     1      -0.187   2.066  20.067  0.00  0.00    +0.000 HD
ENDBRANCH   5  17
TORSDOF 4
ENDMDL
MODEL 3
REMARK VINA RESULT:      -6.8      0.948      1.225
REMARK  Name = 
REMARK  7 active torsions:
REMARK  status: ('A' for Active; 'I' for Inactive)
REMARK    1  A    between atoms: C_1  and  C_2
REMARK    2  A    between atoms: C_2  and  C_3
REMARK    3  A    between atoms: C_2  and  O_4
REMARK    4  A    between atoms: C_2  and  C_5
REMARK    5  A    between atoms: C_6  and  C_7
REMARK    6  A    between atoms: C_11  and  C_12
REMARK    7  A    between atoms: C_11  and  O_13
REMARK                            x       y       z     vdW  Elec       q    Type
REMARK                         _______ _______ _______ _____ _____    ______ ____
ROOT
ATOM      1  C   UNL     1       4.462   5.282  18.292  0.00  0.00    +0.000 C 
ATOM      2  C   UNL     1       4.315   6.034  17.198  0.00  0.00    +0.000 C 
ATOM      3  C   UNL     1       5.447   6.466  16.364  0.00  0.00    +0.000 C 
ATOM      4  O   UNL     1       5.210   7.026  15.294  0.00  0.00    +0.000 OA
ATOM      5  C   UNL     1       6.878   6.238  16.836  0.00  0.00    +0.000 C 
ATOM      6  C   UNL     1       7.473   7.588  17.246  0.00  0.00    +0.000 C 
ATOM      7  C   UNL     1       7.046   5.200  17.936  0.00  0.00    +0.000 C 
ATOM      8  C   UNL     1       5.818   4.810  18.714  0.00  0.00    +0.000 C 
ATOM      9  O   UNL     1       5.933   4.084  19.705  0.00  0.00    +0.000 OA
ENDROOT
BRANCH   1  11
ATOM     10  C   UNL     1       2.801   3.588  19.013  0.00  0.00    +0.000 C 
ATOM     11  C   UNL     1       3.315   4.828  19.059  0.00  0.00    +0.000 C 
BRANCH  10  13
ATOM     12  C   UNL     1       0.621   2.386  18.794  0.00  0.00    +0.000 C 
ATOM     13  C   UNL     1       1.561   3.125  19.746  0.00  0.00    +0.000 C 
ATOM     14  C   UNL     1       0.859   4.330  20.377  0.00  0.00    +0.000 C 
BRANCH  13  15
ATOM     15  O   UNL     1       1.930   2.221  20.785  0.00  0.00    +0.000 OA
ATOM     16  H   UNL     1       2.858   2.390  21.014  0.00  0.00    +0.000 HD
ENDBRANCH  13  15
ENDBRANCH  10  13
ENDBRANCH   1  11
BRANCH   5  17
ATOM     17  O   UNL     1       7.616   5.785  15.687  0.00  0.00    +0.000 OA
ATOM     18  H   UNL     1       8.294   6.468  15.503  0.00  0.00    +0.000 HD
ENDBRANCH   5  17
TORSDOF 4
ENDMDL
MODEL 4
REMARK VINA RESULT:      -6.7      1.279      2.265
REMARK  Name = 
REMARK  7 active torsions:
REMARK  status: ('A' for Active; 'I' for Inactive)
REMARK    1  A    between atoms: C_1  and  C_2
REMARK    2  A    between atoms: C_2  and  C_3
REMARK    3  A    between atoms: C_2  and  O_4
REMARK    4  A    between atoms: C_2  and  C_5
REMARK    5  A    between atoms: C_6  and  C_7
REMARK    6  A    between atoms: C_11  and  C_12
REMARK    7  A    between atoms: C_11  and  O_13
REMARK                            x       y       z     vdW  Elec       q    Type
REMARK                         _______ _______ _______ _____ _____    ______ ____
ROOT
ATOM      1  C   UNL     1       4.682   5.139  18.510  0.00  0.00    +0.000 C 
ATOM      2  C   UNL     1       5.871   4.528  18.541  0.00  0.00    +0.000 C 
ATOM      3  C   UNL     1       6.970   4.869  17.627  0.00  0.00    +0.000 C 
ATOM      4  O   UNL     1       8.077   4.366  17.823  0.00  0.00    +0.000 OA
ATOM      5  C   UNL     1       6.728   5.810  16.452  0.00  0.00    +0.000 C 
ATOM      6  C   UNL     1       6.742   4.985  15.162  0.00  0.00    +0.000 C 
ATOM      7  C   UNL     1       5.475   6.668  16.549  0.00  0.00    +0.000 C 
ATOM      8  C   UNL     1       4.420   6.244  17.536  0.00  0.00    +0.000 C 
ATOM      9  O   UNL     1       3.331   6.824  17.546  0.00  0.00    +0.000 OA
ENDROOT
BRANCH   1  11
ATOM     10  C   UNL     1       2.780   3.787  19.349  0.00  0.00    +0.000 C 
ATOM     11  C   UNL     1       3.639   4.814  19.467  0.00  0.00    +0.000 C 
BRANCH  10  13
ATOM     12  C   UNL     1       2.165   2.807  21.564  0.00  0.00    +0.000 C 
ATOM     13  C   UNL     1       1.641   3.483  20.298  0.00  0.00    +0.000 C 
ATOM     14  C   UNL     1       0.611   2.596  19.593  0.00  0.00    +0.000 C 
BRANCH  13  15
ATOM     15  O   UNL     1       1.002   4.698  20.683  0.00  0.00    +0.000 OA
ATOM     16  H   UNL     1       0.282   4.478  21.294  0.00  0.00    +0.000 HD
ENDBRANCH  13  15
ENDBRANCH  10  13
ENDBRANCH   1  11
BRANCH   5  17
ATOM     17  O   UNL     1       7.864   6.692  16.399  0.00  0.00    +0.000 OA
ATOM     18  H   UNL     1       7.831   7.240  17.210  0.00  0.00    +0.000 HD
ENDBRANCH   5  17
TORSDOF 4
ENDMDL
MODEL 5
REMARK VINA RESULT:      -6.7      0.900      1.205
REMARK  Name = 
REMARK  7 active torsions:
REMARK  status: ('A' for Active; 'I' for Inactive)
REMARK    1  A    between atoms: C_1  and  C_2
REMARK    2  A    between atoms: C_2  and  C_3
REMARK    3  A    between atoms: C_2  and  O_4
REMARK    4  A    between atoms: C_2  and  C_5
REMARK    5  A    between atoms: C_6  and  C_7
REMARK    6  A    between atoms: C_11  and  C_12
REMARK    7  A    between atoms: C_11  and  O_13
REMARK                            x       y       z     vdW  Elec       q    Type
REMARK                         _______ _______ _______ _____ _____    ______ ____
ROOT
ATOM      1  C   UNL     1       4.748   5.433  18.641  0.00  0.00    +0.000 C 
ATOM      2  C   UNL     1       4.458   6.013  17.472  0.00  0.00    +0.000 C 
ATOM      3  C   UNL     1       5.485   6.542  16.564  0.00  0.00    +0.000 C 
ATOM      4  O   UNL     1       5.142   6.921  15.444  0.00  0.00    +0.000 OA
ATOM      5  C   UNL     1       6.938   6.633  17.019  0.00  0.00    +0.000 C 
ATOM      6  C   UNL     1       7.278   8.107  17.256  0.00  0.00    +0.000 C 
ATOM      7  C   UNL     1       7.300   5.779  18.225  0.00  0.00    +0.000 C 
ATOM      8  C   UNL     1       6.169   5.266  19.076  0.00  0.00    +0.000 C 
ATOM      9  O   UNL     1       6.422   4.694  20.139  0.00  0.00    +0.000 OA
ENDROOT
BRANCH   1  11
ATOM     10  C   UNL     1       3.130   3.673  19.302  0.00  0.00    +0.000 C 
ATOM     11  C   UNL     1       3.708   4.872  19.486  0.00  0.00    +0.000 C 
BRANCH  10  13
ATOM     12  C   UNL     1       0.820   4.088  20.158  0.00  0.00    +0.000 C 
ATOM     13  C   UNL     1       1.994   3.110  20.128  0.00  0.00    +0.000 C 
ATOM     14  C   UNL     1       2.490   2.812  21.545  0.00  0.00    +0.000 C 
BRANCH  13  15
ATOM     15  O   UNL     1       1.535   1.894  19.544  0.00  0.00    +0.000 OA
ATOM     16  H   UNL     1       2.234   1.559  18.960  0.00  0.00    +0.000 HD
ENDBRANCH  13  15
ENDBRANCH  10  13
ENDBRANCH   1  11
BRANCH   5  17
ATOM     17  O   UNL     1       7.738   6.191  15.908  0.00  0.00    +0.000 OA
ATOM     18  H   UNL     1       8.670   6.383  16.140  0.00  0.00    +0.000 HD
ENDBRANCH   5  17
TORSDOF 4
ENDMDL
MODEL 6
REMARK VINA RESULT:      -6.7      2.064      6.217
REMARK  Name = 
REMARK  7 active torsions:
REMARK  status: ('A' for Active; 'I' for Inactive)
REMARK    1  A    between atoms: C_1  and  C_2
REMARK    2  A    between atoms: C_2  and  C_3
REMARK    3  A    between atoms: C_2  and  O_4
REMARK    4  A    between atoms: C_2  and  C_5
REMARK    5  A    between atoms: C_6  and  C_7
REMARK    6  A    between atoms: C_11  and  C_12
REMARK    7  A    between atoms: C_11  and  O_13
REMARK                            x       y       z     vdW  Elec       q    Type
REMARK                         _______ _______ _______ _____ _____    ______ ____
ROOT
ATOM      1  C   UNL     1       3.393   4.501  18.109  0.00  0.00    +0.000 C 
ATOM      2  C   UNL     1       3.051   3.209  18.115  0.00  0.00    +0.000 C 
ATOM      3  C   UNL     1       2.145   2.625  19.115  0.00  0.00    +0.000 C 
ATOM      4  O   UNL     1       1.764   1.465  18.958  0.00  0.00    +0.000 OA
ATOM      5  C   UNL     1       1.710   3.443  20.326  0.00  0.00    +0.000 C 
ATOM      6  C   UNL     1       2.423   2.890  21.563  0.00  0.00    +0.000 C 
ATOM      7  C   UNL     1       1.900   4.947  20.202  0.00  0.00    +0.000 C 
ATOM      8  C   UNL     1       2.832   5.442  19.128  0.00  0.00    +0.000 C 
ATOM      9  O   UNL     1       3.126   6.639  19.085  0.00  0.00    +0.000 OA
ENDROOT
BRANCH   1  11
ATOM     10  C   UNL     1       5.019   4.329  16.244  0.00  0.00    +0.000 C 
ATOM     11  C   UNL     1       4.246   5.053  17.071  0.00  0.00    +0.000 C 
BRANCH  10  13
ATOM     12  C   UNL     1       5.881   4.098  13.910  0.00  0.00    +0.000 C 
ATOM     13  C   UNL     1       5.970   4.894  15.212  0.00  0.00    +0.000 C 
ATOM     14  C   UNL     1       7.397   4.874  15.765  0.00  0.00    +0.000 C 
BRANCH  13  15
ATOM     15  O   UNL     1       5.616   6.245  14.924  0.00  0.00    +0.000 OA
ATOM     16  H   UNL     1       4.675   6.265  14.688  0.00  0.00    +0.000 HD
ENDBRANCH  13  15
ENDBRANCH  10  13
ENDBRANCH   1  11
BRANCH   5  17
ATOM     17  O   UNL     1       0.305   3.189  20.502  0.00  0.00    +0.000 OA
ATOM     18  H   UNL     1       0.024   2.630  19.749  0.00  0.00    +0.000 HD
ENDBRANCH   5  17
TORSDOF 4
ENDMDL
MODEL 7
REMARK VINA RESULT:      -6.6      3.563      6.099
REMARK  Name = 
REMARK  7 active torsions:
REMARK  status: ('A' for Active; 'I' for Inactive)
REMARK    1  A    between atoms: C_1  and  C_2
REMARK    2  A    between atoms: C_2  and  C_3
REMARK    3  A    between atoms: C_2  and  O_4
REMARK    4  A    between atoms: C_2  and  C_5
REMARK    5  A    between atoms: C_6  and  C_7
REMARK    6  A    between atoms: C_11  and  C_12
REMARK    7  A    between atoms: C_11  and  O_13
REMARK                            x       y       z     vdW  Elec       q    Type
REMARK                         _______ _______ _______ _____ _____    ______ ____
ROOT
ATOM      1  C   UNL     1       5.598   4.310  15.927  0.00  0.00    +0.000 C 
ATOM      2  C   UNL     1       4.309   4.368  16.275  0.00  0.00    +0.000 C 
ATOM      3  C   UNL     1       3.863   4.572  17.661  0.00  0.00    +0.000 C 
ATOM      4  O   UNL     1       2.665   4.765  17.871  0.00  0.00    +0.000 OA
ATOM      5  C   UNL     1       4.868   4.525  18.806  0.00  0.00    +0.000 C 
ATOM      6  C   UNL     1       4.649   3.226  19.587  0.00  0.00    +0.000 C 
ATOM      7  C   UNL     1       6.326   4.691  18.404  0.00  0.00    +0.000 C 
ATOM      8  C   UNL     1       6.672   4.483  16.954  0.00  0.00    +0.000 C 
ATOM      9  O   UNL     1       7.857   4.466  16.610  0.00  0.00    +0.000 OA
ENDROOT
BRANCH   1  11
ATOM     10  C   UNL     1       5.302   3.502  13.601  0.00  0.00    +0.000 C 
ATOM     11  C   UNL     1       6.001   4.162  14.539  0.00  0.00    +0.000 C 
BRANCH  10  13
ATOM     12  C   UNL     1       6.966   4.139  11.849  0.00  0.00    +0.000 C 
ATOM     13  C   UNL     1       5.747   3.275  12.173  0.00  0.00    +0.000 C 
ATOM     14  C   UNL     1       4.590   3.588  11.220  0.00  0.00    +0.000 C 
BRANCH  13  15
ATOM     15  O   UNL     1       6.119   1.910  11.999  0.00  0.00    +0.000 OA
ATOM     16  H   UNL     1       6.848   1.718  12.609  0.00  0.00    +0.000 HD
ENDBRANCH  13  15
ENDBRANCH  10  13
ENDBRANCH   1  11
BRANCH   5  17
ATOM     17  O   UNL     1       4.528   5.608  19.689  0.00  0.00    +0.000 OA
ATOM     18  H   UNL     1       4.749   5.311  20.596  0.00  0.00    +0.000 HD
ENDBRANCH   5  17
TORSDOF 4
ENDMDL
MODEL 8
REMARK VINA RESULT:      -6.6      1.535      2.540
REMARK  Name = 
REMARK  7 active torsions:
REMARK  status: ('A' for Active; 'I' for Inactive)
REMARK    1  A    between atoms: C_1  and  C_2
REMARK    2  A    between atoms: C_2  and  C_3
REMARK    3  A    between atoms: C_2  and  O_4
REMARK    4  A    between atoms: C_2  and  C_5
REMARK    5  A    between atoms: C_6  and  C_7
REMARK    6  A    between atoms: C_11  and  C_12
REMARK    7  A    between atoms: C_11  and  O_13
REMARK                            x       y       z     vdW  Elec       q    Type
REMARK                         _______ _______ _______ _____ _____    ______ ____
ROOT
ATOM      1  C   UNL     1       4.691   5.035  18.463  0.00  0.00    +0.000 C 
ATOM      2  C   UNL     1       5.894   4.453  18.493  0.00  0.00    +0.000 C 
ATOM      3  C   UNL     1       6.993   4.837  17.596  0.00  0.00    +0.000 C 
ATOM      4  O   UNL     1       8.110   4.358  17.792  0.00  0.00    +0.000 OA
ATOM      5  C   UNL     1       6.738   5.796  16.437  0.00  0.00    +0.000 C 
ATOM      6  C   UNL     1       6.783   4.997  15.132  0.00  0.00    +0.000 C 
ATOM      7  C   UNL     1       5.464   6.621  16.540  0.00  0.00    +0.000 C 
ATOM      8  C   UNL     1       4.411   6.153  17.508  0.00  0.00    +0.000 C 
ATOM      9  O   UNL     1       3.308   6.706  17.519  0.00  0.00    +0.000 OA
ENDROOT
BRANCH   1  11
ATOM     10  C   UNL     1       2.971   3.506  19.385  0.00  0.00    +0.000 C 
ATOM     11  C   UNL     1       3.648   4.666  19.403  0.00  0.00    +0.000 C 
BRANCH  10  13
ATOM     12  C   UNL     1       0.883   4.328  20.485  0.00  0.00    +0.000 C 
ATOM     13  C   UNL     1       1.830   3.141  20.310  0.00  0.00    +0.000 C 
ATOM     14  C   UNL     1       2.391   2.688  21.660  0.00  0.00    +0.000 C 
BRANCH  13  15
ATOM     15  O   UNL     1       1.084   2.065  19.747  0.00  0.00    +0.000 OA
ATOM     16  H   UNL     1       1.711   1.436  19.356  0.00  0.00    +0.000 HD
ENDBRANCH  13  15
ENDBRANCH  10  13
ENDBRANCH   1  11
BRANCH   5  17
ATOM     17  O   UNL     1       7.852   6.706  16.412  0.00  0.00    +0.000 OA
ATOM     18  H   UNL     1       8.176   6.726  15.488  0.00  0.00    +0.000 HD
ENDBRANCH   5  17
TORSDOF 4
ENDMDL
MODEL 9
REMARK VINA RESULT:      -6.5      1.843      6.124
REMARK  Name = 
REMARK  7 active torsions:
REMARK  status: ('A' for Active; 'I' for Inactive)
REMARK    1  A    between atoms: C_1  and  C_2
REMARK    2  A    between atoms: C_2  and  C_3
REMARK    3  A    between atoms: C_2  and  O_4
REMARK    4  A    between atoms: C_2  and  C_5
REMARK    5  A    between atoms: C_6  and  C_7
REMARK    6  A    between atoms: C_11  and  C_12
REMARK    7  A    between atoms: C_11  and  O_13
REMARK                            x       y       z     vdW  Elec       q    Type
REMARK                         _______ _______ _______ _____ _____    ______ ____
ROOT
ATOM      1  C   UNL     1       4.195   4.141  19.433  0.00  0.00    +0.000 C 
ATOM      2  C   UNL     1       3.168   4.970  19.643  0.00  0.00    +0.000 C 
ATOM      3  C   UNL     1       1.897   4.536  20.242  0.00  0.00    +0.000 C 
ATOM      4  O   UNL     1       1.063   5.391  20.538  0.00  0.00    +0.000 OA
ATOM      5  C   UNL     1       1.623   3.053  20.467  0.00  0.00    +0.000 C 
ATOM      6  C   UNL     1       0.578   2.595  19.445  0.00  0.00    +0.000 C 
ATOM      7  C   UNL     1       2.848   2.151  20.450  0.00  0.00    +0.000 C 
ATOM      8  C   UNL     1       4.106   2.703  19.835  0.00  0.00    +0.000 C 
ATOM      9  O   UNL     1       5.077   1.960  19.670  0.00  0.00    +0.000 OA
ENDROOT
BRANCH   1  11
ATOM     10  C   UNL     1       5.775   4.632  17.585  0.00  0.00    +0.000 C 
ATOM     11  C   UNL     1       5.455   4.620  18.890  0.00  0.00    +0.000 C 
BRANCH  10  13
ATOM     12  C   UNL     1       7.485   6.452  17.507  0.00  0.00    +0.000 C 
ATOM     13  C   UNL     1       7.111   5.055  17.014  0.00  0.00    +0.000 C 
ATOM     14  C   UNL     1       7.048   5.017  15.485  0.00  0.00    +0.000 C 
BRANCH  13  15
ATOM     15  O   UNL     1       8.124   4.151  17.448  0.00  0.00    +0.000 OA
ATOM     16  H   UNL     1       8.424   4.436  18.325  0.00  0.00    +0.000 HD
ENDBRANCH  13  15
ENDBRANCH  10  13
ENDBRANCH   1  11
BRANCH   5  17
ATOM     17  O   UNL     1       1.014   2.947  21.766  0.00  0.00    +0.000 OA
ATOM     18  H   UNL     1       0.070   2.733  21.617  0.00  0.00    +0.000 HD
ENDBRANCH   5  17
TORSDOF 4
ENDMDL
