MODEL 1
REMARK VINA RESULT:      -6.6      0.000      0.000
REMARK  Name = 
REMARK  4 active torsions:
REMARK  status: ('A' for Active; 'I' for Inactive)
REMARK    1  A    between atoms: C_1  and  C_2
REMARK    2  A    between atoms: C_2  and  C_3
REMARK    3  A    between atoms: C_3  and  N_4
REMARK    4  A    between atoms: C_10  and  C_11
REMARK                            x       y       z     vdW  Elec       q    Type
REMARK                         _______ _______ _______ _____ _____    ______ ____
ROOT
ATOM      1  N   UNL     1       6.201   3.554  13.962  0.00  0.00    +0.000 N 
ATOM      2  C   UNL     1       6.762   4.548  14.735  0.00  0.00    +0.000 C 
ATOM      3  O   UNL     1       7.425   5.462  14.258  0.00  0.00    +0.000 OA
ATOM      4  N   UNL     1       6.522   4.342  16.071  0.00  0.00    +0.000 N 
ATOM      5  C   UNL     1       7.044   5.186  17.029  0.00  0.00    +0.000 A 
ATOM      6  C   UNL     1       7.217   6.586  16.955  0.00  0.00    +0.000 A 
ATOM      7  C   UNL     1       7.855   6.914  18.123  0.00  0.00    +0.000 A 
ATOM      8  C   UNL     1       8.389   8.167  18.679  0.00  0.00    +0.000 C 
ATOM      9  O   UNL     1       8.011   5.792  18.876  0.00  0.00    +0.000 OA
ATOM     10  N   UNL     1       7.454   4.712  18.211  0.00  0.00    +0.000 NA
ATOM     11  H   UNL     1       5.272   3.274  14.255  0.00  0.00    +0.000 HD
ATOM     12  H   UNL     1       6.463   3.378  16.368  0.00  0.00    +0.000 HD
ENDROOT
BRANCH   1  13
ATOM     13  C   UNL     1       6.497   3.520  12.546  0.00  0.00    +0.000 C 
BRANCH  13  15
ATOM     14  C   UNL     1       4.271   3.177  11.367  0.00  0.00    +0.000 C 
ATOM     15  C   UNL     1       5.605   2.567  11.768  0.00  0.00    +0.000 C 
ENDBRANCH  13  15
ENDBRANCH   1  13
TORSDOF 2
ENDMDL
MODEL 2
REMARK VINA RESULT:      -6.5      3.708      5.321
REMARK  Name = 
REMARK  4 active torsions:
REMARK  status: ('A' for Active; 'I' for Inactive)
REMARK    1  A    between atoms: C_1  and  C_2
REMARK    2  A    between atoms: C_2  and  C_3
REMARK    3  A    between atoms: C_3  and  N_4
REMARK    4  A    between atoms: C_10  and  C_11
REMARK                            x       y       z     vdW  Elec       q    Type
REMARK                         _______ _______ _______ _____ _____    ______ ____
ROOT
ATOM      1  N   UNL     1       4.361   2.599  18.966  0.00  0.00    +0.000 N 
ATOM      2  C   UNL     1       4.863   3.865  18.749  0.00  0.00    +0.000 C 
ATOM      3  O   UNL     1       4.267   4.879  19.089  0.00  0.00    +0.000 OA
ATOM      4  N   UNL     1       6.058   3.823  18.074  0.00  0.00    +0.000 N 
ATOM      5  C   UNL     1       6.708   4.980  17.700  0.00  0.00    +0.000 A 
ATOM      6  C   UNL     1       6.791   6.200  18.407  0.00  0.00    +0.000 A 
ATOM      7  C   UNL     1       7.463   7.042  17.559  0.00  0.00    +0.000 A 
ATOM      8  C   UNL     1       7.844   8.462  17.619  0.00  0.00    +0.000 C 
ATOM      9  O   UNL     1       7.808   6.359  16.435  0.00  0.00    +0.000 OA
ATOM     10  N   UNL     1       7.379   5.047  16.544  0.00  0.00    +0.000 NA
ATOM     11  H   UNL     1       5.058   1.918  19.246  0.00  0.00    +0.000 HD
ATOM     12  H   UNL     1       6.171   3.063  17.419  0.00  0.00    +0.000 HD
ENDROOT
BRANCH   1  13
ATOM     13  C   UNL     1       3.029   2.460  19.514  0.00  0.00    +0.000 C 
BRANCH  13  15
ATOM     14  C   UNL     1       1.585   2.740  21.588  0.00  0.00    +0.000 C 
ATOM     15  C   UNL     1       2.988   2.563  21.030  0.00  0.00    +0.000 C 
ENDBRANCH  13  15
ENDBRANCH   1  13
TORSDOF 2
ENDMDL
MODEL 3
REMARK VINA RESULT:      -6.5      3.566      4.925
REMARK  Name = 
REMARK  4 active torsions:
REMARK  status: ('A' for Active; 'I' for Inactive)
REMARK    1  A    between atoms: C_1  and  C_2
REMARK    2  A    between atoms: C_2  and  C_3
REMARK    3  A    between atoms: C_3  and  N_4
REMARK    4  A    between atoms: C_10  and  C_11
REMARK                            x       y       z     vdW  Elec       q    Type
REMARK                         _______ _______ _______ _____ _____    ______ ____
ROOT
ATOM      1  N   UNL     1       4.375   2.676  19.480  0.00  0.00    +0.000 N 
ATOM      2  C   UNL     1       4.911   3.908  19.173  0.00  0.00    +0.000 C 
ATOM      3  O   UNL     1       4.419   4.959  19.563  0.00  0.00    +0.000 OA
ATOM      4  N   UNL     1       6.007   3.790  18.353  0.00  0.00    +0.000 N 
ATOM      5  C   UNL     1       6.664   4.903  17.873  0.00  0.00    +0.000 A 
ATOM      6  C   UNL     1       6.901   6.127  18.537  0.00  0.00    +0.000 A 
ATOM      7  C   UNL     1       7.503   6.917  17.593  0.00  0.00    +0.000 A 
ATOM      8  C   UNL     1       7.965   8.314  17.572  0.00  0.00    +0.000 C 
ATOM      9  O   UNL     1       7.665   6.199  16.449  0.00  0.00    +0.000 OA
ATOM     10  N   UNL     1       7.184   4.914  16.641  0.00  0.00    +0.000 NA
ATOM     11  H   UNL     1       5.064   1.961  19.684  0.00  0.00    +0.000 HD
ATOM     12  H   UNL     1       5.993   3.015  17.705  0.00  0.00    +0.000 HD
ENDROOT
BRANCH   1  13
ATOM     13  C   UNL     1       3.118   2.620  20.196  0.00  0.00    +0.000 C 
BRANCH  13  15
ATOM     14  C   UNL     1       1.378   3.074  18.399  0.00  0.00    +0.000 C 
ATOM     15  C   UNL     1       1.976   2.062  19.364  0.00  0.00    +0.000 C 
ENDBRANCH  13  15
ENDBRANCH   1  13
TORSDOF 2
ENDMDL
MODEL 4
REMARK VINA RESULT:      -6.3      4.137      6.119
REMARK  Name = 
REMARK  4 active torsions:
REMARK  status: ('A' for Active; 'I' for Inactive)
REMARK    1  A    between atoms: C_1  and  C_2
REMARK    2  A    between atoms: C_2  and  C_3
REMARK    3  A    between atoms: C_3  and  N_4
REMARK    4  A    between atoms: C_10  and  C_11
REMARK                            x       y       z     vdW  Elec       q    Type
REMARK                         _______ _______ _______ _____ _____    ______ ____
ROOT
ATOM      1  N   UNL     1       6.612   4.934  17.481  0.00  0.00    +0.000 N 
ATOM      2  C   UNL     1       5.552   4.722  18.336  0.00  0.00    +0.000 C 
ATOM      3  O   UNL     1       4.793   5.619  18.682  0.00  0.00    +0.000 OA
ATOM      4  N   UNL     1       5.505   3.419  18.765  0.00  0.00    +0.000 N 
ATOM      5  C   UNL     1       4.556   3.001  19.675  0.00  0.00    +0.000 A 
ATOM      6  C   UNL     1       3.210   3.413  19.781  0.00  0.00    +0.000 A 
ATOM      7  C   UNL     1       2.742   2.770  20.897  0.00  0.00    +0.000 A 
ATOM      8  C   UNL     1       1.462   2.782  21.623  0.00  0.00    +0.000 C 
ATOM      9  O   UNL     1       3.728   1.980  21.403  0.00  0.00    +0.000 OA
ATOM     10  N   UNL     1       4.854   2.085  20.604  0.00  0.00    +0.000 NA
ATOM     11  H   UNL     1       6.758   4.191  16.807  0.00  0.00    +0.000 HD
ATOM     12  H   UNL     1       6.395   2.952  18.862  0.00  0.00    +0.000 HD
ENDROOT
BRANCH   1  13
ATOM     13  C   UNL     1       6.913   6.287  17.063  0.00  0.00    +0.000 C 
BRANCH  13  15
ATOM     14  C   UNL     1       7.944   8.515  17.723  0.00  0.00    +0.000 C 
ATOM     15  C   UNL     1       7.799   7.036  18.044  0.00  0.00    +0.000 C 
ENDBRANCH  13  15
ENDBRANCH   1  13
TORSDOF 2
ENDMDL
MODEL 5
REMARK VINA RESULT:      -6.1      4.021      5.940
REMARK  Name = 
REMARK  4 active torsions:
REMARK  status: ('A' for Active; 'I' for Inactive)
REMARK    1  A    between atoms: C_1  and  C_2
REMARK    2  A    between atoms: C_2  and  C_3
REMARK    3  A    between atoms: C_3  and  N_4
REMARK    4  A    between atoms: C_10  and  C_11
REMARK                            x       y       z     vdW  Elec       q    Type
REMARK                         _______ _______ _______ _____ _____    ______ ____
ROOT
ATOM      1  N   UNL     1       3.349   5.450  20.201  0.00  0.00    +0.000 N 
ATOM      2  C   UNL     1       3.936   5.257  18.969  0.00  0.00    +0.000 C 
ATOM      3  O   UNL     1       3.289   4.998  17.962  0.00  0.00    +0.000 OA
ATOM      4  N   UNL     1       5.305   5.343  19.044  0.00  0.00    +0.000 N 
ATOM      5  C   UNL     1       6.096   5.123  17.937  0.00  0.00    +0.000 A 
ATOM      6  C   UNL     1       5.834   5.478  16.595  0.00  0.00    +0.000 A 
ATOM      7  C   UNL     1       6.885   4.951  15.890  0.00  0.00    +0.000 A 
ATOM      8  C   UNL     1       7.229   4.888  14.461  0.00  0.00    +0.000 C 
ATOM      9  O   UNL     1       7.752   4.361  16.758  0.00  0.00    +0.000 OA
ATOM     10  N   UNL     1       7.282   4.514  18.052  0.00  0.00    +0.000 NA
ATOM     11  H   UNL     1       3.763   6.198  20.747  0.00  0.00    +0.000 HD
ATOM     12  H   UNL     1       5.721   5.032  19.910  0.00  0.00    +0.000 HD
ENDROOT
BRANCH   1  13
ATOM     13  C   UNL     1       1.926   5.228  20.340  0.00  0.00    +0.000 C 
BRANCH  13  15
ATOM     14  C   UNL     1       1.777   3.060  21.659  0.00  0.00    +0.000 C 
ATOM     15  C   UNL     1       1.542   3.758  20.329  0.00  0.00    +0.000 C 
ENDBRANCH  13  15
ENDBRANCH   1  13
TORSDOF 2
ENDMDL
MODEL 6
REMARK VINA RESULT:      -6.1      3.524      5.853
REMARK  Name = 
REMARK  4 active torsions:
REMARK  status: ('A' for Active; 'I' for Inactive)
REMARK    1  A    between atoms: C_1  and  C_2
REMARK    2  A    between atoms: C_2  and  C_3
REMARK    3  A    between atoms: C_3  and  N_4
REMARK    4  A    between atoms: C_10  and  C_11
REMARK                            x       y       z     vdW  Elec       q    Type
REMARK                         _______ _______ _______ _____ _____    ______ ____
ROOT
ATOM      1  N   UNL     1       4.167   4.942  19.085  0.00  0.00    +0.000 N 
ATOM      2  C   UNL     1       4.615   4.517  17.853  0.00  0.00    +0.000 C 
ATOM      3  O   UNL     1       4.359   3.407  17.403  0.00  0.00    +0.000 OA
ATOM      4  N   UNL     1       5.404   5.466  17.250  0.00  0.00    +0.000 N 
ATOM      5  C   UNL     1       6.008   5.225  16.034  0.00  0.00    +0.000 A 
ATOM      6  C   UNL     1       5.494   4.502  14.935  0.00  0.00    +0.000 A 
ATOM      7  C   UNL     1       6.521   4.483  14.027  0.00  0.00    +0.000 A 
ATOM      8  C   UNL     1       6.706   3.866  12.705  0.00  0.00    +0.000 C 
ATOM      9  O   UNL     1       7.569   5.195  14.525  0.00  0.00    +0.000 OA
ATOM     10  N   UNL     1       7.227   5.706  15.767  0.00  0.00    +0.000 NA
ATOM     11  H   UNL     1       3.871   5.912  19.109  0.00  0.00    +0.000 HD
ATOM     12  H   UNL     1       5.953   6.044  17.870  0.00  0.00    +0.000 HD
ENDROOT
BRANCH   1  13
ATOM     13  C   UNL     1       3.462   4.005  19.933  0.00  0.00    +0.000 C 
BRANCH  13  15
ATOM     14  C   UNL     1       1.144   3.312  20.715  0.00  0.00    +0.000 C 
ATOM     15  C   UNL     1       2.052   4.452  20.283  0.00  0.00    +0.000 C 
ENDBRANCH  13  15
ENDBRANCH   1  13
TORSDOF 2
ENDMDL
MODEL 7
REMARK VINA RESULT:      -6.0      4.074      5.237
REMARK  Name = 
REMARK  4 active torsions:
REMARK  status: ('A' for Active; 'I' for Inactive)
REMARK    1  A    between atoms: C_1  and  C_2
REMARK    2  A    between atoms: C_2  and  C_3
REMARK    3  A    between atoms: C_3  and  N_4
REMARK    4  A    between atoms: C_10  and  C_11
REMARK                            x       y       z     vdW  Elec       q    Type
REMARK                         _______ _______ _______ _____ _____    ______ ____
ROOT
ATOM      1  N   UNL     1       3.223   2.700  18.985  0.00  0.00    +0.000 N 
ATOM      2  C   UNL     1       3.927   3.797  18.536  0.00  0.00    +0.000 C 
ATOM      3  O   UNL     1       3.403   4.703  17.899  0.00  0.00    +0.000 OA
ATOM      4  N   UNL     1       5.260   3.702  18.850  0.00  0.00    +0.000 N 
ATOM      5  C   UNL     1       6.160   4.665  18.443  0.00  0.00    +0.000 A 
ATOM      6  C   UNL     1       5.959   6.059  18.349  0.00  0.00    +0.000 A 
ATOM      7  C   UNL     1       7.125   6.537  17.810  0.00  0.00    +0.000 A 
ATOM      8  C   UNL     1       7.587   7.869  17.388  0.00  0.00    +0.000 C 
ATOM      9  O   UNL     1       7.993   5.503  17.637  0.00  0.00    +0.000 OA
ATOM     10  N   UNL     1       7.405   4.331  18.085  0.00  0.00    +0.000 NA
ATOM     11  H   UNL     1       3.486   2.388  19.913  0.00  0.00    +0.000 HD
ATOM     12  H   UNL     1       5.645   2.769  18.872  0.00  0.00    +0.000 HD
ENDROOT
BRANCH   1  13
ATOM     13  C   UNL     1       1.837   2.552  18.596  0.00  0.00    +0.000 C 
BRANCH  13  15
ATOM     14  C   UNL     1       1.525   2.951  21.087  0.00  0.00    +0.000 C 
ATOM     15  C   UNL     1       0.861   2.840  19.724  0.00  0.00    +0.000 C 
ENDBRANCH  13  15
ENDBRANCH   1  13
TORSDOF 2
ENDMDL
MODEL 8
REMARK VINA RESULT:      -6.0      3.581      4.736
REMARK  Name = 
REMARK  4 active torsions:
REMARK  status: ('A' for Active; 'I' for Inactive)
REMARK    1  A    between atoms: C_1  and  C_2
REMARK    2  A    between atoms: C_2  and  C_3
REMARK    3  A    between atoms: C_3  and  N_4
REMARK    4  A    between atoms: C_10  and  C_11
REMARK                            x       y       z     vdW  Elec       q    Type
REMARK                         _______ _______ _______ _____ _____    ______ ____
ROOT
ATOM      1  N   UNL     1       4.085   2.448  18.043  0.00  0.00    +0.000 N 
ATOM      2  C   UNL     1       4.804   3.597  18.292  0.00  0.00    +0.000 C 
ATOM      3  O   UNL     1       4.735   4.202  19.354  0.00  0.00    +0.000 OA
ATOM      4  N   UNL     1       5.541   3.976  17.197  0.00  0.00    +0.000 N 
ATOM      5  C   UNL     1       6.291   5.134  17.207  0.00  0.00    +0.000 A 
ATOM      6  C   UNL     1       7.018   5.690  18.282  0.00  0.00    +0.000 A 
ATOM      7  C   UNL     1       7.497   6.878  17.793  0.00  0.00    +0.000 A 
ATOM      8  C   UNL     1       8.274   7.985  18.373  0.00  0.00    +0.000 C 
ATOM      9  O   UNL     1       7.126   7.005  16.490  0.00  0.00    +0.000 OA
ATOM     10  N   UNL     1       6.410   5.883  16.105  0.00  0.00    +0.000 NA
ATOM     11  H   UNL     1       4.597   1.740  17.527  0.00  0.00    +0.000 HD
ATOM     12  H   UNL     1       5.140   3.759  16.296  0.00  0.00    +0.000 HD
ENDROOT
BRANCH   1  13
ATOM     13  C   UNL     1       3.124   1.997  19.027  0.00  0.00    +0.000 C 
BRANCH  13  15
ATOM     14  C   UNL     1       1.007   3.299  19.562  0.00  0.00    +0.000 C 
ATOM     15  C   UNL     1       1.685   2.296  18.642  0.00  0.00    +0.000 C 
ENDBRANCH  13  15
ENDBRANCH   1  13
TORSDOF 2
ENDMDL
MODEL 9
REMARK VINA RESULT:      -6.0      3.593      4.382
REMARK  Name = 
REMARK  4 active torsions:
REMARK  status: ('A' for Active; 'I' for Inactive)
REMARK    1  A    between atoms: C_1  and  C_2
REMARK    2  A    between atoms: C_2  and  C_3
REMARK    3  A    between atoms: C_3  and  N_4
REMARK    4  A    between atoms: C_10  and  C_11
REMARK                            x       y       z     vdW  Elec       q    Type
REMARK                         _______ _______ _______ _____ _____    ______ ____
ROOT
ATOM      1  N   UNL     1       5.154   3.171  18.588  0.00  0.00    +0.000 N 
ATOM      2  C   UNL     1       5.708   4.424  18.738  0.00  0.00    +0.000 C 
ATOM      3  O   UNL     1       5.414   5.169  19.665  0.00  0.00    +0.000 OA
ATOM      4  N   UNL     1       6.564   4.723  17.708  0.00  0.00    +0.000 N 
ATOM      5  C   UNL     1       7.184   5.952  17.627  0.00  0.00    +0.000 A 
ATOM      6  C   UNL     1       7.677   6.749  18.684  0.00  0.00    +0.000 A 
ATOM      7  C   UNL     1       8.105   7.899  18.074  0.00  0.00    +0.000 A 
ATOM      8  C   UNL     1       8.668   9.168  18.562  0.00  0.00    +0.000 C 
ATOM      9  O   UNL     1       7.930   7.782  16.729  0.00  0.00    +0.000 OA
ATOM     10  N   UNL     1       7.398   6.536  16.443  0.00  0.00    +0.000 NA
ATOM     11  H   UNL     1       5.808   2.462  18.274  0.00  0.00    +0.000 HD
ATOM     12  H   UNL     1       6.332   4.325  16.809  0.00  0.00    +0.000 HD
ENDROOT
BRANCH   1  13
ATOM     13  C   UNL     1       4.102   2.759  19.492  0.00  0.00    +0.000 C 
BRANCH  13  15
ATOM     14  C   UNL     1       2.543   3.124  17.517  0.00  0.00    +0.000 C 
ATOM     15  C   UNL     1       2.831   2.327  18.779  0.00  0.00    +0.000 C 
ENDBRANCH  13  15
ENDBRANCH   1  13
TORSDOF 2
ENDMDL
