MODEL 1
REMARK VINA RESULT:      -5.2      0.000      0.000
REMARK  Name = 
REMARK  9 active torsions:
REMARK  status: ('A' for Active; 'I' for Inactive)
REMARK    1  A    between atoms: C_1  and  C_2
REMARK    2  A    between atoms: C_2  and  C_3
REMARK    3  A    between atoms: C_3  and  C_4
REMARK    4  A    between atoms: C_4  and  C_5
REMARK    5  A    between atoms: C_5  and  C_6
REMARK    6  A    between atoms: C_6  and  C_7
REMARK    7  A    between atoms: C_7  and  C_8
REMARK    8  A    between atoms: C_8  and  N_9
REMARK    9  A    between atoms: N_12  and  C_13
REMARK                            x       y       z     vdW  Elec       q    Type
REMARK                         _______ _______ _______ _____ _____    ______ ____
ROOT
ATOM      1  C   UNL     1       5.821   4.776  16.803  0.00  0.00    +0.000 C 
ENDROOT
BRANCH   1   2
ATOM      2  N   UNL     1       5.630   3.980  15.594  0.00  0.00    +0.000 NA
ATOM      3  C   UNL     1       6.380   4.267  14.586  0.00  0.00    +0.000 C 
ATOM      4  N   UNL     1       7.338   5.223  14.524  0.00  0.00    +0.000 N 
ATOM      5  N   UNL     1       6.192   3.551  13.455  0.00  0.00    +0.000 N 
ATOM      6  C   UNL     1       6.839   3.590  12.178  0.00  0.00    +0.000 C 
ATOM      7  H   UNL     1       7.661   5.572  15.416  0.00  0.00    +0.000 HD
ATOM      8  H   UNL     1       8.102   5.056  13.893  0.00  0.00    +0.000 HD
ATOM      9  H   UNL     1       5.396   2.924  13.531  0.00  0.00    +0.000 HD
ENDBRANCH   1   2
BRANCH   1  10
ATOM     10  C   UNL     1       4.702   4.502  17.802  0.00  0.00    +0.000 C 
BRANCH  10  11
ATOM     11  C   UNL     1       4.031   3.142  17.545  0.00  0.00    +0.000 C 
BRANCH  11  12
ATOM     12  C   UNL     1       2.525   3.264  17.302  0.00  0.00    +0.000 C 
BRANCH  12  13
ATOM     13  C   UNL     1       1.701   2.739  18.475  0.00  0.00    +0.000 C 
BRANCH  13  14
ATOM     14  C   UNL     1       1.251   3.901  19.363  0.00  0.00    +0.000 C 
BRANCH  14  16
ATOM     15  C   UNL     1       2.538   2.776  21.205  0.00  0.00    +0.000 C 
ATOM     16  C   UNL     1       1.262   3.518  20.840  0.00  0.00    +0.000 C 
ENDBRANCH  14  16
ENDBRANCH  13  14
ENDBRANCH  12  13
ENDBRANCH  11  12
ENDBRANCH  10  11
ENDBRANCH   1  10
TORSDOF 7
ENDMDL
MODEL 2
REMARK VINA RESULT:      -5.2      2.146      3.154
REMARK  Name = 
REMARK  9 active torsions:
REMARK  status: ('A' for Active; 'I' for Inactive)
REMARK    1  A    between atoms: C_1  and  C_2
REMARK    2  A    between atoms: C_2  and  C_3
REMARK    3  A    between atoms: C_3  and  C_4
REMARK    4  A    between atoms: C_4  and  C_5
REMARK    5  A    between atoms: C_5  and  C_6
REMARK    6  A    between atoms: C_6  and  C_7
REMARK    7  A    between atoms: C_7  and  C_8
REMARK    8  A    between atoms: C_8  and  N_9
REMARK    9  A    between atoms: N_12  and  C_13
REMARK                            x       y       z     vdW  Elec       q    Type
REMARK                         _______ _______ _______ _____ _____    ______ ____
ROOT
ATOM      1  C   UNL     1       6.356   4.320  16.205  0.00  0.00    +0.000 C 
ENDROOT
BRANCH   1   2
ATOM      2  N   UNL     1       6.789   5.704  16.040  0.00  0.00    +0.000 NA
ATOM      3  C   UNL     1       7.186   6.319  17.101  0.00  0.00    +0.000 C 
ATOM      4  N   UNL     1       7.255   5.818  18.358  0.00  0.00    +0.000 N 
ATOM      5  N   UNL     1       7.565   7.608  16.961  0.00  0.00    +0.000 N 
ATOM      6  C   UNL     1       8.060   8.568  17.901  0.00  0.00    +0.000 C 
ATOM      7  H   UNL     1       7.231   4.810  18.427  0.00  0.00    +0.000 HD
ATOM      8  H   UNL     1       7.954   6.213  18.963  0.00  0.00    +0.000 HD
ATOM      9  H   UNL     1       7.393   7.953  16.021  0.00  0.00    +0.000 HD
ENDBRANCH   1   2
BRANCH   1  10
ATOM     10  C   UNL     1       4.833   4.237  16.209  0.00  0.00    +0.000 C 
BRANCH  10  11
ATOM     11  C   UNL     1       4.291   3.813  17.585  0.00  0.00    +0.000 C 
BRANCH  11  12
ATOM     12  C   UNL     1       2.944   3.093  17.491  0.00  0.00    +0.000 C 
BRANCH  12  13
ATOM     13  C   UNL     1       1.770   4.007  17.831  0.00  0.00    +0.000 C 
BRANCH  13  14
ATOM     14  C   UNL     1       1.928   4.559  19.249  0.00  0.00    +0.000 C 
BRANCH  14  16
ATOM     15  C   UNL     1       1.552   2.906  21.104  0.00  0.00    +0.000 C 
ATOM     16  C   UNL     1       0.908   3.951  20.208  0.00  0.00    +0.000 C 
ENDBRANCH  14  16
ENDBRANCH  13  14
ENDBRANCH  12  13
ENDBRANCH  11  12
ENDBRANCH  10  11
ENDBRANCH   1  10
TORSDOF 7
ENDMDL
MODEL 3
REMARK VINA RESULT:      -5.2      2.005      2.933
REMARK  Name = 
REMARK  9 active torsions:
REMARK  status: ('A' for Active; 'I' for Inactive)
REMARK    1  A    between atoms: C_1  and  C_2
REMARK    2  A    between atoms: C_2  and  C_3
REMARK    3  A    between atoms: C_3  and  C_4
REMARK    4  A    between atoms: C_4  and  C_5
REMARK    5  A    between atoms: C_5  and  C_6
REMARK    6  A    between atoms: C_6  and  C_7
REMARK    7  A    between atoms: C_7  and  C_8
REMARK    8  A    between atoms: C_8  and  N_9
REMARK    9  A    between atoms: N_12  and  C_13
REMARK                            x       y       z     vdW  Elec       q    Type
REMARK                         _______ _______ _______ _____ _____    ______ ____
ROOT
ATOM      1  C   UNL     1       5.412   4.168  16.192  0.00  0.00    +0.000 C 
ENDROOT
BRANCH   1   2
ATOM      2  N   UNL     1       5.572   5.611  16.337  0.00  0.00    +0.000 NA
ATOM      3  C   UNL     1       6.657   6.021  16.900  0.00  0.00    +0.000 C 
ATOM      4  N   UNL     1       7.675   5.258  17.367  0.00  0.00    +0.000 N 
ATOM      5  N   UNL     1       6.802   7.355  17.062  0.00  0.00    +0.000 N 
ATOM      6  C   UNL     1       7.858   8.143  17.622  0.00  0.00    +0.000 C 
ATOM      7  H   UNL     1       7.700   4.309  17.023  0.00  0.00    +0.000 HD
ATOM      8  H   UNL     1       8.589   5.676  17.366  0.00  0.00    +0.000 HD
ATOM      9  H   UNL     1       5.965   7.863  16.787  0.00  0.00    +0.000 HD
ENDBRANCH   1   2
BRANCH   1  10
ATOM     10  C   UNL     1       4.115   3.708  16.850  0.00  0.00    +0.000 C 
BRANCH  10  11
ATOM     11  C   UNL     1       3.898   4.387  18.214  0.00  0.00    +0.000 C 
BRANCH  11  12
ATOM     12  C   UNL     1       2.478   4.931  18.382  0.00  0.00    +0.000 C 
BRANCH  12  13
ATOM     13  C   UNL     1       1.415   3.934  17.926  0.00  0.00    +0.000 C 
BRANCH  13  14
ATOM     14  C   UNL     1       1.074   2.973  19.067  0.00  0.00    +0.000 C 
BRANCH  14  16
ATOM     15  C   UNL     1       1.670   2.871  21.505  0.00  0.00    +0.000 C 
ATOM     16  C   UNL     1       1.009   3.693  20.410  0.00  0.00    +0.000 C 
ENDBRANCH  14  16
ENDBRANCH  13  14
ENDBRANCH  12  13
ENDBRANCH  11  12
ENDBRANCH  10  11
ENDBRANCH   1  10
TORSDOF 7
ENDMDL
MODEL 4
REMARK VINA RESULT:      -5.1      1.389      1.942
REMARK  Name = 
REMARK  9 active torsions:
REMARK  status: ('A' for Active; 'I' for Inactive)
REMARK    1  A    between atoms: C_1  and  C_2
REMARK    2  A    between atoms: C_2  and  C_3
REMARK    3  A    between atoms: C_3  and  C_4
REMARK    4  A    between atoms: C_4  and  C_5
REMARK    5  A    between atoms: C_5  and  C_6
REMARK    6  A    between atoms: C_6  and  C_7
REMARK    7  A    between atoms: C_7  and  C_8
REMARK    8  A    between atoms: C_8  and  N_9
REMARK    9  A    between atoms: N_12  and  C_13
REMARK                            x       y       z     vdW  Elec       q    Type
REMARK                         _______ _______ _______ _____ _____    ______ ____
ROOT
ATOM      1  C   UNL     1       4.862   5.546  18.364  0.00  0.00    +0.000 C 
ENDROOT
BRANCH   1   2
ATOM      2  N   UNL     1       4.755   5.480  16.910  0.00  0.00    +0.000 NA
ATOM      3  C   UNL     1       5.625   4.753  16.295  0.00  0.00    +0.000 C 
ATOM      4  N   UNL     1       6.628   4.033  16.852  0.00  0.00    +0.000 N 
ATOM      5  N   UNL     1       5.548   4.708  14.947  0.00  0.00    +0.000 N 
ATOM      6  C   UNL     1       6.324   4.010  13.966  0.00  0.00    +0.000 C 
ATOM      7  H   UNL     1       6.534   3.850  17.841  0.00  0.00    +0.000 HD
ATOM      8  H   UNL     1       6.926   3.214  16.352  0.00  0.00    +0.000 HD
ATOM      9  H   UNL     1       4.844   5.347  14.586  0.00  0.00    +0.000 HD
ENDBRANCH   1   2
BRANCH   1  10
ATOM     10  C   UNL     1       3.476   5.533  19.000  0.00  0.00    +0.000 C 
BRANCH  10  11
ATOM     11  C   UNL     1       2.363   5.497  17.938  0.00  0.00    +0.000 C 
BRANCH  11  12
ATOM     12  C   UNL     1       1.436   4.290  18.098  0.00  0.00    +0.000 C 
BRANCH  12  13
ATOM     13  C   UNL     1       2.170   2.964  17.922  0.00  0.00    +0.000 C 
BRANCH  13  14
ATOM     14  C   UNL     1       1.984   2.092  19.166  0.00  0.00    +0.000 C 
BRANCH  14  16
ATOM     15  C   UNL     1       1.699   2.784  21.565  0.00  0.00    +0.000 C 
ATOM     16  C   UNL     1       1.061   2.755  20.186  0.00  0.00    +0.000 C 
ENDBRANCH  14  16
ENDBRANCH  13  14
ENDBRANCH  12  13
ENDBRANCH  11  12
ENDBRANCH  10  11
ENDBRANCH   1  10
TORSDOF 7
ENDMDL
MODEL 5
REMARK VINA RESULT:      -5.1      1.339      2.466
REMARK  Name = 
REMARK  9 active torsions:
REMARK  status: ('A' for Active; 'I' for Inactive)
REMARK    1  A    between atoms: C_1  and  C_2
REMARK    2  A    between atoms: C_2  and  C_3
REMARK    3  A    between atoms: C_3  and  C_4
REMARK    4  A    between atoms: C_4  and  C_5
REMARK    5  A    between atoms: C_5  and  C_6
REMARK    6  A    between atoms: C_6  and  C_7
REMARK    7  A    between atoms: C_7  and  C_8
REMARK    8  A    between atoms: C_8  and  N_9
REMARK    9  A    between atoms: N_12  and  C_13
REMARK                            x       y       z     vdW  Elec       q    Type
REMARK                         _______ _______ _______ _____ _____    ______ ____
ROOT
ATOM      1  C   UNL     1       6.948   5.511  16.625  0.00  0.00    +0.000 C 
ENDROOT
BRANCH   1   2
ATOM      2  N   UNL     1       6.400   4.515  15.709  0.00  0.00    +0.000 NA
ATOM      3  C   UNL     1       6.794   4.575  14.483  0.00  0.00    +0.000 C 
ATOM      4  N   UNL     1       7.673   5.457  13.949  0.00  0.00    +0.000 N 
ATOM      5  N   UNL     1       6.272   3.672  13.623  0.00  0.00    +0.000 N 
ATOM      6  C   UNL     1       6.488   3.444  12.226  0.00  0.00    +0.000 C 
ATOM      7  H   UNL     1       8.253   5.949  14.613  0.00  0.00    +0.000 HD
ATOM      8  H   UNL     1       8.204   5.141  13.156  0.00  0.00    +0.000 HD
ATOM      9  H   UNL     1       5.548   3.109  14.059  0.00  0.00    +0.000 HD
ENDBRANCH   1   2
BRANCH   1  10
ATOM     10  C   UNL     1       7.358   4.854  17.939  0.00  0.00    +0.000 C 
BRANCH  10  11
ATOM     11  C   UNL     1       6.578   5.434  19.132  0.00  0.00    +0.000 C 
BRANCH  11  12
ATOM     12  C   UNL     1       5.067   5.227  19.005  0.00  0.00    +0.000 C 
BRANCH  12  13
ATOM     13  C   UNL     1       4.673   3.754  19.075  0.00  0.00    +0.000 C 
BRANCH  13  14
ATOM     14  C   UNL     1       3.848   3.373  17.844  0.00  0.00    +0.000 C 
BRANCH  14  16
ATOM     15  C   UNL     1       1.436   3.604  18.509  0.00  0.00    +0.000 C 
ATOM     16  C   UNL     1       2.584   4.221  17.728  0.00  0.00    +0.000 C 
ENDBRANCH  14  16
ENDBRANCH  13  14
ENDBRANCH  12  13
ENDBRANCH  11  12
ENDBRANCH  10  11
ENDBRANCH   1  10
TORSDOF 7
ENDMDL
MODEL 6
REMARK VINA RESULT:      -5.1      1.621      2.164
REMARK  Name = 
REMARK  9 active torsions:
REMARK  status: ('A' for Active; 'I' for Inactive)
REMARK    1  A    between atoms: C_1  and  C_2
REMARK    2  A    between atoms: C_2  and  C_3
REMARK    3  A    between atoms: C_3  and  C_4
REMARK    4  A    between atoms: C_4  and  C_5
REMARK    5  A    between atoms: C_5  and  C_6
REMARK    6  A    between atoms: C_6  and  C_7
REMARK    7  A    between atoms: C_7  and  C_8
REMARK    8  A    between atoms: C_8  and  N_9
REMARK    9  A    between atoms: N_12  and  C_13
REMARK                            x       y       z     vdW  Elec       q    Type
REMARK                         _______ _______ _______ _____ _____    ______ ____
ROOT
ATOM      1  C   UNL     1       6.611   5.615  18.684  0.00  0.00    +0.000 C 
ENDROOT
BRANCH   1   2
ATOM      2  N   UNL     1       7.146   4.891  17.536  0.00  0.00    +0.000 NA
ATOM      3  C   UNL     1       6.866   5.363  16.369  0.00  0.00    +0.000 C 
ATOM      4  N   UNL     1       6.133   6.467  16.089  0.00  0.00    +0.000 N 
ATOM      5  N   UNL     1       7.337   4.684  15.300  0.00  0.00    +0.000 N 
ATOM      6  C   UNL     1       7.231   4.921  13.892  0.00  0.00    +0.000 C 
ATOM      7  H   UNL     1       6.005   7.111  16.857  0.00  0.00    +0.000 HD
ATOM      8  H   UNL     1       6.352   6.949  15.234  0.00  0.00    +0.000 HD
ATOM      9  H   UNL     1       7.788   3.815  15.572  0.00  0.00    +0.000 HD
ENDBRANCH   1   2
BRANCH   1  10
ATOM     10  C   UNL     1       5.446   4.846  19.301  0.00  0.00    +0.000 C 
BRANCH  10  11
ATOM     11  C   UNL     1       4.100   5.540  19.029  0.00  0.00    +0.000 C 
BRANCH  11  12
ATOM     12  C   UNL     1       3.375   4.960  17.813  0.00  0.00    +0.000 C 
BRANCH  12  13
ATOM     13  C   UNL     1       1.883   4.758  18.066  0.00  0.00    +0.000 C 
BRANCH  13  14
ATOM     14  C   UNL     1       1.552   3.264  18.085  0.00  0.00    +0.000 C 
BRANCH  14  16
ATOM     15  C   UNL     1       0.980   3.977  20.426  0.00  0.00    +0.000 C 
ATOM     16  C   UNL     1       0.943   2.839  19.418  0.00  0.00    +0.000 C 
ENDBRANCH  14  16
ENDBRANCH  13  14
ENDBRANCH  12  13
ENDBRANCH  11  12
ENDBRANCH  10  11
ENDBRANCH   1  10
TORSDOF 7
ENDMDL
MODEL 7
REMARK VINA RESULT:      -5.0      1.190      1.562
REMARK  Name = 
REMARK  9 active torsions:
REMARK  status: ('A' for Active; 'I' for Inactive)
REMARK    1  A    between atoms: C_1  and  C_2
REMARK    2  A    between atoms: C_2  and  C_3
REMARK    3  A    between atoms: C_3  and  C_4
REMARK    4  A    between atoms: C_4  and  C_5
REMARK    5  A    between atoms: C_5  and  C_6
REMARK    6  A    between atoms: C_6  and  C_7
REMARK    7  A    between atoms: C_7  and  C_8
REMARK    8  A    between atoms: C_8  and  N_9
REMARK    9  A    between atoms: N_12  and  C_13
REMARK                            x       y       z     vdW  Elec       q    Type
REMARK                         _______ _______ _______ _____ _____    ______ ____
ROOT
ATOM      1  C   UNL     1       6.852   4.915  17.246  0.00  0.00    +0.000 C 
ENDROOT
BRANCH   1   2
ATOM      2  N   UNL     1       6.333   4.057  16.186  0.00  0.00    +0.000 NA
ATOM      3  C   UNL     1       6.688   4.345  14.980  0.00  0.00    +0.000 C 
ATOM      4  N   UNL     1       7.500   5.355  14.586  0.00  0.00    +0.000 N 
ATOM      5  N   UNL     1       6.191   3.570  13.990  0.00  0.00    +0.000 N 
ATOM      6  C   UNL     1       6.378   3.593  12.571  0.00  0.00    +0.000 C 
ATOM      7  H   UNL     1       8.073   5.761  15.312  0.00  0.00    +0.000 HD
ATOM      8  H   UNL     1       8.025   5.208  13.741  0.00  0.00    +0.000 HD
ATOM      9  H   UNL     1       5.512   2.900  14.339  0.00  0.00    +0.000 HD
ENDBRANCH   1   2
BRANCH   1  10
ATOM     10  C   UNL     1       5.751   5.251  18.246  0.00  0.00    +0.000 C 
BRANCH  10  11
ATOM     11  C   UNL     1       4.734   6.245  17.660  0.00  0.00    +0.000 C 
BRANCH  11  12
ATOM     12  C   UNL     1       3.285   5.833  17.927  0.00  0.00    +0.000 C 
BRANCH  12  13
ATOM     13  C   UNL     1       3.167   4.823  19.065  0.00  0.00    +0.000 C 
BRANCH  13  14
ATOM     14  C   UNL     1       1.862   4.034  18.933  0.00  0.00    +0.000 C 
BRANCH  14  16
ATOM     15  C   UNL     1       1.688   3.217  21.303  0.00  0.00    +0.000 C 
ATOM     16  C   UNL     1       1.047   4.073  20.222  0.00  0.00    +0.000 C 
ENDBRANCH  14  16
ENDBRANCH  13  14
ENDBRANCH  12  13
ENDBRANCH  11  12
ENDBRANCH  10  11
ENDBRANCH   1  10
TORSDOF 7
ENDMDL
MODEL 8
REMARK VINA RESULT:      -5.0      1.078      1.686
REMARK  Name = 
REMARK  9 active torsions:
REMARK  status: ('A' for Active; 'I' for Inactive)
REMARK    1  A    between atoms: C_1  and  C_2
REMARK    2  A    between atoms: C_2  and  C_3
REMARK    3  A    between atoms: C_3  and  C_4
REMARK    4  A    between atoms: C_4  and  C_5
REMARK    5  A    between atoms: C_5  and  C_6
REMARK    6  A    between atoms: C_6  and  C_7
REMARK    7  A    between atoms: C_7  and  C_8
REMARK    8  A    between atoms: C_8  and  N_9
REMARK    9  A    between atoms: N_12  and  C_13
REMARK                            x       y       z     vdW  Elec       q    Type
REMARK                         _______ _______ _______ _____ _____    ______ ____
ROOT
ATOM      1  C   UNL     1       5.787   4.483  16.840  0.00  0.00    +0.000 C 
ENDROOT
BRANCH   1   2
ATOM      2  N   UNL     1       5.652   3.771  15.573  0.00  0.00    +0.000 NA
ATOM      3  C   UNL     1       6.400   4.169  14.601  0.00  0.00    +0.000 C 
ATOM      4  N   UNL     1       7.309   5.174  14.626  0.00  0.00    +0.000 N 
ATOM      5  N   UNL     1       6.263   3.532  13.417  0.00  0.00    +0.000 N 
ATOM      6  C   UNL     1       6.923   3.698  12.158  0.00  0.00    +0.000 C 
ATOM      7  H   UNL     1       7.603   5.471  15.546  0.00  0.00    +0.000 HD
ATOM      8  H   UNL     1       8.088   5.093  13.997  0.00  0.00    +0.000 HD
ATOM      9  H   UNL     1       5.498   2.862  13.434  0.00  0.00    +0.000 HD
ENDBRANCH   1   2
BRANCH   1  10
ATOM     10  C   UNL     1       4.670   4.081  17.797  0.00  0.00    +0.000 C 
BRANCH  10  11
ATOM     11  C   UNL     1       3.535   5.119  17.814  0.00  0.00    +0.000 C 
BRANCH  11  12
ATOM     12  C   UNL     1       3.515   5.949  19.100  0.00  0.00    +0.000 C 
BRANCH  12  13
ATOM     13  C   UNL     1       2.255   5.710  19.929  0.00  0.00    +0.000 C 
BRANCH  13  14
ATOM     14  C   UNL     1       2.374   4.393  20.698  0.00  0.00    +0.000 C 
BRANCH  14  16
ATOM     15  C   UNL     1       0.983   2.894  19.238  0.00  0.00    +0.000 C 
ATOM     16  C   UNL     1       1.097   3.565  20.597  0.00  0.00    +0.000 C 
ENDBRANCH  14  16
ENDBRANCH  13  14
ENDBRANCH  12  13
ENDBRANCH  11  12
ENDBRANCH  10  11
ENDBRANCH   1  10
TORSDOF 7
ENDMDL
MODEL 9
REMARK VINA RESULT:      -5.0      1.332      1.676
REMARK  Name = 
REMARK  9 active torsions:
REMARK  status: ('A' for Active; 'I' for Inactive)
REMARK    1  A    between atoms: C_1  and  C_2
REMARK    2  A    between atoms: C_2  and  C_3
REMARK    3  A    between atoms: C_3  and  C_4
REMARK    4  A    between atoms: C_4  and  C_5
REMARK    5  A    between atoms: C_5  and  C_6
REMARK    6  A    between atoms: C_6  and  C_7
REMARK    7  A    between atoms: C_7  and  C_8
REMARK    8  A    between atoms: C_8  and  N_9
REMARK    9  A    between atoms: N_12  and  C_13
REMARK                            x       y       z     vdW  Elec       q    Type
REMARK                         _______ _______ _______ _____ _____    ______ ____
ROOT
ATOM      1  C   UNL     1       5.803   4.487  18.663  0.00  0.00    +0.000 C 
ENDROOT
BRANCH   1   2
ATOM      2  N   UNL     1       5.576   4.764  17.248  0.00  0.00    +0.000 NA
ATOM      3  C   UNL     1       6.595   4.655  16.465  0.00  0.00    +0.000 C 
ATOM      4  N   UNL     1       7.857   4.303  16.809  0.00  0.00    +0.000 N 
ATOM      5  N   UNL     1       6.399   4.935  15.158  0.00  0.00    +0.000 N 
ATOM      6  C   UNL     1       7.280   4.908  14.030  0.00  0.00    +0.000 C 
ATOM      7  H   UNL     1       7.952   3.847  17.705  0.00  0.00    +0.000 HD
ATOM      8  H   UNL     1       8.406   3.846  16.101  0.00  0.00    +0.000 HD
ATOM      9  H   UNL     1       5.463   5.290  14.982  0.00  0.00    +0.000 HD
ENDBRANCH   1   2
BRANCH   1  10
ATOM     10  C   UNL     1       4.752   3.515  19.190  0.00  0.00    +0.000 C 
BRANCH  10  11
ATOM     11  C   UNL     1       3.706   3.172  18.115  0.00  0.00    +0.000 C 
BRANCH  11  12
ATOM     12  C   UNL     1       2.975   1.859  18.403  0.00  0.00    +0.000 C 
BRANCH  12  13
ATOM     13  C   UNL     1       1.546   2.082  18.891  0.00  0.00    +0.000 C 
BRANCH  13  14
ATOM     14  C   UNL     1       1.251   3.580  18.983  0.00  0.00    +0.000 C 
BRANCH  14  16
ATOM     15  C   UNL     1       1.493   3.030  21.423  0.00  0.00    +0.000 C 
ATOM     16  C   UNL     1       0.907   4.000  20.409  0.00  0.00    +0.000 C 
ENDBRANCH  14  16
ENDBRANCH  13  14
ENDBRANCH  12  13
ENDBRANCH  11  12
ENDBRANCH  10  11
ENDBRANCH   1  10
TORSDOF 7
ENDMDL
