MODEL 1
REMARK VINA RESULT:      -6.9      0.000      0.000
REMARK  Name = 
REMARK  5 active torsions:
REMARK  status: ('A' for Active; 'I' for Inactive)
REMARK    1  A    between atoms: C_2  and  C_3
REMARK    2  A    between atoms: C_7  and  C_8
REMARK    3  A    between atoms: C_8  and  C_9
REMARK    4  A    between atoms: CA_12  and  C_13
REMARK    5  A    between atoms: C_13  and  OXT_15
REMARK                            x       y       z     vdW  Elec       q    Type
REMARK                         _______ _______ _______ _____ _____    ______ ____
ROOT
ATOM      1  C   UNL     1       5.153   5.476  16.357  0.00  0.00    +0.000 C 
ATOM      2  C   UNL     1       6.585   5.931  16.622  0.00  0.00    +0.000 C 
ATOM      3  N   UNL     1       7.446   4.938  15.979  0.00  0.00    +0.000 NA
ATOM      4  CA  UNL     1       6.680   4.460  14.809  0.00  0.00    +0.000 C 
ATOM      5  C   UNL     1       5.284   5.104  14.890  0.00  0.00    +0.000 C 
ATOM      6  H   UNL     1       7.559   4.138  16.647  0.00  0.00    +0.000 HD
ENDROOT
BRANCH   4   7
ATOM      7  C   UNL     1       7.382   4.836  13.518  0.00  0.00    +0.000 C 
ATOM      8  O   UNL     1       8.248   5.698  13.522  0.00  0.00    +0.000 OA
BRANCH   7   9
ATOM      9  OXT UNL     1       7.049   4.250  12.349  0.00  0.00    +0.000 OA
ATOM     10  HXT UNL     1       6.415   4.652  11.740  0.00  0.00    +0.000 HD
ENDBRANCH   7   9
ENDBRANCH   4   7
BRANCH   1  11
ATOM     11  C   UNL     1       4.717   4.291  17.255  0.00  0.00    +0.000 C 
BRANCH  11  16
ATOM     12  C   UNL     1       2.471   4.248  20.367  0.00  0.00    +0.000 A 
ATOM     13  C   UNL     1       2.021   5.575  20.396  0.00  0.00    +0.000 A 
ATOM     14  C   UNL     1       2.445   6.478  19.422  0.00  0.00    +0.000 A 
ATOM     15  C   UNL     1       3.315   6.063  18.406  0.00  0.00    +0.000 A 
ATOM     16  C   UNL     1       3.774   4.737  18.362  0.00  0.00    +0.000 A 
ATOM     17  C   UNL     1       3.346   3.832  19.355  0.00  0.00    +0.000 A 
BRANCH  12  19
ATOM     18  N   UNL     1       1.669   2.566  22.177  0.00  0.00    +0.000 NA
ATOM     19  C   UNL     1       2.027   3.316  21.371  0.00  0.00    +0.000 C 
ENDBRANCH  12  19
ENDBRANCH  11  16
ENDBRANCH   1  11
TORSDOF 5
ENDMDL
MODEL 2
REMARK VINA RESULT:      -6.8      1.230      1.475
REMARK  Name = 
REMARK  5 active torsions:
REMARK  status: ('A' for Active; 'I' for Inactive)
REMARK    1  A    between atoms: C_2  and  C_3
REMARK    2  A    between atoms: C_7  and  C_8
REMARK    3  A    between atoms: C_8  and  C_9
REMARK    4  A    between atoms: CA_12  and  C_13
REMARK    5  A    between atoms: C_13  and  OXT_15
REMARK                            x       y       z     vdW  Elec       q    Type
REMARK                         _______ _______ _______ _____ _____    ______ ____
ROOT
ATOM      1  C   UNL     1       5.005   6.265  17.271  0.00  0.00    +0.000 C 
ATOM      2  C   UNL     1       6.347   6.961  17.066  0.00  0.00    +0.000 C 
ATOM      3  N   UNL     1       7.313   5.896  16.796  0.00  0.00    +0.000 NA
ATOM      4  CA  UNL     1       6.544   4.841  16.104  0.00  0.00    +0.000 C 
ATOM      5  C   UNL     1       5.067   5.274  16.122  0.00  0.00    +0.000 C 
ATOM      6  H   UNL     1       7.632   5.517  17.720  0.00  0.00    +0.000 HD
ENDROOT
BRANCH   4   7
ATOM      7  C   UNL     1       7.044   4.658  14.684  0.00  0.00    +0.000 C 
ATOM      8  O   UNL     1       7.869   5.430  14.221  0.00  0.00    +0.000 OA
BRANCH   7   9
ATOM      9  OXT UNL     1       6.573   3.663  13.904  0.00  0.00    +0.000 OA
ATOM     10  HXT UNL     1       6.785   2.735  14.077  0.00  0.00    +0.000 HD
ENDBRANCH   7   9
ENDBRANCH   4   7
BRANCH   1  11
ATOM     11  C   UNL     1       4.878   5.588  18.660  0.00  0.00    +0.000 C 
BRANCH  11  16
ATOM     12  C   UNL     1       1.996   3.547  20.161  0.00  0.00    +0.000 A 
ATOM     13  C   UNL     1       1.099   3.510  19.084  0.00  0.00    +0.000 A 
ATOM     14  C   UNL     1       1.420   4.146  17.885  0.00  0.00    +0.000 A 
ATOM     15  C   UNL     1       2.642   4.815  17.748  0.00  0.00    +0.000 A 
ATOM     16  C   UNL     1       3.552   4.861  18.816  0.00  0.00    +0.000 A 
ATOM     17  C   UNL     1       3.216   4.223  20.027  0.00  0.00    +0.000 A 
BRANCH  12  19
ATOM     18  N   UNL     1       1.396   2.355  22.389  0.00  0.00    +0.000 NA
ATOM     19  C   UNL     1       1.664   2.885  21.396  0.00  0.00    +0.000 C 
ENDBRANCH  12  19
ENDBRANCH  11  16
ENDBRANCH   1  11
TORSDOF 5
ENDMDL
MODEL 3
REMARK VINA RESULT:      -6.8      0.935      1.020
REMARK  Name = 
REMARK  5 active torsions:
REMARK  status: ('A' for Active; 'I' for Inactive)
REMARK    1  A    between atoms: C_2  and  C_3
REMARK    2  A    between atoms: C_7  and  C_8
REMARK    3  A    between atoms: C_8  and  C_9
REMARK    4  A    between atoms: CA_12  and  C_13
REMARK    5  A    between atoms: C_13  and  OXT_15
REMARK                            x       y       z     vdW  Elec       q    Type
REMARK                         _______ _______ _______ _____ _____    ______ ____
ROOT
ATOM      1  C   UNL     1       5.170   6.074  17.213  0.00  0.00    +0.000 C 
ATOM      2  C   UNL     1       6.407   6.892  16.853  0.00  0.00    +0.000 C 
ATOM      3  N   UNL     1       7.426   5.920  16.455  0.00  0.00    +0.000 NA
ATOM      4  CA  UNL     1       6.678   4.798  15.851  0.00  0.00    +0.000 C 
ATOM      5  C   UNL     1       5.181   5.092  16.055  0.00  0.00    +0.000 C 
ATOM      6  H   UNL     1       7.890   5.574  17.329  0.00  0.00    +0.000 HD
ENDROOT
BRANCH   4   7
ATOM      7  C   UNL     1       7.014   4.661  14.378  0.00  0.00    +0.000 C 
ATOM      8  O   UNL     1       7.749   5.475  13.840  0.00  0.00    +0.000 OA
BRANCH   7   9
ATOM      9  OXT UNL     1       6.493   3.662  13.636  0.00  0.00    +0.000 OA
ATOM     10  HXT UNL     1       6.946   3.318  12.855  0.00  0.00    +0.000 HD
ENDBRANCH   7   9
ENDBRANCH   4   7
BRANCH   1  11
ATOM     11  C   UNL     1       5.278   5.389  18.600  0.00  0.00    +0.000 C 
BRANCH  11  16
ATOM     12  C   UNL     1       2.302   4.371  20.799  0.00  0.00    +0.000 A 
ATOM     13  C   UNL     1       1.514   5.529  20.744  0.00  0.00    +0.000 A 
ATOM     14  C   UNL     1       1.944   6.632  20.008  0.00  0.00    +0.000 A 
ATOM     15  C   UNL     1       3.160   6.586  19.314  0.00  0.00    +0.000 A 
ATOM     16  C   UNL     1       3.961   5.434  19.357  0.00  0.00    +0.000 A 
ATOM     17  C   UNL     1       3.522   4.325  20.110  0.00  0.00    +0.000 A 
BRANCH  12  19
ATOM     18  N   UNL     1       1.493   2.313  22.162  0.00  0.00    +0.000 NA
ATOM     19  C   UNL     1       1.853   3.231  21.555  0.00  0.00    +0.000 C 
ENDBRANCH  12  19
ENDBRANCH  11  16
ENDBRANCH   1  11
TORSDOF 5
ENDMDL
MODEL 4
REMARK VINA RESULT:      -6.8      2.296      2.859
REMARK  Name = 
REMARK  5 active torsions:
REMARK  status: ('A' for Active; 'I' for Inactive)
REMARK    1  A    between atoms: C_2  and  C_3
REMARK    2  A    between atoms: C_7  and  C_8
REMARK    3  A    between atoms: C_8  and  C_9
REMARK    4  A    between atoms: CA_12  and  C_13
REMARK    5  A    between atoms: C_13  and  OXT_15
REMARK                            x       y       z     vdW  Elec       q    Type
REMARK                         _______ _______ _______ _____ _____    ______ ____
ROOT
ATOM      1  C   UNL     1       6.089   4.385  17.659  0.00  0.00    +0.000 C 
ATOM      2  C   UNL     1       7.075   4.601  16.515  0.00  0.00    +0.000 C 
ATOM      3  N   UNL     1       7.002   6.026  16.188  0.00  0.00    +0.000 NA
ATOM      4  CA  UNL     1       6.686   6.701  17.464  0.00  0.00    +0.000 C 
ATOM      5  C   UNL     1       6.429   5.598  18.507  0.00  0.00    +0.000 C 
ATOM      6  H   UNL     1       6.192   6.159  15.537  0.00  0.00    +0.000 HD
ENDROOT
BRANCH   4   7
ATOM      7  C   UNL     1       7.828   7.603  17.891  0.00  0.00    +0.000 C 
ATOM      8  O   UNL     1       8.097   8.600  17.239  0.00  0.00    +0.000 OA
BRANCH   7   9
ATOM      9  OXT UNL     1       8.577   7.311  18.975  0.00  0.00    +0.000 OA
ATOM     10  HXT UNL     1       8.403   6.531  19.519  0.00  0.00    +0.000 HD
ENDBRANCH   7   9
ENDBRANCH   4   7
BRANCH   1  11
ATOM     11  C   UNL     1       4.612   4.358  17.189  0.00  0.00    +0.000 C 
BRANCH  11  16
ATOM     12  C   UNL     1       2.401   4.204  20.322  0.00  0.00    +0.000 A 
ATOM     13  C   UNL     1       1.879   5.505  20.352  0.00  0.00    +0.000 A 
ATOM     14  C   UNL     1       2.244   6.426  19.371  0.00  0.00    +0.000 A 
ATOM     15  C   UNL     1       3.126   6.055  18.348  0.00  0.00    +0.000 A 
ATOM     16  C   UNL     1       3.656   4.756  18.303  0.00  0.00    +0.000 A 
ATOM     17  C   UNL     1       3.288   3.832  19.303  0.00  0.00    +0.000 A 
BRANCH  12  19
ATOM     18  N   UNL     1       1.711   2.488  22.147  0.00  0.00    +0.000 NA
ATOM     19  C   UNL     1       2.017   3.253  21.333  0.00  0.00    +0.000 C 
ENDBRANCH  12  19
ENDBRANCH  11  16
ENDBRANCH   1  11
TORSDOF 5
ENDMDL
MODEL 5
REMARK VINA RESULT:      -6.8      1.366      1.581
REMARK  Name = 
REMARK  5 active torsions:
REMARK  status: ('A' for Active; 'I' for Inactive)
REMARK    1  A    between atoms: C_2  and  C_3
REMARK    2  A    between atoms: C_7  and  C_8
REMARK    3  A    between atoms: C_8  and  C_9
REMARK    4  A    between atoms: CA_12  and  C_13
REMARK    5  A    between atoms: C_13  and  OXT_15
REMARK                            x       y       z     vdW  Elec       q    Type
REMARK                         _______ _______ _______ _____ _____    ______ ____
ROOT
ATOM      1  C   UNL     1       4.968   4.834  15.729  0.00  0.00    +0.000 C 
ATOM      2  C   UNL     1       5.874   6.042  15.947  0.00  0.00    +0.000 C 
ATOM      3  N   UNL     1       7.229   5.588  15.634  0.00  0.00    +0.000 NA
ATOM      4  CA  UNL     1       7.061   4.557  14.587  0.00  0.00    +0.000 C 
ATOM      5  C   UNL     1       5.548   4.328  14.420  0.00  0.00    +0.000 C 
ATOM      6  H   UNL     1       7.614   5.124  16.492  0.00  0.00    +0.000 HD
ENDROOT
BRANCH   4   7
ATOM      7  C   UNL     1       7.694   5.008  13.285  0.00  0.00    +0.000 C 
ATOM      8  O   UNL     1       7.324   4.524  12.225  0.00  0.00    +0.000 OA
BRANCH   7   9
ATOM      9  OXT UNL     1       8.684   5.924  13.273  0.00  0.00    +0.000 OA
ATOM     10  HXT UNL     1       8.669   6.698  13.852  0.00  0.00    +0.000 HD
ENDBRANCH   7   9
ENDBRANCH   4   7
BRANCH   1  11
ATOM     11  C   UNL     1       5.052   3.798  16.879  0.00  0.00    +0.000 C 
BRANCH  11  16
ATOM     12  C   UNL     1       2.544   3.246  19.731  0.00  0.00    +0.000 A 
ATOM     13  C   UNL     1       1.334   3.560  19.095  0.00  0.00    +0.000 A 
ATOM     14  C   UNL     1       1.331   3.953  17.757  0.00  0.00    +0.000 A 
ATOM     15  C   UNL     1       2.532   4.028  17.041  0.00  0.00    +0.000 A 
ATOM     16  C   UNL     1       3.751   3.716  17.663  0.00  0.00    +0.000 A 
ATOM     17  C   UNL     1       3.747   3.327  19.018  0.00  0.00    +0.000 A 
BRANCH  12  19
ATOM     18  N   UNL     1       2.547   2.504  22.221  0.00  0.00    +0.000 NA
ATOM     19  C   UNL     1       2.544   2.834  21.111  0.00  0.00    +0.000 C 
ENDBRANCH  12  19
ENDBRANCH  11  16
ENDBRANCH   1  11
TORSDOF 5
ENDMDL
MODEL 6
REMARK VINA RESULT:      -6.8      4.065      6.889
REMARK  Name = 
REMARK  5 active torsions:
REMARK  status: ('A' for Active; 'I' for Inactive)
REMARK    1  A    between atoms: C_2  and  C_3
REMARK    2  A    between atoms: C_7  and  C_8
REMARK    3  A    between atoms: C_8  and  C_9
REMARK    4  A    between atoms: CA_12  and  C_13
REMARK    5  A    between atoms: C_13  and  OXT_15
REMARK                            x       y       z     vdW  Elec       q    Type
REMARK                         _______ _______ _______ _____ _____    ______ ____
ROOT
ATOM      1  C   UNL     1       2.653   4.333  17.865  0.00  0.00    +0.000 C 
ATOM      2  C   UNL     1       3.436   3.067  18.198  0.00  0.00    +0.000 C 
ATOM      3  N   UNL     1       3.806   3.186  19.609  0.00  0.00    +0.000 NA
ATOM      4  CA  UNL     1       2.710   3.955  20.234  0.00  0.00    +0.000 C 
ATOM      5  C   UNL     1       1.772   4.406  19.100  0.00  0.00    +0.000 C 
ATOM      6  H   UNL     1       4.681   3.761  19.659  0.00  0.00    +0.000 HD
ENDROOT
BRANCH   4   7
ATOM      7  C   UNL     1       1.971   3.106  21.251  0.00  0.00    +0.000 C 
ATOM      8  O   UNL     1       2.568   2.643  22.211  0.00  0.00    +0.000 OA
BRANCH   7   9
ATOM      9  OXT UNL     1       0.659   2.830  21.103  0.00  0.00    +0.000 OA
ATOM     10  HXT UNL     1      -0.026   3.371  21.518  0.00  0.00    +0.000 HD
ENDBRANCH   7   9
ENDBRANCH   4   7
BRANCH   1  11
ATOM     11  C   UNL     1       3.559   5.577  17.682  0.00  0.00    +0.000 C 
BRANCH  11  16
ATOM     12  C   UNL     1       6.139   4.414  15.090  0.00  0.00    +0.000 A 
ATOM     13  C   UNL     1       7.333   4.560  15.810  0.00  0.00    +0.000 A 
ATOM     14  C   UNL     1       7.305   5.035  17.121  0.00  0.00    +0.000 A 
ATOM     15  C   UNL     1       6.085   5.363  17.726  0.00  0.00    +0.000 A 
ATOM     16  C   UNL     1       4.880   5.222  17.019  0.00  0.00    +0.000 A 
ATOM     17  C   UNL     1       4.918   4.748  15.691  0.00  0.00    +0.000 A 
BRANCH  12  19
ATOM     18  N   UNL     1       6.194   3.518  12.652  0.00  0.00    +0.000 NA
ATOM     19  C   UNL     1       6.171   3.917  13.739  0.00  0.00    +0.000 C 
ENDBRANCH  12  19
ENDBRANCH  11  16
ENDBRANCH   1  11
TORSDOF 5
ENDMDL
MODEL 7
REMARK VINA RESULT:      -6.7      1.767      2.458
REMARK  Name = 
REMARK  5 active torsions:
REMARK  status: ('A' for Active; 'I' for Inactive)
REMARK    1  A    between atoms: C_2  and  C_3
REMARK    2  A    between atoms: C_7  and  C_8
REMARK    3  A    between atoms: C_8  and  C_9
REMARK    4  A    between atoms: CA_12  and  C_13
REMARK    5  A    between atoms: C_13  and  OXT_15
REMARK                            x       y       z     vdW  Elec       q    Type
REMARK                         _______ _______ _______ _____ _____    ______ ____
ROOT
ATOM      1  C   UNL     1       5.572   5.236  17.949  0.00  0.00    +0.000 C 
ATOM      2  C   UNL     1       7.084   5.411  17.839  0.00  0.00    +0.000 C 
ATOM      3  N   UNL     1       7.541   4.364  16.924  0.00  0.00    +0.000 NA
ATOM      4  CA  UNL     1       6.422   4.155  15.982  0.00  0.00    +0.000 C 
ATOM      5  C   UNL     1       5.245   5.012  16.483  0.00  0.00    +0.000 C 
ATOM      6  H   UNL     1       7.667   3.487  17.485  0.00  0.00    +0.000 HD
ENDROOT
BRANCH   4   7
ATOM      7  C   UNL     1       6.825   4.548  14.574  0.00  0.00    +0.000 C 
ATOM      8  O   UNL     1       6.327   3.981  13.614  0.00  0.00    +0.000 OA
BRANCH   7   9
ATOM      9  OXT UNL     1       7.750   5.506  14.358  0.00  0.00    +0.000 OA
ATOM     10  HXT UNL     1       7.953   6.178  15.023  0.00  0.00    +0.000 HD
ENDBRANCH   7   9
ENDBRANCH   4   7
BRANCH   1  11
ATOM     11  C   UNL     1       5.163   4.049  18.858  0.00  0.00    +0.000 C 
BRANCH  11  16
ATOM     12  C   UNL     1       2.026   5.680  20.351  0.00  0.00    +0.000 A 
ATOM     13  C   UNL     1       1.197   4.563  20.529  0.00  0.00    +0.000 A 
ATOM     14  C   UNL     1       1.646   3.295  20.163  0.00  0.00    +0.000 A 
ATOM     15  C   UNL     1       2.928   3.129  19.625  0.00  0.00    +0.000 A 
ATOM     16  C   UNL     1       3.771   4.236  19.441  0.00  0.00    +0.000 A 
ATOM     17  C   UNL     1       3.307   5.516  19.807  0.00  0.00    +0.000 A 
BRANCH  12  19
ATOM     18  N   UNL     1       1.187   8.038  21.044  0.00  0.00    +0.000 NA
ATOM     19  C   UNL     1       1.562   6.988  20.735  0.00  0.00    +0.000 C 
ENDBRANCH  12  19
ENDBRANCH  11  16
ENDBRANCH   1  11
TORSDOF 5
ENDMDL
MODEL 8
REMARK VINA RESULT:      -6.7      2.925      3.936
REMARK  Name = 
REMARK  5 active torsions:
REMARK  status: ('A' for Active; 'I' for Inactive)
REMARK    1  A    between atoms: C_2  and  C_3
REMARK    2  A    between atoms: C_7  and  C_8
REMARK    3  A    between atoms: C_8  and  C_9
REMARK    4  A    between atoms: CA_12  and  C_13
REMARK    5  A    between atoms: C_13  and  OXT_15
REMARK                            x       y       z     vdW  Elec       q    Type
REMARK                         _______ _______ _______ _____ _____    ______ ____
ROOT
ATOM      1  C   UNL     1       4.355   5.550  19.001  0.00  0.00    +0.000 C 
ATOM      2  C   UNL     1       4.732   4.085  19.194  0.00  0.00    +0.000 C 
ATOM      3  N   UNL     1       5.120   3.594  17.872  0.00  0.00    +0.000 NA
ATOM      4  CA  UNL     1       5.706   4.762  17.181  0.00  0.00    +0.000 C 
ATOM      5  C   UNL     1       5.500   5.979  18.100  0.00  0.00    +0.000 C 
ATOM      6  H   UNL     1       4.244   3.319  17.366  0.00  0.00    +0.000 HD
ENDROOT
BRANCH   4   7
ATOM      7  C   UNL     1       7.178   4.533  16.896  0.00  0.00    +0.000 C 
ATOM      8  O   UNL     1       7.624   4.738  15.777  0.00  0.00    +0.000 OA
BRANCH   7   9
ATOM      9  OXT UNL     1       8.010   4.082  17.857  0.00  0.00    +0.000 OA
ATOM     10  HXT UNL     1       8.177   4.585  18.665  0.00  0.00    +0.000 HD
ENDBRANCH   7   9
ENDBRANCH   4   7
BRANCH   1  11
ATOM     11  C   UNL     1       2.960   5.738  18.352  0.00  0.00    +0.000 C 
BRANCH  11  16
ATOM     12  C   UNL     1       1.493   8.689  20.319  0.00  0.00    +0.000 A 
ATOM     13  C   UNL     1       1.234   9.602  19.288  0.00  0.00    +0.000 A 
ATOM     14  C   UNL     1       1.537   9.269  17.968  0.00  0.00    +0.000 A 
ATOM     15  C   UNL     1       2.093   8.020  17.666  0.00  0.00    +0.000 A 
ATOM     16  C   UNL     1       2.358   7.094  18.687  0.00  0.00    +0.000 A 
ATOM     17  C   UNL     1       2.055   7.441  20.020  0.00  0.00    +0.000 A 
BRANCH  12  19
ATOM     18  N   UNL     1       0.918   9.308  22.776  0.00  0.00    +0.000 NA
ATOM     19  C   UNL     1       1.174   9.033  21.681  0.00  0.00    +0.000 C 
ENDBRANCH  12  19
ENDBRANCH  11  16
ENDBRANCH   1  11
TORSDOF 5
ENDMDL
MODEL 9
REMARK VINA RESULT:      -6.6      1.649      2.215
REMARK  Name = 
REMARK  5 active torsions:
REMARK  status: ('A' for Active; 'I' for Inactive)
REMARK    1  A    between atoms: C_2  and  C_3
REMARK    2  A    between atoms: C_7  and  C_8
REMARK    3  A    between atoms: C_8  and  C_9
REMARK    4  A    between atoms: CA_12  and  C_13
REMARK    5  A    between atoms: C_13  and  OXT_15
REMARK                            x       y       z     vdW  Elec       q    Type
REMARK                         _______ _______ _______ _____ _____    ______ ____
ROOT
ATOM      1  C   UNL     1       4.716   4.756  17.037  0.00  0.00    +0.000 C 
ATOM      2  C   UNL     1       6.175   4.924  17.451  0.00  0.00    +0.000 C 
ATOM      3  N   UNL     1       6.943   4.038  16.578  0.00  0.00    +0.000 NA
ATOM      4  CA  UNL     1       6.195   4.004  15.303  0.00  0.00    +0.000 C 
ATOM      5  C   UNL     1       4.886   4.783  15.528  0.00  0.00    +0.000 C 
ATOM      6  H   UNL     1       6.917   3.078  16.999  0.00  0.00    +0.000 HD
ENDROOT
BRANCH   4   7
ATOM      7  C   UNL     1       7.013   4.620  14.184  0.00  0.00    +0.000 C 
ATOM      8  O   UNL     1       7.799   5.523  14.427  0.00  0.00    +0.000 OA
BRANCH   7   9
ATOM      9  OXT UNL     1       6.872   4.203  12.909  0.00  0.00    +0.000 OA
ATOM     10  HXT UNL     1       7.026   4.794  12.160  0.00  0.00    +0.000 HD
ENDBRANCH   7   9
ENDBRANCH   4   7
BRANCH   1  11
ATOM     11  C   UNL     1       4.085   3.440  17.561  0.00  0.00    +0.000 C 
BRANCH  11  16
ATOM     12  C   UNL     1       1.815   5.237  20.081  0.00  0.00    +0.000 A 
ATOM     13  C   UNL     1       1.031   4.173  20.548  0.00  0.00    +0.000 A 
ATOM     14  C   UNL     1       1.230   2.887  20.048  0.00  0.00    +0.000 A 
ATOM     15  C   UNL     1       2.218   2.650  19.084  0.00  0.00    +0.000 A 
ATOM     16  C   UNL     1       3.012   3.704  18.606  0.00  0.00    +0.000 A 
ATOM     17  C   UNL     1       2.800   5.003  19.111  0.00  0.00    +0.000 A 
BRANCH  12  19
ATOM     18  N   UNL     1       1.449   7.630  21.022  0.00  0.00    +0.000 NA
ATOM     19  C   UNL     1       1.611   6.563  20.603  0.00  0.00    +0.000 C 
ENDBRANCH  12  19
ENDBRANCH  11  16
ENDBRANCH   1  11
TORSDOF 5
ENDMDL
