MODEL 1
REMARK VINA RESULT:      -8.3      0.000      0.000
REMARK  Name = 
REMARK  8 active torsions:
REMARK  status: ('A' for Active; 'I' for Inactive)
REMARK    1  A    between atoms: C_1  and  C_2
REMARK    2  A    between atoms: C_2  and  O_3
REMARK    3  A    between atoms: O_3  and  C_4
REMARK    4  A    between atoms: C_13  and  C_14
REMARK    5  A    between atoms: N_15  and  N_16
REMARK    6  A    between atoms: C_17  and  C_19
REMARK    7  A    between atoms: C_19  and  N_20
REMARK    8  A    between atoms: C_21  and  C_23
REMARK                            x       y       z     vdW  Elec       q    Type
REMARK                         _______ _______ _______ _____ _____    ______ ____
ROOT
ATOM      1  N   UNL     1       1.890   8.588  19.771  0.00  0.00    +0.000 N 
ATOM      2  C   UNL     1       0.967   8.619  20.820  0.00  0.00    +0.000 C 
ATOM      3  O   UNL     1       0.655   7.645  21.509  0.00  0.00    +0.000 OA
ATOM      4  H   UNL     1       2.079   9.412  19.206  0.00  0.00    +0.000 HD
ENDROOT
BRANCH   1   6
ATOM      5  C   UNL     1       2.665   7.027  18.255  0.00  0.00    +0.000 C 
ATOM      6  N   UNL     1       2.513   7.396  19.491  0.00  0.00    +0.000 NA
BRANCH   5  16
ATOM      7  C   UNL     1       4.650   5.749  17.338  0.00  0.00    +0.000 A 
ATOM      8  C   UNL     1       5.271   4.554  16.957  0.00  0.00    +0.000 A 
ATOM      9  C   UNL     1       4.653   3.335  17.162  0.00  0.00    +0.000 A 
ATOM     10  C   UNL     1       3.403   3.260  17.751  0.00  0.00    +0.000 A 
ATOM     11  C   UNL     1       2.846   2.002  17.992  0.00  0.00    +0.000 A 
ATOM     12  C   UNL     1       1.607   1.860  18.604  0.00  0.00    +0.000 A 
ATOM     13  C   UNL     1       0.905   2.991  18.981  0.00  0.00    +0.000 A 
ATOM     14  C   UNL     1       1.443   4.265  18.755  0.00  0.00    +0.000 A 
ATOM     15  C   UNL     1       2.707   4.460  18.136  0.00  0.00    +0.000 A 
ATOM     16  C   UNL     1       3.347   5.726  17.892  0.00  0.00    +0.000 A 
BRANCH   7  17
ATOM     17  O   UNL     1       5.332   6.938  17.221  0.00  0.00    +0.000 OA
BRANCH  17  19
ATOM     18  C   UNL     1       7.558   7.705  17.639  0.00  0.00    +0.000 C 
ATOM     19  C   UNL     1       6.701   6.798  16.795  0.00  0.00    +0.000 C 
ENDBRANCH  17  19
ENDBRANCH   7  17
ENDBRANCH   5  16
ENDBRANCH   1   6
BRANCH   2  20
ATOM     20  C   UNL     1       0.289   9.974  21.049  0.00  0.00    +0.000 C 
BRANCH  20  21
ATOM     21  N   UNL     1      -0.841  10.157  20.158  0.00  0.00    +0.000 N 
ATOM     22  C   UNL     1      -0.696  10.644  18.879  0.00  0.00    +0.000 C 
ATOM     23  O   UNL     1       0.394  10.990  18.427  0.00  0.00    +0.000 OA
ATOM     24  H   UNL     1      -1.749   9.841  20.484  0.00  0.00    +0.000 HD
BRANCH  22  25
ATOM     25  C   UNL     1      -1.918  10.741  18.033  0.00  0.00    +0.000 A 
ATOM     26  C   UNL     1      -1.995   9.962  16.865  0.00  0.00    +0.000 A 
ATOM     27  C   UNL     1      -3.123  10.030  16.040  0.00  0.00    +0.000 A 
ATOM     28  C   UNL     1      -4.177  10.881  16.367  0.00  0.00    +0.000 A 
ATOM     29  C   UNL     1      -4.103  11.665  17.519  0.00  0.00    +0.000 A 
ATOM     30  C   UNL     1      -2.982  11.587  18.344  0.00  0.00    +0.000 A 
ATOM     31  F   UNL     1      -2.944  12.370  19.433  0.00  0.00    +0.000 F 
ENDBRANCH  22  25
ENDBRANCH  20  21
ENDBRANCH   2  20
TORSDOF 7
ENDMDL
MODEL 2
REMARK VINA RESULT:      -8.1      2.538      3.131
REMARK  Name = 
REMARK  8 active torsions:
REMARK  status: ('A' for Active; 'I' for Inactive)
REMARK    1  A    between atoms: C_1  and  C_2
REMARK    2  A    between atoms: C_2  and  O_3
REMARK    3  A    between atoms: O_3  and  C_4
REMARK    4  A    between atoms: C_13  and  C_14
REMARK    5  A    between atoms: N_15  and  N_16
REMARK    6  A    between atoms: C_17  and  C_19
REMARK    7  A    between atoms: C_19  and  N_20
REMARK    8  A    between atoms: C_21  and  C_23
REMARK                            x       y       z     vdW  Elec       q    Type
REMARK                         _______ _______ _______ _____ _____    ______ ____
ROOT
ATOM      1  N   UNL     1       1.895   9.217  17.840  0.00  0.00    +0.000 N 
ATOM      2  C   UNL     1       1.253   9.651  19.003  0.00  0.00    +0.000 C 
ATOM      3  O   UNL     1       0.819   8.906  19.884  0.00  0.00    +0.000 OA
ATOM      4  H   UNL     1       2.196   9.873  17.123  0.00  0.00    +0.000 HD
ENDROOT
BRANCH   1   6
ATOM      5  C   UNL     1       3.155   7.299  18.112  0.00  0.00    +0.000 C 
ATOM      6  N   UNL     1       2.074   7.866  17.665  0.00  0.00    +0.000 NA
BRANCH   5  16
ATOM      7  C   UNL     1       4.384   5.366  17.033  0.00  0.00    +0.000 A 
ATOM      8  C   UNL     1       4.587   3.995  16.841  0.00  0.00    +0.000 A 
ATOM      9  C   UNL     1       3.878   3.061  17.573  0.00  0.00    +0.000 A 
ATOM     10  C   UNL     1       2.947   3.455  18.518  0.00  0.00    +0.000 A 
ATOM     11  C   UNL     1       2.299   2.476  19.274  0.00  0.00    +0.000 A 
ATOM     12  C   UNL     1       1.373   2.809  20.255  0.00  0.00    +0.000 A 
ATOM     13  C   UNL     1       1.082   4.142  20.488  0.00  0.00    +0.000 A 
ATOM     14  C   UNL     1       1.721   5.143  19.746  0.00  0.00    +0.000 A 
ATOM     15  C   UNL     1       2.677   4.853  18.735  0.00  0.00    +0.000 A 
ATOM     16  C   UNL     1       3.400   5.816  17.948  0.00  0.00    +0.000 A 
BRANCH   7  17
ATOM     17  O   UNL     1       5.180   6.272  16.370  0.00  0.00    +0.000 OA
BRANCH  17  19
ATOM     18  C   UNL     1       7.162   7.027  17.474  0.00  0.00    +0.000 C 
ATOM     19  C   UNL     1       6.593   6.027  16.501  0.00  0.00    +0.000 C 
ENDBRANCH  17  19
ENDBRANCH   7  17
ENDBRANCH   5  16
ENDBRANCH   1   6
BRANCH   2  20
ATOM     20  C   UNL     1       1.060  11.167  19.111  0.00  0.00    +0.000 C 
BRANCH  20  21
ATOM     21  N   UNL     1      -0.145  11.494  19.849  0.00  0.00    +0.000 N 
ATOM     22  C   UNL     1      -0.109  12.131  21.070  0.00  0.00    +0.000 C 
ATOM     23  O   UNL     1       0.947  12.426  21.625  0.00  0.00    +0.000 OA
ATOM     24  H   UNL     1      -1.036  11.304  19.399  0.00  0.00    +0.000 HD
BRANCH  22  25
ATOM     25  C   UNL     1      -1.409  12.466  21.713  0.00  0.00    +0.000 A 
ATOM     26  C   UNL     1      -2.213  13.463  21.134  0.00  0.00    +0.000 A 
ATOM     27  C   UNL     1      -3.438  13.813  21.713  0.00  0.00    +0.000 A 
ATOM     28  C   UNL     1      -3.866  13.178  22.878  0.00  0.00    +0.000 A 
ATOM     29  C   UNL     1      -3.069  12.195  23.464  0.00  0.00    +0.000 A 
ATOM     30  C   UNL     1      -1.853  11.843  22.879  0.00  0.00    +0.000 A 
ATOM     31  F   UNL     1      -1.110  10.905  23.485  0.00  0.00    +0.000 F 
ENDBRANCH  22  25
ENDBRANCH  20  21
ENDBRANCH   2  20
TORSDOF 7
ENDMDL
MODEL 3
REMARK VINA RESULT:      -8.1      1.621      3.471
REMARK  Name = 
REMARK  8 active torsions:
REMARK  status: ('A' for Active; 'I' for Inactive)
REMARK    1  A    between atoms: C_1  and  C_2
REMARK    2  A    between atoms: C_2  and  O_3
REMARK    3  A    between atoms: O_3  and  C_4
REMARK    4  A    between atoms: C_13  and  C_14
REMARK    5  A    between atoms: N_15  and  N_16
REMARK    6  A    between atoms: C_17  and  C_19
REMARK    7  A    between atoms: C_19  and  N_20
REMARK    8  A    between atoms: C_21  and  C_23
REMARK                            x       y       z     vdW  Elec       q    Type
REMARK                         _______ _______ _______ _____ _____    ______ ____
ROOT
ATOM      1  N   UNL     1       1.892   8.456  19.583  0.00  0.00    +0.000 N 
ATOM      2  C   UNL     1       1.243   8.656  20.804  0.00  0.00    +0.000 C 
ATOM      3  O   UNL     1       1.170   7.818  21.706  0.00  0.00    +0.000 OA
ATOM      4  H   UNL     1       1.885   9.166  18.855  0.00  0.00    +0.000 HD
ENDROOT
BRANCH   1   6
ATOM      5  C   UNL     1       2.271   6.589  18.276  0.00  0.00    +0.000 C 
ATOM      6  N   UNL     1       2.512   7.248  19.369  0.00  0.00    +0.000 NA
BRANCH   5  16
ATOM      7  C   UNL     1       2.380   4.073  18.540  0.00  0.00    +0.000 A 
ATOM      8  C   UNL     1       3.008   2.842  18.319  0.00  0.00    +0.000 A 
ATOM      9  C   UNL     1       4.133   2.749  17.522  0.00  0.00    +0.000 A 
ATOM     10  C   UNL     1       4.672   3.873  16.919  0.00  0.00    +0.000 A 
ATOM     11  C   UNL     1       5.775   3.720  16.075  0.00  0.00    +0.000 A 
ATOM     12  C   UNL     1       6.345   4.805  15.420  0.00  0.00    +0.000 A 
ATOM     13  C   UNL     1       5.811   6.068  15.610  0.00  0.00    +0.000 A 
ATOM     14  C   UNL     1       4.703   6.247  16.448  0.00  0.00    +0.000 A 
ATOM     15  C   UNL     1       4.084   5.168  17.136  0.00  0.00    +0.000 A 
ATOM     16  C   UNL     1       2.929   5.257  17.990  0.00  0.00    +0.000 A 
BRANCH   7  17
ATOM     17  O   UNL     1       1.201   4.119  19.247  0.00  0.00    +0.000 OA
BRANCH  17  19
ATOM     18  C   UNL     1       1.288   2.820  21.253  0.00  0.00    +0.000 C 
ATOM     19  C   UNL     1       1.368   4.209  20.675  0.00  0.00    +0.000 C 
ENDBRANCH  17  19
ENDBRANCH   7  17
ENDBRANCH   5  16
ENDBRANCH   1   6
BRANCH   2  20
ATOM     20  C   UNL     1       0.547  10.013  20.955  0.00  0.00    +0.000 C 
BRANCH  20  21
ATOM     21  N   UNL     1      -0.644  10.091  20.130  0.00  0.00    +0.000 N 
ATOM     22  C   UNL     1      -0.796  11.044  19.148  0.00  0.00    +0.000 C 
ATOM     23  O   UNL     1       0.050  11.911  18.938  0.00  0.00    +0.000 OA
ATOM     24  H   UNL     1      -1.343   9.364  20.247  0.00  0.00    +0.000 HD
BRANCH  22  25
ATOM     25  C   UNL     1      -2.036  10.997  18.325  0.00  0.00    +0.000 A 
ATOM     26  C   UNL     1      -3.132  11.790  18.708  0.00  0.00    +0.000 A 
ATOM     27  C   UNL     1      -4.317  11.768  17.966  0.00  0.00    +0.000 A 
ATOM     28  C   UNL     1      -4.423  10.949  16.842  0.00  0.00    +0.000 A 
ATOM     29  C   UNL     1      -3.343  10.153  16.462  0.00  0.00    +0.000 A 
ATOM     30  C   UNL     1      -2.159  10.184  17.199  0.00  0.00    +0.000 A 
ATOM     31  F   UNL     1      -1.151   9.390  16.808  0.00  0.00    +0.000 F 
ENDBRANCH  22  25
ENDBRANCH  20  21
ENDBRANCH   2  20
TORSDOF 7
ENDMDL
MODEL 4
REMARK VINA RESULT:      -8.1      0.923      1.292
REMARK  Name = 
REMARK  8 active torsions:
REMARK  status: ('A' for Active; 'I' for Inactive)
REMARK    1  A    between atoms: C_1  and  C_2
REMARK    2  A    between atoms: C_2  and  O_3
REMARK    3  A    between atoms: O_3  and  C_4
REMARK    4  A    between atoms: C_13  and  C_14
REMARK    5  A    between atoms: N_15  and  N_16
REMARK    6  A    between atoms: C_17  and  C_19
REMARK    7  A    between atoms: C_19  and  N_20
REMARK    8  A    between atoms: C_21  and  C_23
REMARK                            x       y       z     vdW  Elec       q    Type
REMARK                         _______ _______ _______ _____ _____    ______ ____
ROOT
ATOM      1  N   UNL     1       1.956   8.670  19.475  0.00  0.00    +0.000 N 
ATOM      2  C   UNL     1       1.178   8.799  20.629  0.00  0.00    +0.000 C 
ATOM      3  O   UNL     1       0.967   7.893  21.438  0.00  0.00    +0.000 OA
ATOM      4  H   UNL     1       2.063   9.438  18.818  0.00  0.00    +0.000 HD
ENDROOT
BRANCH   1   6
ATOM      5  C   UNL     1       2.916   7.158  18.016  0.00  0.00    +0.000 C 
ATOM      6  N   UNL     1       2.547   7.454  19.225  0.00  0.00    +0.000 NA
BRANCH   5  16
ATOM      7  C   UNL     1       4.892   5.819  17.170  0.00  0.00    +0.000 A 
ATOM      8  C   UNL     1       5.492   4.604  16.820  0.00  0.00    +0.000 A 
ATOM      9  C   UNL     1       4.838   3.404  17.020  0.00  0.00    +0.000 A 
ATOM     10  C   UNL     1       3.569   3.368  17.574  0.00  0.00    +0.000 A 
ATOM     11  C   UNL     1       2.973   2.128  17.811  0.00  0.00    +0.000 A 
ATOM     12  C   UNL     1       1.714   2.025  18.388  0.00  0.00    +0.000 A 
ATOM     13  C   UNL     1       1.030   3.178  18.733  0.00  0.00    +0.000 A 
ATOM     14  C   UNL     1       1.608   4.434  18.509  0.00  0.00    +0.000 A 
ATOM     15  C   UNL     1       2.894   4.590  17.925  0.00  0.00    +0.000 A 
ATOM     16  C   UNL     1       3.573   5.836  17.687  0.00  0.00    +0.000 A 
BRANCH   7  17
ATOM     17  O   UNL     1       5.608   6.989  17.061  0.00  0.00    +0.000 OA
BRANCH  17  19
ATOM     18  C   UNL     1       7.647   8.104  17.626  0.00  0.00    +0.000 C 
ATOM     19  C   UNL     1       7.037   6.819  17.129  0.00  0.00    +0.000 C 
ENDBRANCH  17  19
ENDBRANCH   7  17
ENDBRANCH   5  16
ENDBRANCH   1   6
BRANCH   2  20
ATOM     20  C   UNL     1       0.526  10.172  20.822  0.00  0.00    +0.000 C 
BRANCH  20  21
ATOM     21  N   UNL     1      -0.734  10.263  20.108  0.00  0.00    +0.000 N 
ATOM     22  C   UNL     1      -0.954  11.201  19.124  0.00  0.00    +0.000 C 
ATOM     23  O   UNL     1      -0.112  12.043  18.819  0.00  0.00    +0.000 OA
ATOM     24  H   UNL     1      -1.435   9.556  20.305  0.00  0.00    +0.000 HD
BRANCH  22  25
ATOM     25  C   UNL     1      -2.266  11.169  18.420  0.00  0.00    +0.000 A 
ATOM     26  C   UNL     1      -3.328  11.933  18.933  0.00  0.00    +0.000 A 
ATOM     27  C   UNL     1      -4.578  11.924  18.305  0.00  0.00    +0.000 A 
ATOM     28  C   UNL     1      -4.781  11.145  17.166  0.00  0.00    +0.000 A 
ATOM     29  C   UNL     1      -3.735  10.377  16.657  0.00  0.00    +0.000 A 
ATOM     30  C   UNL     1      -2.487  10.396  17.280  0.00  0.00    +0.000 A 
ATOM     31  F   UNL     1      -1.514   9.629  16.767  0.00  0.00    +0.000 F 
ENDBRANCH  22  25
ENDBRANCH  20  21
ENDBRANCH   2  20
TORSDOF 7
ENDMDL
MODEL 5
REMARK VINA RESULT:      -8.1      1.797      3.841
REMARK  Name = 
REMARK  8 active torsions:
REMARK  status: ('A' for Active; 'I' for Inactive)
REMARK    1  A    between atoms: C_1  and  C_2
REMARK    2  A    between atoms: C_2  and  O_3
REMARK    3  A    between atoms: O_3  and  C_4
REMARK    4  A    between atoms: C_13  and  C_14
REMARK    5  A    between atoms: N_15  and  N_16
REMARK    6  A    between atoms: C_17  and  C_19
REMARK    7  A    between atoms: C_19  and  N_20
REMARK    8  A    between atoms: C_21  and  C_23
REMARK                            x       y       z     vdW  Elec       q    Type
REMARK                         _______ _______ _______ _____ _____    ______ ____
ROOT
ATOM      1  N   UNL     1       1.528   8.790  18.621  0.00  0.00    +0.000 N 
ATOM      2  C   UNL     1       1.831  10.083  18.185  0.00  0.00    +0.000 C 
ATOM      3  O   UNL     1       2.648  10.352  17.301  0.00  0.00    +0.000 OA
ATOM      4  H   UNL     1       0.876   8.627  19.385  0.00  0.00    +0.000 HD
ENDROOT
BRANCH   1   6
ATOM      5  C   UNL     1       2.560   6.726  18.732  0.00  0.00    +0.000 C 
ATOM      6  N   UNL     1       2.167   7.735  18.015  0.00  0.00    +0.000 NA
BRANCH   5  16
ATOM      7  C   UNL     1       2.575   4.310  17.975  0.00  0.00    +0.000 A 
ATOM      8  C   UNL     1       3.233   3.193  17.447  0.00  0.00    +0.000 A 
ATOM      9  C   UNL     1       4.539   3.280  17.004  0.00  0.00    +0.000 A 
ATOM     10  C   UNL     1       5.235   4.475  17.069  0.00  0.00    +0.000 A 
ATOM     11  C   UNL     1       6.532   4.528  16.555  0.00  0.00    +0.000 A 
ATOM     12  C   UNL     1       7.272   5.703  16.568  0.00  0.00    +0.000 A 
ATOM     13  C   UNL     1       6.713   6.850  17.105  0.00  0.00    +0.000 A 
ATOM     14  C   UNL     1       5.413   6.824  17.624  0.00  0.00    +0.000 A 
ATOM     15  C   UNL     1       4.616   5.647  17.630  0.00  0.00    +0.000 A 
ATOM     16  C   UNL     1       3.265   5.539  18.114  0.00  0.00    +0.000 A 
BRANCH   7  17
ATOM     17  O   UNL     1       1.242   4.222  18.307  0.00  0.00    +0.000 OA
BRANCH  17  19
ATOM     18  C   UNL     1       1.095   3.427  20.557  0.00  0.00    +0.000 C 
ATOM     19  C   UNL     1       0.904   3.072  19.105  0.00  0.00    +0.000 C 
ENDBRANCH  17  19
ENDBRANCH   7  17
ENDBRANCH   5  16
ENDBRANCH   1   6
BRANCH   2  20
ATOM     20  C   UNL     1       1.104  11.207  18.931  0.00  0.00    +0.000 C 
BRANCH  20  21
ATOM     21  N   UNL     1      -0.207  11.456  18.363  0.00  0.00    +0.000 N 
ATOM     22  C   UNL     1      -1.321  10.742  18.746  0.00  0.00    +0.000 C 
ATOM     23  O   UNL     1      -1.264   9.826  19.563  0.00  0.00    +0.000 OA
ATOM     24  H   UNL     1      -0.297  12.235  17.719  0.00  0.00    +0.000 HD
BRANCH  22  25
ATOM     25  C   UNL     1      -2.626  11.119  18.137  0.00  0.00    +0.000 A 
ATOM     26  C   UNL     1      -3.584  11.765  18.938  0.00  0.00    +0.000 A 
ATOM     27  C   UNL     1      -4.826  12.128  18.405  0.00  0.00    +0.000 A 
ATOM     28  C   UNL     1      -5.126  11.841  17.074  0.00  0.00    +0.000 A 
ATOM     29  C   UNL     1      -4.184  11.191  16.277  0.00  0.00    +0.000 A 
ATOM     30  C   UNL     1      -2.944  10.839  16.808  0.00  0.00    +0.000 A 
ATOM     31  F   UNL     1      -2.074  10.200  16.012  0.00  0.00    +0.000 F 
ENDBRANCH  22  25
ENDBRANCH  20  21
ENDBRANCH   2  20
TORSDOF 7
ENDMDL
MODEL 6
REMARK VINA RESULT:      -8.0      1.600      3.401
REMARK  Name = 
REMARK  8 active torsions:
REMARK  status: ('A' for Active; 'I' for Inactive)
REMARK    1  A    between atoms: C_1  and  C_2
REMARK    2  A    between atoms: C_2  and  O_3
REMARK    3  A    between atoms: O_3  and  C_4
REMARK    4  A    between atoms: C_13  and  C_14
REMARK    5  A    between atoms: N_15  and  N_16
REMARK    6  A    between atoms: C_17  and  C_19
REMARK    7  A    between atoms: C_19  and  N_20
REMARK    8  A    between atoms: C_21  and  C_23
REMARK                            x       y       z     vdW  Elec       q    Type
REMARK                         _______ _______ _______ _____ _____    ______ ____
ROOT
ATOM      1  N   UNL     1       1.843   8.040  20.027  0.00  0.00    +0.000 N 
ATOM      2  C   UNL     1       1.602   9.074  19.120  0.00  0.00    +0.000 C 
ATOM      3  O   UNL     1       1.988   9.084  17.948  0.00  0.00    +0.000 OA
ATOM      4  H   UNL     1       1.539   8.102  20.996  0.00  0.00    +0.000 HD
ENDROOT
BRANCH   1   6
ATOM      5  C   UNL     1       1.964   6.080  18.809  0.00  0.00    +0.000 C 
ATOM      6  N   UNL     1       2.544   6.942  19.588  0.00  0.00    +0.000 NA
BRANCH   5  16
ATOM      7  C   UNL     1       2.251   3.568  18.680  0.00  0.00    +0.000 A 
ATOM      8  C   UNL     1       2.944   2.432  18.246  0.00  0.00    +0.000 A 
ATOM      9  C   UNL     1       4.029   2.542  17.397  0.00  0.00    +0.000 A 
ATOM     10  C   UNL     1       4.461   3.779  16.951  0.00  0.00    +0.000 A 
ATOM     11  C   UNL     1       5.525   3.835  16.048  0.00  0.00    +0.000 A 
ATOM     12  C   UNL     1       5.988   5.043  15.542  0.00  0.00    +0.000 A 
ATOM     13  C   UNL     1       5.384   6.222  15.946  0.00  0.00    +0.000 A 
ATOM     14  C   UNL     1       4.313   6.193  16.848  0.00  0.00    +0.000 A 
ATOM     15  C   UNL     1       3.802   4.981  17.389  0.00  0.00    +0.000 A 
ATOM     16  C   UNL     1       2.691   4.858  18.295  0.00  0.00    +0.000 A 
BRANCH   7  17
ATOM     17  O   UNL     1       1.110   3.422  19.435  0.00  0.00    +0.000 OA
BRANCH  17  19
ATOM     18  C   UNL     1       2.079   3.407  21.621  0.00  0.00    +0.000 C 
ATOM     19  C   UNL     1       1.280   2.617  20.617  0.00  0.00    +0.000 C 
ENDBRANCH  17  19
ENDBRANCH   7  17
ENDBRANCH   5  16
ENDBRANCH   1   6
BRANCH   2  20
ATOM     20  C   UNL     1       0.844  10.277  19.691  0.00  0.00    +0.000 C 
BRANCH  20  21
ATOM     21  N   UNL     1      -0.499  10.361  19.151  0.00  0.00    +0.000 N 
ATOM     22  C   UNL     1      -0.976  11.500  18.542  0.00  0.00    +0.000 C 
ATOM     23  O   UNL     1      -0.306  12.527  18.454  0.00  0.00    +0.000 OA
ATOM     24  H   UNL     1      -1.063   9.517  19.167  0.00  0.00    +0.000 HD
BRANCH  22  25
ATOM     25  C   UNL     1      -2.352  11.456  17.975  0.00  0.00    +0.000 A 
ATOM     26  C   UNL     1      -2.520  11.057  16.637  0.00  0.00    +0.000 A 
ATOM     27  C   UNL     1      -3.796  11.011  16.065  0.00  0.00    +0.000 A 
ATOM     28  C   UNL     1      -4.912  11.371  16.818  0.00  0.00    +0.000 A 
ATOM     29  C   UNL     1      -4.753  11.777  18.143  0.00  0.00    +0.000 A 
ATOM     30  C   UNL     1      -3.480  11.814  18.713  0.00  0.00    +0.000 A 
ATOM     31  F   UNL     1      -3.370  12.227  19.984  0.00  0.00    +0.000 F 
ENDBRANCH  22  25
ENDBRANCH  20  21
ENDBRANCH   2  20
TORSDOF 7
ENDMDL
MODEL 7
REMARK VINA RESULT:      -8.0      1.913      3.552
REMARK  Name = 
REMARK  8 active torsions:
REMARK  status: ('A' for Active; 'I' for Inactive)
REMARK    1  A    between atoms: C_1  and  C_2
REMARK    2  A    between atoms: C_2  and  O_3
REMARK    3  A    between atoms: O_3  and  C_4
REMARK    4  A    between atoms: C_13  and  C_14
REMARK    5  A    between atoms: N_15  and  N_16
REMARK    6  A    between atoms: C_17  and  C_19
REMARK    7  A    between atoms: C_19  and  N_20
REMARK    8  A    between atoms: C_21  and  C_23
REMARK                            x       y       z     vdW  Elec       q    Type
REMARK                         _______ _______ _______ _____ _____    ______ ____
ROOT
ATOM      1  N   UNL     1       1.159   8.694  20.419  0.00  0.00    +0.000 N 
ATOM      2  C   UNL     1       1.104   9.444  21.597  0.00  0.00    +0.000 C 
ATOM      3  O   UNL     1       1.809   9.245  22.589  0.00  0.00    +0.000 OA
ATOM      4  H   UNL     1       0.524   8.874  19.645  0.00  0.00    +0.000 HD
ENDROOT
BRANCH   1   6
ATOM      5  C   UNL     1       2.196   7.000  19.239  0.00  0.00    +0.000 C 
ATOM      6  N   UNL     1       2.072   7.669  20.345  0.00  0.00    +0.000 NA
BRANCH   5  16
ATOM      7  C   UNL     1       3.171   4.806  20.043  0.00  0.00    +0.000 A 
ATOM      8  C   UNL     1       4.113   3.775  19.953  0.00  0.00    +0.000 A 
ATOM      9  C   UNL     1       5.035   3.741  18.924  0.00  0.00    +0.000 A 
ATOM     10  C   UNL     1       5.052   4.726  17.951  0.00  0.00    +0.000 A 
ATOM     11  C   UNL     1       5.963   4.617  16.899  0.00  0.00    +0.000 A 
ATOM     12  C   UNL     1       6.012   5.558  15.878  0.00  0.00    +0.000 A 
ATOM     13  C   UNL     1       5.140   6.633  15.906  0.00  0.00    +0.000 A 
ATOM     14  C   UNL     1       4.214   6.764  16.949  0.00  0.00    +0.000 A 
ATOM     15  C   UNL     1       4.124   5.825  18.012  0.00  0.00    +0.000 A 
ATOM     16  C   UNL     1       3.187   5.865  19.104  0.00  0.00    +0.000 A 
BRANCH   7  17
ATOM     17  O   UNL     1       2.197   4.756  21.015  0.00  0.00    +0.000 OA
BRANCH  17  19
ATOM     18  C   UNL     1       0.667   3.310  19.880  0.00  0.00    +0.000 C 
ATOM     19  C   UNL     1       1.519   3.488  21.110  0.00  0.00    +0.000 C 
ENDBRANCH  17  19
ENDBRANCH   7  17
ENDBRANCH   5  16
ENDBRANCH   1   6
BRANCH   2  20
ATOM     20  C   UNL     1       0.040  10.546  21.616  0.00  0.00    +0.000 C 
BRANCH  20  21
ATOM     21  N   UNL     1      -0.899  10.393  20.522  0.00  0.00    +0.000 N 
ATOM     22  C   UNL     1      -1.123  11.392  19.601  0.00  0.00    +0.000 C 
ATOM     23  O   UNL     1      -0.571  12.487  19.673  0.00  0.00    +0.000 OA
ATOM     24  H   UNL     1      -1.340   9.485  20.407  0.00  0.00    +0.000 HD
BRANCH  22  25
ATOM     25  C   UNL     1      -2.069  11.106  18.487  0.00  0.00    +0.000 A 
ATOM     26  C   UNL     1      -3.337  11.714  18.504  0.00  0.00    +0.000 A 
ATOM     27  C   UNL     1      -4.257  11.465  17.480  0.00  0.00    +0.000 A 
ATOM     28  C   UNL     1      -3.925  10.601  16.438  0.00  0.00    +0.000 A 
ATOM     29  C   UNL     1      -2.674   9.986  16.420  0.00  0.00    +0.000 A 
ATOM     30  C   UNL     1      -1.755  10.244  17.437  0.00  0.00    +0.000 A 
ATOM     31  F   UNL     1      -0.569   9.618  17.390  0.00  0.00    +0.000 F 
ENDBRANCH  22  25
ENDBRANCH  20  21
ENDBRANCH   2  20
TORSDOF 7
ENDMDL
MODEL 8
REMARK VINA RESULT:      -7.9      2.299      2.941
REMARK  Name = 
REMARK  8 active torsions:
REMARK  status: ('A' for Active; 'I' for Inactive)
REMARK    1  A    between atoms: C_1  and  C_2
REMARK    2  A    between atoms: C_2  and  O_3
REMARK    3  A    between atoms: O_3  and  C_4
REMARK    4  A    between atoms: C_13  and  C_14
REMARK    5  A    between atoms: N_15  and  N_16
REMARK    6  A    between atoms: C_17  and  C_19
REMARK    7  A    between atoms: C_19  and  N_20
REMARK    8  A    between atoms: C_21  and  C_23
REMARK                            x       y       z     vdW  Elec       q    Type
REMARK                         _______ _______ _______ _____ _____    ______ ____
ROOT
ATOM      1  N   UNL     1       1.837   9.055  17.891  0.00  0.00    +0.000 N 
ATOM      2  C   UNL     1       1.297   9.502  19.099  0.00  0.00    +0.000 C 
ATOM      3  O   UNL     1       0.959   8.769  20.031  0.00  0.00    +0.000 OA
ATOM      4  H   UNL     1       2.059   9.700  17.137  0.00  0.00    +0.000 HD
ENDROOT
BRANCH   1   6
ATOM      5  C   UNL     1       3.132   7.157  18.139  0.00  0.00    +0.000 C 
ATOM      6  N   UNL     1       2.028   7.703  17.728  0.00  0.00    +0.000 NA
BRANCH   5  16
ATOM      7  C   UNL     1       4.367   5.226  17.063  0.00  0.00    +0.000 A 
ATOM      8  C   UNL     1       4.582   3.855  16.881  0.00  0.00    +0.000 A 
ATOM      9  C   UNL     1       3.892   2.921  17.632  0.00  0.00    +0.000 A 
ATOM     10  C   UNL     1       2.969   3.315  18.585  0.00  0.00    +0.000 A 
ATOM     11  C   UNL     1       2.340   2.337  19.358  0.00  0.00    +0.000 A 
ATOM     12  C   UNL     1       1.424   2.670  20.348  0.00  0.00    +0.000 A 
ATOM     13  C   UNL     1       1.123   4.002  20.572  0.00  0.00    +0.000 A 
ATOM     14  C   UNL     1       1.742   5.003  19.812  0.00  0.00    +0.000 A 
ATOM     15  C   UNL     1       2.688   4.712  18.792  0.00  0.00    +0.000 A 
ATOM     16  C   UNL     1       3.391   5.675  17.986  0.00  0.00    +0.000 A 
BRANCH   7  17
ATOM     17  O   UNL     1       5.145   6.133  16.381  0.00  0.00    +0.000 OA
BRANCH  17  19
ATOM     18  C   UNL     1       7.140   6.976  17.394  0.00  0.00    +0.000 C 
ATOM     19  C   UNL     1       6.562   5.908  16.501  0.00  0.00    +0.000 C 
ENDBRANCH  17  19
ENDBRANCH   7  17
ENDBRANCH   5  16
ENDBRANCH   1   6
BRANCH   2  20
ATOM     20  C   UNL     1       1.083  11.016  19.193  0.00  0.00    +0.000 C 
BRANCH  20  21
ATOM     21  N   UNL     1      -0.165  11.333  19.862  0.00  0.00    +0.000 N 
ATOM     22  C   UNL     1      -0.203  11.945  21.095  0.00  0.00    +0.000 C 
ATOM     23  O   UNL     1       0.817  12.225  21.721  0.00  0.00    +0.000 OA
ATOM     24  H   UNL     1      -1.026  11.155  19.354  0.00  0.00    +0.000 HD
BRANCH  22  25
ATOM     25  C   UNL     1      -1.540  12.272  21.664  0.00  0.00    +0.000 A 
ATOM     26  C   UNL     1      -1.824  11.888  22.986  0.00  0.00    +0.000 A 
ATOM     27  C   UNL     1      -3.071  12.169  23.554  0.00  0.00    +0.000 A 
ATOM     28  C   UNL     1      -4.047  12.827  22.806  0.00  0.00    +0.000 A 
ATOM     29  C   UNL     1      -3.776  13.202  21.491  0.00  0.00    +0.000 A 
ATOM     30  C   UNL     1      -2.528  12.928  20.930  0.00  0.00    +0.000 A 
ATOM     31  F   UNL     1      -2.315  13.291  19.657  0.00  0.00    +0.000 F 
ENDBRANCH  22  25
ENDBRANCH  20  21
ENDBRANCH   2  20
TORSDOF 7
ENDMDL
MODEL 9
REMARK VINA RESULT:      -7.9      5.722     10.181
REMARK  Name = 
REMARK  8 active torsions:
REMARK  status: ('A' for Active; 'I' for Inactive)
REMARK    1  A    between atoms: C_1  and  C_2
REMARK    2  A    between atoms: C_2  and  O_3
REMARK    3  A    between atoms: O_3  and  C_4
REMARK    4  A    between atoms: C_13  and  C_14
REMARK    5  A    between atoms: N_15  and  N_16
REMARK    6  A    between atoms: C_17  and  C_19
REMARK    7  A    between atoms: C_19  and  N_20
REMARK    8  A    between atoms: C_21  and  C_23
REMARK                            x       y       z     vdW  Elec       q    Type
REMARK                         _______ _______ _______ _____ _____    ______ ____
ROOT
ATOM      1  N   UNL     1       8.754   8.569  18.822  0.00  0.00    +0.000 N 
ATOM      2  C   UNL     1       7.849   8.060  17.888  0.00  0.00    +0.000 C 
ATOM      3  O   UNL     1       7.103   8.747  17.187  0.00  0.00    +0.000 OA
ATOM      4  H   UNL     1       9.317   7.955  19.406  0.00  0.00    +0.000 HD
ENDROOT
BRANCH   1   6
ATOM      5  C   UNL     1       9.698  10.439  19.799  0.00  0.00    +0.000 C 
ATOM      6  N   UNL     1       8.840   9.934  18.964  0.00  0.00    +0.000 NA
BRANCH   5  16
ATOM      7  C   UNL     1       9.435  12.520  21.216  0.00  0.00    +0.000 A 
ATOM      8  C   UNL     1       9.515  13.906  21.388  0.00  0.00    +0.000 A 
ATOM      9  C   UNL     1      10.032  14.718  20.396  0.00  0.00    +0.000 A 
ATOM     10  C   UNL     1      10.487  14.181  19.203  0.00  0.00    +0.000 A 
ATOM     11  C   UNL     1      11.055  15.035  18.255  0.00  0.00    +0.000 A 
ATOM     12  C   UNL     1      11.553  14.555  17.050  0.00  0.00    +0.000 A 
ATOM     13  C   UNL     1      11.482  13.199  16.780  0.00  0.00    +0.000 A 
ATOM     14  C   UNL     1      10.920  12.321  17.716  0.00  0.00    +0.000 A 
ATOM     15  C   UNL     1      10.401  12.765  18.963  0.00  0.00    +0.000 A 
ATOM     16  C   UNL     1       9.835  11.933  19.991  0.00  0.00    +0.000 A 
BRANCH   7  17
ATOM     17  O   UNL     1       9.017  11.727  22.261  0.00  0.00    +0.000 OA
BRANCH  17  19
ATOM     18  C   UNL     1       7.721  11.883  24.264  0.00  0.00    +0.000 C 
ATOM     19  C   UNL     1       7.709  12.053  22.767  0.00  0.00    +0.000 C 
ENDBRANCH  17  19
ENDBRANCH   7  17
ENDBRANCH   5  16
ENDBRANCH   1   6
BRANCH   2  20
ATOM     20  C   UNL     1       7.786   6.531  17.810  0.00  0.00    +0.000 C 
BRANCH  20  21
ATOM     21  N   UNL     1       6.432   6.048  17.996  0.00  0.00    +0.000 N 
ATOM     22  C   UNL     1       5.595   5.777  16.936  0.00  0.00    +0.000 C 
ATOM     23  O   UNL     1       5.933   5.966  15.770  0.00  0.00    +0.000 OA
ATOM     24  H   UNL     1       6.136   5.839  18.945  0.00  0.00    +0.000 HD
BRANCH  22  25
ATOM     25  C   UNL     1       4.244   5.234  17.243  0.00  0.00    +0.000 A 
ATOM     26  C   UNL     1       3.282   6.091  17.806  0.00  0.00    +0.000 A 
ATOM     27  C   UNL     1       2.003   5.618  18.116  0.00  0.00    +0.000 A 
ATOM     28  C   UNL     1       1.676   4.284  17.876  0.00  0.00    +0.000 A 
ATOM     29  C   UNL     1       2.627   3.425  17.327  0.00  0.00    +0.000 A 
ATOM     30  C   UNL     1       3.899   3.903  17.011  0.00  0.00    +0.000 A 
ATOM     31  F   UNL     1       4.789   3.039  16.500  0.00  0.00    +0.000 F 
ENDBRANCH  22  25
ENDBRANCH  20  21
ENDBRANCH   2  20
TORSDOF 7
ENDMDL
