MODEL 1
REMARK VINA RESULT:      -8.1      0.000      0.000
REMARK  Name = 
REMARK  8 active torsions:
REMARK  status: ('A' for Active; 'I' for Inactive)
REMARK    1  A    between atoms: C_1  and  C_2
REMARK    2  A    between atoms: C_8  and  C_9
REMARK    3  A    between atoms: C_12  and  O_13
REMARK    4  A    between atoms: O_13  and  C_14
REMARK    5  A    between atoms: C_14  and  C_15
REMARK    6  A    between atoms: C_15  and  C_16
REMARK    7  A    between atoms: C_16  and  N_17
REMARK    8  A    between atoms: N_20  and  C_21
REMARK                            x       y       z     vdW  Elec       q    Type
REMARK                         _______ _______ _______ _____ _____    ______ ____
ROOT
ATOM      1  O   UNL     1       0.607  11.571  18.674  0.00  0.00    +0.000 OA
ENDROOT
BRANCH   1   5
ATOM      2  C   UNL     1       2.066   7.718  19.291  0.00  0.00    +0.000 A 
ATOM      3  C   UNL     1       1.380   8.421  20.286  0.00  0.00    +0.000 A 
ATOM      4  C   UNL     1       0.906   9.711  20.038  0.00  0.00    +0.000 A 
ATOM      5  C   UNL     1       1.127  10.313  18.800  0.00  0.00    +0.000 A 
ATOM      6  C   UNL     1       1.802   9.615  17.800  0.00  0.00    +0.000 A 
ATOM      7  C   UNL     1       2.278   8.327  18.049  0.00  0.00    +0.000 A 
BRANCH   2  15
ATOM      8  C   UNL     1       1.308   2.797  21.796  0.00  0.00    +0.000 C 
ATOM      9  C   UNL     1       2.497   3.103  20.922  0.00  0.00    +0.000 A 
ATOM     10  C   UNL     1       3.447   2.160  20.702  0.00  0.00    +0.000 A 
ATOM     11  C   UNL     1       4.611   2.399  19.861  0.00  0.00    +0.000 A 
ATOM     12  C   UNL     1       4.753   3.595  19.269  0.00  0.00    +0.000 A 
ATOM     13  N   UNL     1       3.784   4.567  19.481  0.00  0.00    +0.000 N 
ATOM     14  C   UNL     1       3.714   5.843  18.987  0.00  0.00    +0.000 A 
ATOM     15  C   UNL     1       2.562   6.376  19.520  0.00  0.00    +0.000 A 
ATOM     16  N   UNL     1       1.931   5.472  20.340  0.00  0.00    +0.000 NA
ATOM     17  C   UNL     1       2.668   4.381  20.289  0.00  0.00    +0.000 A 
ENDBRANCH   2  15
ENDBRANCH   1   5
BRANCH   1  18
ATOM     18  C   UNL     1       1.060  12.508  19.649  0.00  0.00    +0.000 C 
BRANCH  18  19
ATOM     19  C   UNL     1       1.735  13.651  18.906  0.00  0.00    +0.000 C 
BRANCH  19  20
ATOM     20  C   UNL     1       2.786  14.347  19.769  0.00  0.00    +0.000 C 
BRANCH  20  21
ATOM     21  N   UNL     1       3.238  15.643  19.230  0.00  0.00    +0.000 NA
ATOM     22  C   UNL     1       4.232  16.319  20.099  0.00  0.00    +0.000 C 
ATOM     23  C   UNL     1       5.561  15.550  20.244  0.00  0.00    +0.000 C 
ATOM     24  N   UNL     1       6.151  15.265  18.923  0.00  0.00    +0.000 N 
ATOM     25  C   UNL     1       5.227  14.712  17.911  0.00  0.00    +0.000 C 
ATOM     26  C   UNL     1       3.871  15.462  17.901  0.00  0.00    +0.000 C 
BRANCH  24  27
ATOM     27  C   UNL     1       7.378  15.808  18.545  0.00  0.00    +0.000 A 
ATOM     28  C   UNL     1       7.579  17.200  18.652  0.00  0.00    +0.000 A 
ATOM     29  C   UNL     1       8.792  17.810  18.333  0.00  0.00    +0.000 A 
ATOM     30  C   UNL     1       9.846  17.042  17.860  0.00  0.00    +0.000 A 
ATOM     31  C   UNL     1       9.690  15.664  17.719  0.00  0.00    +0.000 A 
ATOM     32 CL   UNL     1      11.056  14.787  17.112  0.00  0.00    +0.000 Cl
ATOM     33  C   UNL     1       8.475  15.038  18.070  0.00  0.00    +0.000 A 
ATOM     34 CL   UNL     1       8.395  13.294  18.021  0.00  0.00    +0.000 Cl
ENDBRANCH  24  27
ENDBRANCH  20  21
ENDBRANCH  19  20
ENDBRANCH  18  19
ENDBRANCH   1  18
TORSDOF 7
ENDMDL
MODEL 2
REMARK VINA RESULT:      -7.7      1.021      1.894
REMARK  Name = 
REMARK  8 active torsions:
REMARK  status: ('A' for Active; 'I' for Inactive)
REMARK    1  A    between atoms: C_1  and  C_2
REMARK    2  A    between atoms: C_8  and  C_9
REMARK    3  A    between atoms: C_12  and  O_13
REMARK    4  A    between atoms: O_13  and  C_14
REMARK    5  A    between atoms: C_14  and  C_15
REMARK    6  A    between atoms: C_15  and  C_16
REMARK    7  A    between atoms: C_16  and  N_17
REMARK    8  A    between atoms: N_20  and  C_21
REMARK                            x       y       z     vdW  Elec       q    Type
REMARK                         _______ _______ _______ _____ _____    ______ ____
ROOT
ATOM      1  O   UNL     1       0.661  11.937  19.498  0.00  0.00    +0.000 OA
ENDROOT
BRANCH   1   5
ATOM      2  C   UNL     1       1.952   7.990  19.170  0.00  0.00    +0.000 A 
ATOM      3  C   UNL     1       2.056   8.896  18.110  0.00  0.00    +0.000 A 
ATOM      4  C   UNL     1       1.612  10.211  18.262  0.00  0.00    +0.000 A 
ATOM      5  C   UNL     1       1.047  10.626  19.467  0.00  0.00    +0.000 A 
ATOM      6  C   UNL     1       0.948   9.731  20.531  0.00  0.00    +0.000 A 
ATOM      7  C   UNL     1       1.390   8.416  20.378  0.00  0.00    +0.000 A 
BRANCH   2  15
ATOM      8  C   UNL     1       4.783   4.253  16.157  0.00  0.00    +0.000 C 
ATOM      9  C   UNL     1       4.092   3.914  17.452  0.00  0.00    +0.000 A 
ATOM     10  C   UNL     1       4.145   2.653  17.947  0.00  0.00    +0.000 A 
ATOM     11  C   UNL     1       3.502   2.272  19.197  0.00  0.00    +0.000 A 
ATOM     12  C   UNL     1       2.836   3.203  19.898  0.00  0.00    +0.000 A 
ATOM     13  N   UNL     1       2.780   4.500  19.404  0.00  0.00    +0.000 N 
ATOM     14  C   UNL     1       2.171   5.605  19.938  0.00  0.00    +0.000 A 
ATOM     15  C   UNL     1       2.411   6.622  19.041  0.00  0.00    +0.000 A 
ATOM     16  N   UNL     1       3.135   6.170  17.964  0.00  0.00    +0.000 NA
ATOM     17  C   UNL     1       3.368   4.897  18.208  0.00  0.00    +0.000 A 
ENDBRANCH   2  15
ENDBRANCH   1   5
BRANCH   1  18
ATOM     18  C   UNL     1       1.178  12.739  18.437  0.00  0.00    +0.000 C 
BRANCH  18  19
ATOM     19  C   UNL     1       1.279  14.167  18.951  0.00  0.00    +0.000 C 
BRANCH  19  20
ATOM     20  C   UNL     1       2.557  14.391  19.758  0.00  0.00    +0.000 C 
BRANCH  20  21
ATOM     21  N   UNL     1       3.113  15.751  19.630  0.00  0.00    +0.000 NA
ATOM     22  C   UNL     1       4.252  16.002  20.546  0.00  0.00    +0.000 C 
ATOM     23  C   UNL     1       5.487  15.122  20.262  0.00  0.00    +0.000 C 
ATOM     24  N   UNL     1       5.922  15.260  18.861  0.00  0.00    +0.000 N 
ATOM     25  C   UNL     1       4.854  15.167  17.843  0.00  0.00    +0.000 C 
ATOM     26  C   UNL     1       3.602  15.986  18.250  0.00  0.00    +0.000 C 
BRANCH  24  27
ATOM     27  C   UNL     1       7.167  15.796  18.538  0.00  0.00    +0.000 A 
ATOM     28  C   UNL     1       7.386  17.180  18.698  0.00  0.00    +0.000 A 
ATOM     29  C   UNL     1       8.617  17.781  18.437  0.00  0.00    +0.000 A 
ATOM     30  C   UNL     1       9.673  17.013  17.969  0.00  0.00    +0.000 A 
ATOM     31  C   UNL     1       9.501  15.642  17.776  0.00  0.00    +0.000 A 
ATOM     32 CL   UNL     1      10.871  14.765  17.180  0.00  0.00    +0.000 Cl
ATOM     33  C   UNL     1       8.267  15.025  18.069  0.00  0.00    +0.000 A 
ATOM     34 CL   UNL     1       8.162  13.285  17.958  0.00  0.00    +0.000 Cl
ENDBRANCH  24  27
ENDBRANCH  20  21
ENDBRANCH  19  20
ENDBRANCH  18  19
ENDBRANCH   1  18
TORSDOF 7
ENDMDL
MODEL 3
REMARK VINA RESULT:      -7.7      5.492      8.578
REMARK  Name = 
REMARK  8 active torsions:
REMARK  status: ('A' for Active; 'I' for Inactive)
REMARK    1  A    between atoms: C_1  and  C_2
REMARK    2  A    between atoms: C_8  and  C_9
REMARK    3  A    between atoms: C_12  and  O_13
REMARK    4  A    between atoms: O_13  and  C_14
REMARK    5  A    between atoms: C_14  and  C_15
REMARK    6  A    between atoms: C_15  and  C_16
REMARK    7  A    between atoms: C_16  and  N_17
REMARK    8  A    between atoms: N_20  and  C_21
REMARK                            x       y       z     vdW  Elec       q    Type
REMARK                         _______ _______ _______ _____ _____    ______ ____
ROOT
ATOM      1  O   UNL     1       0.652  11.928  19.486  0.00  0.00    +0.000 OA
ENDROOT
BRANCH   1   5
ATOM      2  C   UNL     1       1.872   7.945  19.406  0.00  0.00    +0.000 A 
ATOM      3  C   UNL     1       1.331   8.534  20.554  0.00  0.00    +0.000 A 
ATOM      4  C   UNL     1       0.933   9.872  20.537  0.00  0.00    +0.000 A 
ATOM      5  C   UNL     1       1.088  10.636  19.381  0.00  0.00    +0.000 A 
ATOM      6  C   UNL     1       1.619  10.054  18.231  0.00  0.00    +0.000 A 
ATOM      7  C   UNL     1       2.018   8.717  18.248  0.00  0.00    +0.000 A 
BRANCH   2  15
ATOM      8  C   UNL     1       4.528   3.863  16.697  0.00  0.00    +0.000 C 
ATOM      9  C   UNL     1       3.853   3.665  18.029  0.00  0.00    +0.000 A 
ATOM     10  C   UNL     1       3.878   2.453  18.636  0.00  0.00    +0.000 A 
ATOM     11  C   UNL     1       3.249   2.207  19.927  0.00  0.00    +0.000 A 
ATOM     12  C   UNL     1       2.626   3.218  20.551  0.00  0.00    +0.000 A 
ATOM     13  N   UNL     1       2.599   4.466  19.942  0.00  0.00    +0.000 N 
ATOM     14  C   UNL     1       2.034   5.634  20.384  0.00  0.00    +0.000 A 
ATOM     15  C   UNL     1       2.286   6.557  19.394  0.00  0.00    +0.000 A 
ATOM     16  N   UNL     1       2.975   5.987  18.350  0.00  0.00    +0.000 NA
ATOM     17  C   UNL     1       3.174   4.735  18.705  0.00  0.00    +0.000 A 
ENDBRANCH   2  15
ENDBRANCH   1   5
BRANCH   1  18
ATOM     18  C   UNL     1       1.677  12.888  19.737  0.00  0.00    +0.000 C 
BRANCH  18  19
ATOM     19  C   UNL     1       1.494  13.390  21.161  0.00  0.00    +0.000 C 
BRANCH  19  20
ATOM     20  C   UNL     1       0.248  14.263  21.299  0.00  0.00    +0.000 C 
BRANCH  20  21
ATOM     21  N   UNL     1      -0.498  14.043  22.552  0.00  0.00    +0.000 NA
ATOM     22  C   UNL     1      -1.656  14.958  22.706  0.00  0.00    +0.000 C 
ATOM     23  C   UNL     1      -2.753  14.763  21.640  0.00  0.00    +0.000 C 
ATOM     24  N   UNL     1      -3.213  13.363  21.607  0.00  0.00    +0.000 N 
ATOM     25  C   UNL     1      -2.150  12.336  21.591  0.00  0.00    +0.000 C 
ATOM     26  C   UNL     1      -1.026  12.659  22.608  0.00  0.00    +0.000 C 
BRANCH  24  27
ATOM     27  C   UNL     1      -4.524  13.023  21.934  0.00  0.00    +0.000 A 
ATOM     28  C   UNL     1      -5.006  13.296  23.231  0.00  0.00    +0.000 A 
ATOM     29  C   UNL     1      -6.319  13.023  23.618  0.00  0.00    +0.000 A 
ATOM     30  C   UNL     1      -7.193  12.432  22.718  0.00  0.00    +0.000 A 
ATOM     31  C   UNL     1      -6.758  12.125  21.429  0.00  0.00    +0.000 A 
ATOM     32 CL   UNL     1      -7.916  11.379  20.378  0.00  0.00    +0.000 Cl
ATOM     33  C   UNL     1      -5.441  12.428  21.024  0.00  0.00    +0.000 A 
ATOM     34 CL   UNL     1      -5.007  12.165  19.353  0.00  0.00    +0.000 Cl
ENDBRANCH  24  27
ENDBRANCH  20  21
ENDBRANCH  19  20
ENDBRANCH  18  19
ENDBRANCH   1  18
TORSDOF 7
ENDMDL
MODEL 4
REMARK VINA RESULT:      -7.4      1.346      1.633
REMARK  Name = 
REMARK  8 active torsions:
REMARK  status: ('A' for Active; 'I' for Inactive)
REMARK    1  A    between atoms: C_1  and  C_2
REMARK    2  A    between atoms: C_8  and  C_9
REMARK    3  A    between atoms: C_12  and  O_13
REMARK    4  A    between atoms: O_13  and  C_14
REMARK    5  A    between atoms: C_14  and  C_15
REMARK    6  A    between atoms: C_15  and  C_16
REMARK    7  A    between atoms: C_16  and  N_17
REMARK    8  A    between atoms: N_20  and  C_21
REMARK                            x       y       z     vdW  Elec       q    Type
REMARK                         _______ _______ _______ _____ _____    ______ ____
ROOT
ATOM      1  O   UNL     1       0.218  11.970  20.517  0.00  0.00    +0.000 OA
ENDROOT
BRANCH   1   5
ATOM      2  C   UNL     1       1.679   8.099  20.035  0.00  0.00    +0.000 A 
ATOM      3  C   UNL     1       1.584   8.996  18.966  0.00  0.00    +0.000 A 
ATOM      4  C   UNL     1       1.089  10.285  19.171  0.00  0.00    +0.000 A 
ATOM      5  C   UNL     1       0.672  10.683  20.440  0.00  0.00    +0.000 A 
ATOM      6  C   UNL     1       0.771   9.798  21.512  0.00  0.00    +0.000 A 
ATOM      7  C   UNL     1       1.264   8.508  21.307  0.00  0.00    +0.000 A 
BRANCH   2  15
ATOM      8  C   UNL     1       1.558   2.763  21.641  0.00  0.00    +0.000 C 
ATOM      9  C   UNL     1       2.462   3.275  20.549  0.00  0.00    +0.000 A 
ATOM     10  C   UNL     1       3.294   2.428  19.894  0.00  0.00    +0.000 A 
ATOM     11  C   UNL     1       4.182   2.867  18.827  0.00  0.00    +0.000 A 
ATOM     12  C   UNL     1       4.176   4.159  18.464  0.00  0.00    +0.000 A 
ATOM     13  N   UNL     1       3.323   5.036  19.122  0.00  0.00    +0.000 N 
ATOM     14  C   UNL     1       3.142   6.380  18.927  0.00  0.00    +0.000 A 
ATOM     15  C   UNL     1       2.194   6.757  19.852  0.00  0.00    +0.000 A 
ATOM     16  N   UNL     1       1.801   5.689  20.621  0.00  0.00    +0.000 NA
ATOM     17  C   UNL     1       2.473   4.657  20.156  0.00  0.00    +0.000 A 
ENDBRANCH   2  15
ENDBRANCH   1   5
BRANCH   1  18
ATOM     18  C   UNL     1       1.230  12.950  20.738  0.00  0.00    +0.000 C 
BRANCH  18  19
ATOM     19  C   UNL     1       1.132  13.971  19.614  0.00  0.00    +0.000 C 
BRANCH  19  20
ATOM     20  C   UNL     1       2.413  14.029  18.785  0.00  0.00    +0.000 C 
BRANCH  20  21
ATOM     21  N   UNL     1       2.924  15.395  18.569  0.00  0.00    +0.000 NA
ATOM     22  C   UNL     1       3.514  15.995  19.791  0.00  0.00    +0.000 C 
ATOM     23  C   UNL     1       4.769  15.260  20.304  0.00  0.00    +0.000 C 
ATOM     24  N   UNL     1       5.789  15.157  19.245  0.00  0.00    +0.000 N 
ATOM     25  C   UNL     1       5.304  14.698  17.927  0.00  0.00    +0.000 C 
ATOM     26  C   UNL     1       3.980  15.398  17.528  0.00  0.00    +0.000 C 
BRANCH  24  27
ATOM     27  C   UNL     1       7.028  15.783  19.369  0.00  0.00    +0.000 A 
ATOM     28  C   UNL     1       7.242  17.022  18.728  0.00  0.00    +0.000 A 
ATOM     29  C   UNL     1       8.439  17.729  18.841  0.00  0.00    +0.000 A 
ATOM     30  C   UNL     1       9.485  17.198  19.580  0.00  0.00    +0.000 A 
ATOM     31  C   UNL     1       9.329  15.967  20.217  0.00  0.00    +0.000 A 
ATOM     32 CL   UNL     1      10.692  15.377  21.110  0.00  0.00    +0.000 Cl
ATOM     33  C   UNL     1       8.109  15.263  20.132  0.00  0.00    +0.000 A 
ATOM     34 CL   UNL     1       7.922  13.808  21.079  0.00  0.00    +0.000 Cl
ENDBRANCH  24  27
ENDBRANCH  20  21
ENDBRANCH  19  20
ENDBRANCH  18  19
ENDBRANCH   1  18
TORSDOF 7
ENDMDL
MODEL 5
REMARK VINA RESULT:      -7.4      1.924      2.829
REMARK  Name = 
REMARK  8 active torsions:
REMARK  status: ('A' for Active; 'I' for Inactive)
REMARK    1  A    between atoms: C_1  and  C_2
REMARK    2  A    between atoms: C_8  and  C_9
REMARK    3  A    between atoms: C_12  and  O_13
REMARK    4  A    between atoms: O_13  and  C_14
REMARK    5  A    between atoms: C_14  and  C_15
REMARK    6  A    between atoms: C_15  and  C_16
REMARK    7  A    between atoms: C_16  and  N_17
REMARK    8  A    between atoms: N_20  and  C_21
REMARK                            x       y       z     vdW  Elec       q    Type
REMARK                         _______ _______ _______ _____ _____    ______ ____
ROOT
ATOM      1  O   UNL     1       0.300  11.656  20.173  0.00  0.00    +0.000 OA
ENDROOT
BRANCH   1   5
ATOM      2  C   UNL     1       1.873   7.852  19.531  0.00  0.00    +0.000 A 
ATOM      3  C   UNL     1       1.374   8.250  20.776  0.00  0.00    +0.000 A 
ATOM      4  C   UNL     1       0.855   9.534  20.948  0.00  0.00    +0.000 A 
ATOM      5  C   UNL     1       0.843  10.435  19.884  0.00  0.00    +0.000 A 
ATOM      6  C   UNL     1       1.331  10.043  18.639  0.00  0.00    +0.000 A 
ATOM      7  C   UNL     1       1.852   8.760  18.467  0.00  0.00    +0.000 A 
BRANCH   2  15
ATOM      8  C   UNL     1       4.803   4.436  16.244  0.00  0.00    +0.000 C 
ATOM      9  C   UNL     1       4.192   3.999  17.550  0.00  0.00    +0.000 A 
ATOM     10  C   UNL     1       4.346   2.725  17.987  0.00  0.00    +0.000 A 
ATOM     11  C   UNL     1       3.784   2.252  19.244  0.00  0.00    +0.000 A 
ATOM     12  C   UNL     1       3.091   3.107  20.011  0.00  0.00    +0.000 A 
ATOM     13  N   UNL     1       2.931   4.417  19.578  0.00  0.00    +0.000 N 
ATOM     14  C   UNL     1       2.276   5.457  20.184  0.00  0.00    +0.000 A 
ATOM     15  C   UNL     1       2.412   6.523  19.324  0.00  0.00    +0.000 A 
ATOM     16  N   UNL     1       3.116   6.165  18.199  0.00  0.00    +0.000 NA
ATOM     17  C   UNL     1       3.440   4.901  18.378  0.00  0.00    +0.000 A 
ENDBRANCH   2  15
ENDBRANCH   1   5
BRANCH   1  18
ATOM     18  C   UNL     1      -0.329  12.308  19.071  0.00  0.00    +0.000 C 
BRANCH  18  19
ATOM     19  C   UNL     1      -0.602  13.746  19.486  0.00  0.00    +0.000 C 
BRANCH  19  20
ATOM     20  C   UNL     1       0.201  14.740  18.649  0.00  0.00    +0.000 C 
BRANCH  20  21
ATOM     21  N   UNL     1       1.034  15.657  19.448  0.00  0.00    +0.000 NA
ATOM     22  C   UNL     1       2.057  14.955  20.261  0.00  0.00    +0.000 C 
ATOM     23  C   UNL     1       3.115  14.207  19.423  0.00  0.00    +0.000 C 
ATOM     24  N   UNL     1       3.766  15.117  18.463  0.00  0.00    +0.000 N 
ATOM     25  C   UNL     1       2.859  15.981  17.679  0.00  0.00    +0.000 C 
ATOM     26  C   UNL     1       1.754  16.608  18.567  0.00  0.00    +0.000 C 
BRANCH  24  27
ATOM     27  C   UNL     1       5.127  15.404  18.544  0.00  0.00    +0.000 A 
ATOM     28  C   UNL     1       6.036  14.668  17.756  0.00  0.00    +0.000 A 
ATOM     29  C   UNL     1       7.407  14.927  17.751  0.00  0.00    +0.000 A 
ATOM     30  C   UNL     1       7.923  15.921  18.569  0.00  0.00    +0.000 A 
ATOM     31  C   UNL     1       7.067  16.663  19.382  0.00  0.00    +0.000 A 
ATOM     32 CL   UNL     1       7.801  17.876  20.378  0.00  0.00    +0.000 Cl
ATOM     33  C   UNL     1       5.676  16.426  19.366  0.00  0.00    +0.000 A 
ATOM     34 CL   UNL     1       4.642  17.494  20.285  0.00  0.00    +0.000 Cl
ENDBRANCH  24  27
ENDBRANCH  20  21
ENDBRANCH  19  20
ENDBRANCH  18  19
ENDBRANCH   1  18
TORSDOF 7
ENDMDL
MODEL 6
REMARK VINA RESULT:      -7.3      6.233      8.553
REMARK  Name = 
REMARK  8 active torsions:
REMARK  status: ('A' for Active; 'I' for Inactive)
REMARK    1  A    between atoms: C_1  and  C_2
REMARK    2  A    between atoms: C_8  and  C_9
REMARK    3  A    between atoms: C_12  and  O_13
REMARK    4  A    between atoms: O_13  and  C_14
REMARK    5  A    between atoms: C_14  and  C_15
REMARK    6  A    between atoms: C_15  and  C_16
REMARK    7  A    between atoms: C_16  and  N_17
REMARK    8  A    between atoms: N_20  and  C_21
REMARK                            x       y       z     vdW  Elec       q    Type
REMARK                         _______ _______ _______ _____ _____    ______ ____
ROOT
ATOM      1  O   UNL     1       2.665   4.372  20.795  0.00  0.00    +0.000 OA
ENDROOT
BRANCH   1   5
ATOM      2  C   UNL     1       4.746   4.516  17.188  0.00  0.00    +0.000 A 
ATOM      3  C   UNL     1       3.491   3.908  17.299  0.00  0.00    +0.000 A 
ATOM      4  C   UNL     1       2.827   3.883  18.526  0.00  0.00    +0.000 A 
ATOM      5  C   UNL     1       3.417   4.449  19.655  0.00  0.00    +0.000 A 
ATOM      6  C   UNL     1       4.664   5.064  19.551  0.00  0.00    +0.000 A 
ATOM      7  C   UNL     1       5.329   5.088  18.324  0.00  0.00    +0.000 A 
BRANCH   2  15
ATOM      8  C   UNL     1       5.066   2.727  11.919  0.00  0.00    +0.000 C 
ATOM      9  C   UNL     1       6.057   3.687  12.526  0.00  0.00    +0.000 A 
ATOM     10  C   UNL     1       7.085   4.169  11.785  0.00  0.00    +0.000 A 
ATOM     11  C   UNL     1       8.066   5.104  12.318  0.00  0.00    +0.000 A 
ATOM     12  C   UNL     1       7.951   5.516  13.589  0.00  0.00    +0.000 A 
ATOM     13  N   UNL     1       6.898   5.035  14.356  0.00  0.00    +0.000 N 
ATOM     14  C   UNL     1       6.577   5.312  15.659  0.00  0.00    +0.000 A 
ATOM     15  C   UNL     1       5.453   4.561  15.925  0.00  0.00    +0.000 A 
ATOM     16  N   UNL     1       5.085   3.818  14.829  0.00  0.00    +0.000 NA
ATOM     17  C   UNL     1       5.951   4.131  13.888  0.00  0.00    +0.000 A 
ENDBRANCH   2  15
ENDBRANCH   1   5
BRANCH   1  18
ATOM     18  C   UNL     1       1.476   5.158  20.782  0.00  0.00    +0.000 C 
BRANCH  18  19
ATOM     19  C   UNL     1       1.867   6.573  20.381  0.00  0.00    +0.000 C 
BRANCH  19  20
ATOM     20  C   UNL     1       0.904   7.612  20.952  0.00  0.00    +0.000 C 
BRANCH  20  21
ATOM     21  N   UNL     1       1.481   8.964  21.061  0.00  0.00    +0.000 NA
ATOM     22  C   UNL     1       0.777   9.967  20.225  0.00  0.00    +0.000 C 
ATOM     23  C   UNL     1      -0.689  10.208  20.640  0.00  0.00    +0.000 C 
ATOM     24  N   UNL     1      -0.779  10.581  22.063  0.00  0.00    +0.000 N 
ATOM     25  C   UNL     1      -0.005   9.739  22.999  0.00  0.00    +0.000 C 
ATOM     26  C   UNL     1       1.419   9.445  22.463  0.00  0.00    +0.000 C 
BRANCH  24  27
ATOM     27  C   UNL     1      -1.251  11.832  22.456  0.00  0.00    +0.000 A 
ATOM     28  C   UNL     1      -2.457  11.917  23.183  0.00  0.00    +0.000 A 
ATOM     29  C   UNL     1      -2.971  13.128  23.647  0.00  0.00    +0.000 A 
ATOM     30  C   UNL     1      -2.302  14.311  23.369  0.00  0.00    +0.000 A 
ATOM     31  C   UNL     1      -1.115  14.281  22.638  0.00  0.00    +0.000 A 
ATOM     32 CL   UNL     1      -0.354  15.807  22.330  0.00  0.00    +0.000 Cl
ATOM     33  C   UNL     1      -0.576  13.055  22.193  0.00  0.00    +0.000 A 
ATOM     34 CL   UNL     1       0.991  13.069  21.422  0.00  0.00    +0.000 Cl
ENDBRANCH  24  27
ENDBRANCH  20  21
ENDBRANCH  19  20
ENDBRANCH  18  19
ENDBRANCH   1  18
TORSDOF 7
ENDMDL
MODEL 7
REMARK VINA RESULT:      -7.2      4.756      9.308
REMARK  Name = 
REMARK  8 active torsions:
REMARK  status: ('A' for Active; 'I' for Inactive)
REMARK    1  A    between atoms: C_1  and  C_2
REMARK    2  A    between atoms: C_8  and  C_9
REMARK    3  A    between atoms: C_12  and  O_13
REMARK    4  A    between atoms: O_13  and  C_14
REMARK    5  A    between atoms: C_14  and  C_15
REMARK    6  A    between atoms: C_15  and  C_16
REMARK    7  A    between atoms: C_16  and  N_17
REMARK    8  A    between atoms: N_20  and  C_21
REMARK                            x       y       z     vdW  Elec       q    Type
REMARK                         _______ _______ _______ _____ _____    ______ ____
ROOT
ATOM      1  O   UNL     1       2.818  17.033  19.059  0.00  0.00    +0.000 OA
ENDROOT
BRANCH   1   5
ATOM      2  C   UNL     1       6.585  15.381  18.393  0.00  0.00    +0.000 A 
ATOM      3  C   UNL     1       6.398  16.502  19.208  0.00  0.00    +0.000 A 
ATOM      4  C   UNL     1       5.119  17.024  19.406  0.00  0.00    +0.000 A 
ATOM      5  C   UNL     1       4.018  16.440  18.780  0.00  0.00    +0.000 A 
ATOM      6  C   UNL     1       4.195  15.317  17.973  0.00  0.00    +0.000 A 
ATOM      7  C   UNL     1       5.475  14.797  17.773  0.00  0.00    +0.000 A 
BRANCH   2  15
ATOM      8  C   UNL     1       9.756  10.801  18.216  0.00  0.00    +0.000 C 
ATOM      9  C   UNL     1      10.294  12.187  17.969  0.00  0.00    +0.000 A 
ATOM     10  C   UNL     1      11.605  12.371  17.677  0.00  0.00    +0.000 A 
ATOM     11  C   UNL     1      12.177  13.685  17.421  0.00  0.00    +0.000 A 
ATOM     12  C   UNL     1      11.379  14.763  17.465  0.00  0.00    +0.000 A 
ATOM     13  N   UNL     1      10.032  14.587  17.757  0.00  0.00    +0.000 N 
ATOM     14  C   UNL     1       9.037  15.524  17.853  0.00  0.00    +0.000 A 
ATOM     15  C   UNL     1       7.901  14.816  18.176  0.00  0.00    +0.000 A 
ATOM     16  N   UNL     1       8.172  13.474  18.298  0.00  0.00    +0.000 NA
ATOM     17  C   UNL     1       9.454  13.351  18.022  0.00  0.00    +0.000 A 
ENDBRANCH   2  15
ENDBRANCH   1   5
BRANCH   1  18
ATOM     18  C   UNL     1       2.836  17.924  20.173  0.00  0.00    +0.000 C 
BRANCH  18  19
ATOM     19  C   UNL     1       1.728  17.491  21.122  0.00  0.00    +0.000 C 
BRANCH  19  20
ATOM     20  C   UNL     1       0.628  16.719  20.395  0.00  0.00    +0.000 C 
BRANCH  20  21
ATOM     21  N   UNL     1       0.082  15.588  21.169  0.00  0.00    +0.000 NA
ATOM     22  C   UNL     1      -0.831  14.729  20.376  0.00  0.00    +0.000 C 
ATOM     23  C   UNL     1      -0.145  14.011  19.196  0.00  0.00    +0.000 C 
ATOM     24  N   UNL     1       1.015  13.227  19.658  0.00  0.00    +0.000 N 
ATOM     25  C   UNL     1       1.940  13.928  20.574  0.00  0.00    +0.000 C 
ATOM     26  C   UNL     1       1.177  14.720  21.665  0.00  0.00    +0.000 C 
BRANCH  24  27
ATOM     27  C   UNL     1       1.046  11.839  19.541  0.00  0.00    +0.000 A 
ATOM     28  C   UNL     1       1.695  11.254  18.434  0.00  0.00    +0.000 A 
ATOM     29  C   UNL     1       1.804   9.873  18.271  0.00  0.00    +0.000 A 
ATOM     30  C   UNL     1       1.233   9.022  19.205  0.00  0.00    +0.000 A 
ATOM     31  C   UNL     1       0.564   9.553  20.308  0.00  0.00    +0.000 A 
ATOM     32 CL   UNL     1      -0.127   8.414  21.417  0.00  0.00    +0.000 Cl
ATOM     33  C   UNL     1       0.478  10.949  20.493  0.00  0.00    +0.000 A 
ATOM     34 CL   UNL     1      -0.232  11.547  21.972  0.00  0.00    +0.000 Cl
ENDBRANCH  24  27
ENDBRANCH  20  21
ENDBRANCH  19  20
ENDBRANCH  18  19
ENDBRANCH   1  18
TORSDOF 7
ENDMDL
MODEL 8
REMARK VINA RESULT:      -7.2      2.173      2.958
REMARK  Name = 
REMARK  8 active torsions:
REMARK  status: ('A' for Active; 'I' for Inactive)
REMARK    1  A    between atoms: C_1  and  C_2
REMARK    2  A    between atoms: C_8  and  C_9
REMARK    3  A    between atoms: C_12  and  O_13
REMARK    4  A    between atoms: O_13  and  C_14
REMARK    5  A    between atoms: C_14  and  C_15
REMARK    6  A    between atoms: C_15  and  C_16
REMARK    7  A    between atoms: C_16  and  N_17
REMARK    8  A    between atoms: N_20  and  C_21
REMARK                            x       y       z     vdW  Elec       q    Type
REMARK                         _______ _______ _______ _____ _____    ______ ____
ROOT
ATOM      1  O   UNL     1      -0.605  10.842  20.890  0.00  0.00    +0.000 OA
ENDROOT
BRANCH   1   5
ATOM      2  C   UNL     1       1.881   8.149  18.910  0.00  0.00    +0.000 A 
ATOM      3  C   UNL     1       1.572   8.015  20.268  0.00  0.00    +0.000 A 
ATOM      4  C   UNL     1       0.734   8.940  20.893  0.00  0.00    +0.000 A 
ATOM      5  C   UNL     1       0.211  10.012  20.172  0.00  0.00    +0.000 A 
ATOM      6  C   UNL     1       0.507  10.148  18.817  0.00  0.00    +0.000 A 
ATOM      7  C   UNL     1       1.347   9.224  18.192  0.00  0.00    +0.000 A 
BRANCH   2  15
ATOM      8  C   UNL     1       2.859   2.831  17.558  0.00  0.00    +0.000 C 
ATOM      9  C   UNL     1       3.770   3.964  17.159  0.00  0.00    +0.000 A 
ATOM     10  C   UNL     1       4.886   3.722  16.429  0.00  0.00    +0.000 A 
ATOM     11  C   UNL     1       5.795   4.779  16.010  0.00  0.00    +0.000 A 
ATOM     12  C   UNL     1       5.521   6.047  16.349  0.00  0.00    +0.000 A 
ATOM     13  N   UNL     1       4.377   6.310  17.092  0.00  0.00    +0.000 N 
ATOM     14  C   UNL     1       3.895   7.509  17.546  0.00  0.00    +0.000 A 
ATOM     15  C   UNL     1       2.744   7.200  18.236  0.00  0.00    +0.000 A 
ATOM     16  N   UNL     1       2.514   5.845  18.233  0.00  0.00    +0.000 NA
ATOM     17  C   UNL     1       3.494   5.326  17.523  0.00  0.00    +0.000 A 
ENDBRANCH   2  15
ENDBRANCH   1   5
BRANCH   1  18
ATOM     18  C   UNL     1      -1.191  11.904  20.138  0.00  0.00    +0.000 C 
BRANCH  18  19
ATOM     19  C   UNL     1      -0.812  13.210  20.819  0.00  0.00    +0.000 C 
BRANCH  19  20
ATOM     20  C   UNL     1       0.277  13.955  20.050  0.00  0.00    +0.000 C 
BRANCH  20  21
ATOM     21  N   UNL     1       0.809  15.134  20.760  0.00  0.00    +0.000 NA
ATOM     22  C   UNL     1       2.033  14.836  21.544  0.00  0.00    +0.000 C 
ATOM     23  C   UNL     1       3.239  14.409  20.682  0.00  0.00    +0.000 C 
ATOM     24  N   UNL     1       3.531  15.417  19.647  0.00  0.00    +0.000 N 
ATOM     25  C   UNL     1       2.367  15.905  18.878  0.00  0.00    +0.000 C 
ATOM     26  C   UNL     1       1.157  16.208  19.798  0.00  0.00    +0.000 C 
BRANCH  24  27
ATOM     27  C   UNL     1       4.734  16.120  19.638  0.00  0.00    +0.000 A 
ATOM     28  C   UNL     1       4.904  17.209  20.518  0.00  0.00    +0.000 A 
ATOM     29  C   UNL     1       6.094  17.932  20.597  0.00  0.00    +0.000 A 
ATOM     30  C   UNL     1       7.154  17.606  19.765  0.00  0.00    +0.000 A 
ATOM     31  C   UNL     1       7.029  16.549  18.864  0.00  0.00    +0.000 A 
ATOM     32 CL   UNL     1       8.401  16.221  17.858  0.00  0.00    +0.000 Cl
ATOM     33  C   UNL     1       5.838  15.795  18.803  0.00  0.00    +0.000 A 
ATOM     34 CL   UNL     1       5.800  14.387  17.769  0.00  0.00    +0.000 Cl
ENDBRANCH  24  27
ENDBRANCH  20  21
ENDBRANCH  19  20
ENDBRANCH  18  19
ENDBRANCH   1  18
TORSDOF 7
ENDMDL
MODEL 9
REMARK VINA RESULT:      -7.2      1.626      2.637
REMARK  Name = 
REMARK  8 active torsions:
REMARK  status: ('A' for Active; 'I' for Inactive)
REMARK    1  A    between atoms: C_1  and  C_2
REMARK    2  A    between atoms: C_8  and  C_9
REMARK    3  A    between atoms: C_12  and  O_13
REMARK    4  A    between atoms: O_13  and  C_14
REMARK    5  A    between atoms: C_14  and  C_15
REMARK    6  A    between atoms: C_15  and  C_16
REMARK    7  A    between atoms: C_16  and  N_17
REMARK    8  A    between atoms: N_20  and  C_21
REMARK                            x       y       z     vdW  Elec       q    Type
REMARK                         _______ _______ _______ _____ _____    ______ ____
ROOT
ATOM      1  O   UNL     1      -0.243  11.557  21.217  0.00  0.00    +0.000 OA
ENDROOT
BRANCH   1   5
ATOM      2  C   UNL     1       1.712   8.199  19.714  0.00  0.00    +0.000 A 
ATOM      3  C   UNL     1       1.453   9.323  18.924  0.00  0.00    +0.000 A 
ATOM      4  C   UNL     1       0.795  10.428  19.467  0.00  0.00    +0.000 A 
ATOM      5  C   UNL     1       0.379  10.413  20.798  0.00  0.00    +0.000 A 
ATOM      6  C   UNL     1       0.642   9.300  21.594  0.00  0.00    +0.000 A 
ATOM      7  C   UNL     1       1.297   8.194  21.050  0.00  0.00    +0.000 A 
BRANCH   2  15
ATOM      8  C   UNL     1       5.177   6.170  15.849  0.00  0.00    +0.000 C 
ATOM      9  C   UNL     1       4.536   5.315  16.911  0.00  0.00    +0.000 A 
ATOM     10  C   UNL     1       4.795   3.985  16.970  0.00  0.00    +0.000 A 
ATOM     11  C   UNL     1       4.209   3.114  17.979  0.00  0.00    +0.000 A 
ATOM     12  C   UNL     1       3.386   3.643  18.898  0.00  0.00    +0.000 A 
ATOM     13  N   UNL     1       3.117   5.004  18.852  0.00  0.00    +0.000 N 
ATOM     14  C   UNL     1       2.322   5.759  19.674  0.00  0.00    +0.000 A 
ATOM     15  C   UNL     1       2.398   7.041  19.177  0.00  0.00    +0.000 A 
ATOM     16  N   UNL     1       3.203   7.093  18.065  0.00  0.00    +0.000 NA
ATOM     17  C   UNL     1       3.645   5.864  17.895  0.00  0.00    +0.000 A 
ENDBRANCH   2  15
ENDBRANCH   1   5
BRANCH   1  18
ATOM     18  C   UNL     1      -0.426  12.545  20.204  0.00  0.00    +0.000 C 
BRANCH  18  19
ATOM     19  C   UNL     1       0.357  13.780  20.624  0.00  0.00    +0.000 C 
BRANCH  19  20
ATOM     20  C   UNL     1       1.130  14.387  19.456  0.00  0.00    +0.000 C 
BRANCH  20  21
ATOM     21  N   UNL     1       1.625  15.752  19.712  0.00  0.00    +0.000 NA
ATOM     22  C   UNL     1       2.634  15.809  20.799  0.00  0.00    +0.000 C 
ATOM     23  C   UNL     1       3.938  15.048  20.481  0.00  0.00    +0.000 C 
ATOM     24  N   UNL     1       4.528  15.519  19.215  0.00  0.00    +0.000 N 
ATOM     25  C   UNL     1       3.594  15.640  18.076  0.00  0.00    +0.000 C 
ATOM     26  C   UNL     1       2.262  16.313  18.496  0.00  0.00    +0.000 C 
BRANCH  24  27
ATOM     27  C   UNL     1       5.773  16.144  19.183  0.00  0.00    +0.000 A 
ATOM     28  C   UNL     1       5.977  17.314  19.942  0.00  0.00    +0.000 A 
ATOM     29  C   UNL     1       7.207  17.971  19.994  0.00  0.00    +0.000 A 
ATOM     30  C   UNL     1       8.276  17.490  19.253  0.00  0.00    +0.000 A 
ATOM     31  C   UNL     1       8.118  16.346  18.471  0.00  0.00    +0.000 A 
ATOM     32 CL   UNL     1       9.505  15.824  17.572  0.00  0.00    +0.000 Cl
ATOM     33  C   UNL     1       6.885  15.661  18.441  0.00  0.00    +0.000 A 
ATOM     34 CL   UNL     1       6.798  14.149  17.570  0.00  0.00    +0.000 Cl
ENDBRANCH  24  27
ENDBRANCH  20  21
ENDBRANCH  19  20
ENDBRANCH  18  19
ENDBRANCH   1  18
TORSDOF 7
ENDMDL
