MODEL 1
REMARK VINA RESULT:      -7.8      0.000      0.000
REMARK  Name = 
REMARK  11 active torsions:
REMARK  status: ('A' for Active; 'I' for Inactive)
REMARK    1  A    between atoms: C_1  and  C_2
REMARK    2  A    between atoms: C_2  and  N_3
REMARK    3  A    between atoms: N_3  and  C_4
REMARK    4  A    between atoms: C_4  and  C_5
REMARK    5  A    between atoms: C_4  and  C_6
REMARK    6  A    between atoms: C_4  and  C_7
REMARK    7  A    between atoms: C_7  and  C_8
REMARK    8  A    between atoms: C_8  and  O_9
REMARK    9  A    between atoms: C_8  and  C_10
REMARK   10  A    between atoms: C_12  and  C_13
REMARK   11  A    between atoms: C_19  and  C_20
REMARK                            x       y       z     vdW  Elec       q    Type
REMARK                         _______ _______ _______ _____ _____    ______ ____
ROOT
ATOM      1  C   UNL     1       3.275   5.116  18.319  0.00  0.00    +0.000 A 
ATOM      2  C   UNL     1       3.041   4.163  19.317  0.00  0.00    +0.000 A 
ATOM      3  C   UNL     1       2.360   4.514  20.472  0.00  0.00    +0.000 A 
ATOM      4  N   UNL     1       1.898   5.776  20.658  0.00  0.00    +0.000 NA
ATOM      5  C   UNL     1       2.083   6.721  19.723  0.00  0.00    +0.000 A 
ATOM      6  C   UNL     1       1.588   8.007  19.947  0.00  0.00    +0.000 A 
ATOM      7  C   UNL     1       1.757   9.019  18.981  0.00  0.00    +0.000 A 
ATOM      8  C   UNL     1       2.417   8.760  17.795  0.00  0.00    +0.000 A 
ATOM      9  C   UNL     1       2.924   7.485  17.570  0.00  0.00    +0.000 A 
ATOM     10  C   UNL     1       2.773   6.440  18.517  0.00  0.00    +0.000 A 
ENDROOT
BRANCH   3  11
ATOM     11  C   UNL     1       2.147   3.475  21.567  0.00  0.00    +0.000 C 
ATOM     12  F   UNL     1       0.874   2.975  21.585  0.00  0.00    +0.000 F 
ATOM     13  F   UNL     1       2.956   2.387  21.436  0.00  0.00    +0.000 F 
ATOM     14  F   UNL     1       2.358   3.962  22.822  0.00  0.00    +0.000 F 
ENDBRANCH   3  11
BRANCH   6  15
ATOM     15  C   UNL     1       0.863   8.378  21.218  0.00  0.00    +0.000 C 
ATOM     16  F   UNL     1       1.573   8.360  22.377  0.00  0.00    +0.000 F 
ATOM     17  F   UNL     1       0.334   9.637  21.141  0.00  0.00    +0.000 F 
ATOM     18  F   UNL     1      -0.210   7.560  21.440  0.00  0.00    +0.000 F 
ENDBRANCH   6  15
BRANCH   1  19
ATOM     19  C   UNL     1       4.066   4.746  17.066  0.00  0.00    +0.000 C 
BRANCH  19  20
ATOM     20  O   UNL     1       3.782   3.380  16.783  0.00  0.00    +0.000 OA
ATOM     21  H   UNL     1       3.845   3.256  15.821  0.00  0.00    +0.000 HD
ENDBRANCH  19  20
BRANCH  19  22
ATOM     22  C   UNL     1       5.599   4.967  17.130  0.00  0.00    +0.000 C 
BRANCH  22  23
ATOM     23  C   UNL     1       6.303   5.542  15.859  0.00  0.00    +0.000 C 
ATOM     24  C   UNL     1       5.359   6.526  15.146  0.00  0.00    +0.000 C 
ATOM     25  C   UNL     1       6.717   4.409  14.904  0.00  0.00    +0.000 C 
BRANCH  23  26
ATOM     26  N   UNL     1       7.513   6.247  16.368  0.00  0.00    +0.000 NA
ATOM     27  H   UNL     1       8.309   5.608  16.368  0.00  0.00    +0.000 HD
BRANCH  26  29
ATOM     28  C   UNL     1       7.784   8.310  17.676  0.00  0.00    +0.000 C 
ATOM     29  C   UNL     1       7.391   6.840  17.702  0.00  0.00    +0.000 C 
ENDBRANCH  26  29
ENDBRANCH  23  26
ENDBRANCH  22  23
ENDBRANCH  19  22
ENDBRANCH   1  19
TORSDOF 8
ENDMDL
MODEL 2
REMARK VINA RESULT:      -7.7      2.270      4.801
REMARK  Name = 
REMARK  11 active torsions:
REMARK  status: ('A' for Active; 'I' for Inactive)
REMARK    1  A    between atoms: C_1  and  C_2
REMARK    2  A    between atoms: C_2  and  N_3
REMARK    3  A    between atoms: N_3  and  C_4
REMARK    4  A    between atoms: C_4  and  C_5
REMARK    5  A    between atoms: C_4  and  C_6
REMARK    6  A    between atoms: C_4  and  C_7
REMARK    7  A    between atoms: C_7  and  C_8
REMARK    8  A    between atoms: C_8  and  O_9
REMARK    9  A    between atoms: C_8  and  C_10
REMARK   10  A    between atoms: C_12  and  C_13
REMARK   11  A    between atoms: C_19  and  C_20
REMARK                            x       y       z     vdW  Elec       q    Type
REMARK                         _______ _______ _______ _____ _____    ______ ____
ROOT
ATOM      1  C   UNL     1       4.653   6.309  17.472  0.00  0.00    +0.000 A 
ATOM      2  C   UNL     1       3.861   7.464  17.472  0.00  0.00    +0.000 A 
ATOM      3  C   UNL     1       2.712   7.521  18.244  0.00  0.00    +0.000 A 
ATOM      4  N   UNL     1       2.334   6.475  19.020  0.00  0.00    +0.000 NA
ATOM      5  C   UNL     1       3.068   5.352  19.066  0.00  0.00    +0.000 A 
ATOM      6  C   UNL     1       2.651   4.297  19.880  0.00  0.00    +0.000 A 
ATOM      7  C   UNL     1       3.405   3.110  19.958  0.00  0.00    +0.000 A 
ATOM      8  C   UNL     1       4.570   2.963  19.229  0.00  0.00    +0.000 A 
ATOM      9  C   UNL     1       4.985   4.004  18.406  0.00  0.00    +0.000 A 
ATOM     10  C   UNL     1       4.255   5.216  18.302  0.00  0.00    +0.000 A 
ENDROOT
BRANCH   3  11
ATOM     11  C   UNL     1       1.839   8.771  18.205  0.00  0.00    +0.000 C 
ATOM     12  F   UNL     1       0.797   8.664  17.325  0.00  0.00    +0.000 F 
ATOM     13  F   UNL     1       1.263   9.058  19.407  0.00  0.00    +0.000 F 
ATOM     14  F   UNL     1       2.516   9.891  17.826  0.00  0.00    +0.000 F 
ENDBRANCH   3  11
BRANCH   6  15
ATOM     15  C   UNL     1       1.387   4.370  20.702  0.00  0.00    +0.000 C 
ATOM     16  F   UNL     1       0.956   5.600  21.088  0.00  0.00    +0.000 F 
ATOM     17  F   UNL     1       0.328   3.811  20.040  0.00  0.00    +0.000 F 
ATOM     18  F   UNL     1       1.498   3.647  21.858  0.00  0.00    +0.000 F 
ENDBRANCH   6  15
BRANCH   1  19
ATOM     19  C   UNL     1       5.894   6.223  16.587  0.00  0.00    +0.000 C 
BRANCH  19  20
ATOM     20  O   UNL     1       6.609   7.443  16.752  0.00  0.00    +0.000 OA
ATOM     21  H   UNL     1       7.093   7.619  15.928  0.00  0.00    +0.000 HD
ENDBRANCH  19  20
BRANCH  19  22
ATOM     22  C   UNL     1       5.648   5.953  15.080  0.00  0.00    +0.000 C 
BRANCH  22  23
ATOM     23  C   UNL     1       6.331   4.699  14.446  0.00  0.00    +0.000 C 
ATOM     24  C   UNL     1       6.857   3.778  15.561  0.00  0.00    +0.000 C 
ATOM     25  C   UNL     1       7.478   5.117  13.509  0.00  0.00    +0.000 C 
BRANCH  23  26
ATOM     26  N   UNL     1       5.258   4.022  13.666  0.00  0.00    +0.000 NA
ATOM     27  H   UNL     1       4.801   3.319  14.248  0.00  0.00    +0.000 HD
BRANCH  26  29
ATOM     28  C   UNL     1       4.495   3.186  11.484  0.00  0.00    +0.000 C 
ATOM     29  C   UNL     1       5.682   3.388  12.415  0.00  0.00    +0.000 C 
ENDBRANCH  26  29
ENDBRANCH  23  26
ENDBRANCH  22  23
ENDBRANCH  19  22
ENDBRANCH   1  19
TORSDOF 8
ENDMDL
MODEL 3
REMARK VINA RESULT:      -7.7      0.337      1.072
REMARK  Name = 
REMARK  11 active torsions:
REMARK  status: ('A' for Active; 'I' for Inactive)
REMARK    1  A    between atoms: C_1  and  C_2
REMARK    2  A    between atoms: C_2  and  N_3
REMARK    3  A    between atoms: N_3  and  C_4
REMARK    4  A    between atoms: C_4  and  C_5
REMARK    5  A    between atoms: C_4  and  C_6
REMARK    6  A    between atoms: C_4  and  C_7
REMARK    7  A    between atoms: C_7  and  C_8
REMARK    8  A    between atoms: C_8  and  O_9
REMARK    9  A    between atoms: C_8  and  C_10
REMARK   10  A    between atoms: C_12  and  C_13
REMARK   11  A    between atoms: C_19  and  C_20
REMARK                            x       y       z     vdW  Elec       q    Type
REMARK                         _______ _______ _______ _____ _____    ______ ____
ROOT
ATOM      1  C   UNL     1       3.541   4.857  18.434  0.00  0.00    +0.000 A 
ATOM      2  C   UNL     1       3.233   3.935  19.441  0.00  0.00    +0.000 A 
ATOM      3  C   UNL     1       2.467   4.320  20.530  0.00  0.00    +0.000 A 
ATOM      4  N   UNL     1       1.992   5.586  20.641  0.00  0.00    +0.000 NA
ATOM      5  C   UNL     1       2.247   6.503  19.694  0.00  0.00    +0.000 A 
ATOM      6  C   UNL     1       1.737   7.794  19.841  0.00  0.00    +0.000 A 
ATOM      7  C   UNL     1       1.978   8.775  18.859  0.00  0.00    +0.000 A 
ATOM      8  C   UNL     1       2.725   8.482  17.734  0.00  0.00    +0.000 A 
ATOM      9  C   UNL     1       3.247   7.201  17.588  0.00  0.00    +0.000 A 
ATOM     10  C   UNL     1       3.026   6.185  18.553  0.00  0.00    +0.000 A 
ENDROOT
BRANCH   3  11
ATOM     11  C   UNL     1       2.172   3.316  21.638  0.00  0.00    +0.000 C 
ATOM     12  F   UNL     1       3.005   2.231  21.608  0.00  0.00    +0.000 F 
ATOM     13  F   UNL     1       2.315   3.841  22.887  0.00  0.00    +0.000 F 
ATOM     14  F   UNL     1       0.912   2.802  21.580  0.00  0.00    +0.000 F 
ENDBRANCH   3  11
BRANCH   6  15
ATOM     15  C   UNL     1       0.919   8.202  21.041  0.00  0.00    +0.000 C 
ATOM     16  F   UNL     1      -0.112   7.395  21.405  0.00  0.00    +0.000 F 
ATOM     17  F   UNL     1       1.698   8.316  22.160  0.00  0.00    +0.000 F 
ATOM     18  F   UNL     1       0.364   9.441  20.873  0.00  0.00    +0.000 F 
ENDBRANCH   6  15
BRANCH   1  19
ATOM     19  C   UNL     1       4.423   4.451  17.256  0.00  0.00    +0.000 C 
BRANCH  19  20
ATOM     20  O   UNL     1       4.427   3.027  17.212  0.00  0.00    +0.000 OA
ATOM     21  H   UNL     1       5.046   2.710  17.891  0.00  0.00    +0.000 HD
ENDBRANCH  19  20
BRANCH  19  22
ATOM     22  C   UNL     1       5.879   4.985  17.270  0.00  0.00    +0.000 C 
BRANCH  22  23
ATOM     23  C   UNL     1       6.452   5.564  15.936  0.00  0.00    +0.000 C 
ATOM     24  C   UNL     1       5.333   6.278  15.160  0.00  0.00    +0.000 C 
ATOM     25  C   UNL     1       7.073   4.447  15.078  0.00  0.00    +0.000 C 
BRANCH  23  26
ATOM     26  N   UNL     1       7.506   6.531  16.352  0.00  0.00    +0.000 NA
ATOM     27  H   UNL     1       8.426   6.099  16.259  0.00  0.00    +0.000 HD
BRANCH  26  29
ATOM     28  C   UNL     1       7.979   8.464  17.794  0.00  0.00    +0.000 C 
ATOM     29  C   UNL     1       7.378   7.069  17.709  0.00  0.00    +0.000 C 
ENDBRANCH  26  29
ENDBRANCH  23  26
ENDBRANCH  22  23
ENDBRANCH  19  22
ENDBRANCH   1  19
TORSDOF 8
ENDMDL
MODEL 4
REMARK VINA RESULT:      -7.7      0.521      1.943
REMARK  Name = 
REMARK  11 active torsions:
REMARK  status: ('A' for Active; 'I' for Inactive)
REMARK    1  A    between atoms: C_1  and  C_2
REMARK    2  A    between atoms: C_2  and  N_3
REMARK    3  A    between atoms: N_3  and  C_4
REMARK    4  A    between atoms: C_4  and  C_5
REMARK    5  A    between atoms: C_4  and  C_6
REMARK    6  A    between atoms: C_4  and  C_7
REMARK    7  A    between atoms: C_7  and  C_8
REMARK    8  A    between atoms: C_8  and  O_9
REMARK    9  A    between atoms: C_8  and  C_10
REMARK   10  A    between atoms: C_12  and  C_13
REMARK   11  A    between atoms: C_19  and  C_20
REMARK                            x       y       z     vdW  Elec       q    Type
REMARK                         _______ _______ _______ _____ _____    ______ ____
ROOT
ATOM      1  C   UNL     1       3.307   5.139  18.341  0.00  0.00    +0.000 A 
ATOM      2  C   UNL     1       3.063   4.176  19.327  0.00  0.00    +0.000 A 
ATOM      3  C   UNL     1       2.350   4.509  20.467  0.00  0.00    +0.000 A 
ATOM      4  N   UNL     1       1.866   5.763  20.651  0.00  0.00    +0.000 NA
ATOM      5  C   UNL     1       2.061   6.718  19.727  0.00  0.00    +0.000 A 
ATOM      6  C   UNL     1       1.543   7.996  19.949  0.00  0.00    +0.000 A 
ATOM      7  C   UNL     1       1.721   9.016  18.994  0.00  0.00    +0.000 A 
ATOM      8  C   UNL     1       2.412   8.775  17.822  0.00  0.00    +0.000 A 
ATOM      9  C   UNL     1       2.942   7.509  17.600  0.00  0.00    +0.000 A 
ATOM     10  C   UNL     1       2.783   6.455  18.536  0.00  0.00    +0.000 A 
ENDROOT
BRANCH   3  11
ATOM     11  C   UNL     1       2.125   3.459  21.550  0.00  0.00    +0.000 C 
ATOM     12  F   UNL     1       2.332   3.944  22.812  0.00  0.00    +0.000 F 
ATOM     13  F   UNL     1       0.854   2.968  21.560  0.00  0.00    +0.000 F 
ATOM     14  F   UNL     1       2.953   2.383  21.438  0.00  0.00    +0.000 F 
ENDBRANCH   3  11
BRANCH   6  15
ATOM     15  C   UNL     1       0.783   8.347  21.205  0.00  0.00    +0.000 C 
ATOM     16  F   UNL     1      -0.263   7.552  21.551  0.00  0.00    +0.000 F 
ATOM     17  F   UNL     1       1.604   8.355  22.299  0.00  0.00    +0.000 F 
ATOM     18  F   UNL     1       0.269   9.613  21.142  0.00  0.00    +0.000 F 
ENDBRANCH   6  15
BRANCH   1  19
ATOM     19  C   UNL     1       4.132   4.790  17.105  0.00  0.00    +0.000 C 
BRANCH  19  20
ATOM     20  O   UNL     1       3.698   3.507  16.664  0.00  0.00    +0.000 OA
ATOM     21  H   UNL     1       2.896   3.632  16.127  0.00  0.00    +0.000 HD
ENDBRANCH  19  20
BRANCH  19  22
ATOM     22  C   UNL     1       5.672   4.796  17.281  0.00  0.00    +0.000 C 
BRANCH  22  23
ATOM     23  C   UNL     1       6.501   5.781  16.393  0.00  0.00    +0.000 C 
ATOM     24  C   UNL     1       7.357   6.689  17.292  0.00  0.00    +0.000 C 
ATOM     25  C   UNL     1       5.573   6.626  15.503  0.00  0.00    +0.000 C 
BRANCH  23  26
ATOM     26  N   UNL     1       7.365   4.911  15.548  0.00  0.00    +0.000 NA
ATOM     27  H   UNL     1       8.343   5.174  15.671  0.00  0.00    +0.000 HD
BRANCH  26  29
ATOM     28  C   UNL     1       6.202   3.709  13.747  0.00  0.00    +0.000 C 
ATOM     29  C   UNL     1       7.061   4.910  14.114  0.00  0.00    +0.000 C 
ENDBRANCH  26  29
ENDBRANCH  23  26
ENDBRANCH  22  23
ENDBRANCH  19  22
ENDBRANCH   1  19
TORSDOF 8
ENDMDL
MODEL 5
REMARK VINA RESULT:      -7.5      0.547      1.834
REMARK  Name = 
REMARK  11 active torsions:
REMARK  status: ('A' for Active; 'I' for Inactive)
REMARK    1  A    between atoms: C_1  and  C_2
REMARK    2  A    between atoms: C_2  and  N_3
REMARK    3  A    between atoms: N_3  and  C_4
REMARK    4  A    between atoms: C_4  and  C_5
REMARK    5  A    between atoms: C_4  and  C_6
REMARK    6  A    between atoms: C_4  and  C_7
REMARK    7  A    between atoms: C_7  and  C_8
REMARK    8  A    between atoms: C_8  and  O_9
REMARK    9  A    between atoms: C_8  and  C_10
REMARK   10  A    between atoms: C_12  and  C_13
REMARK   11  A    between atoms: C_19  and  C_20
REMARK                            x       y       z     vdW  Elec       q    Type
REMARK                         _______ _______ _______ _____ _____    ______ ____
ROOT
ATOM      1  C   UNL     1       3.234   5.111  18.307  0.00  0.00    +0.000 A 
ATOM      2  C   UNL     1       3.001   4.158  19.305  0.00  0.00    +0.000 A 
ATOM      3  C   UNL     1       2.330   4.511  20.465  0.00  0.00    +0.000 A 
ATOM      4  N   UNL     1       1.878   5.776  20.657  0.00  0.00    +0.000 NA
ATOM      5  C   UNL     1       2.063   6.722  19.723  0.00  0.00    +0.000 A 
ATOM      6  C   UNL     1       1.578   8.011  19.953  0.00  0.00    +0.000 A 
ATOM      7  C   UNL     1       1.748   9.023  18.987  0.00  0.00    +0.000 A 
ATOM      8  C   UNL     1       2.398   8.762  17.796  0.00  0.00    +0.000 A 
ATOM      9  C   UNL     1       2.895   7.484  17.565  0.00  0.00    +0.000 A 
ATOM     10  C   UNL     1       2.743   6.438  18.511  0.00  0.00    +0.000 A 
ENDROOT
BRANCH   3  11
ATOM     11  C   UNL     1       2.117   3.472  21.560  0.00  0.00    +0.000 C 
ATOM     12  F   UNL     1       2.948   2.392  21.437  0.00  0.00    +0.000 F 
ATOM     13  F   UNL     1       2.349   3.959  22.811  0.00  0.00    +0.000 F 
ATOM     14  F   UNL     1       0.857   2.955  21.576  0.00  0.00    +0.000 F 
ENDBRANCH   3  11
BRANCH   6  15
ATOM     15  C   UNL     1       0.865   8.384  21.229  0.00  0.00    +0.000 C 
ATOM     16  F   UNL     1       1.572   8.321  22.388  0.00  0.00    +0.000 F 
ATOM     17  F   UNL     1       0.380   9.662  21.175  0.00  0.00    +0.000 F 
ATOM     18  F   UNL     1      -0.236   7.600  21.435  0.00  0.00    +0.000 F 
ENDBRANCH   6  15
BRANCH   1  19
ATOM     19  C   UNL     1       4.014   4.739  17.048  0.00  0.00    +0.000 C 
BRANCH  19  20
ATOM     20  O   UNL     1       3.569   3.446  16.651  0.00  0.00    +0.000 OA
ATOM     21  H   UNL     1       3.561   3.419  15.679  0.00  0.00    +0.000 HD
ENDBRANCH  19  20
BRANCH  19  22
ATOM     22  C   UNL     1       5.560   4.755  17.166  0.00  0.00    +0.000 C 
BRANCH  22  23
ATOM     23  C   UNL     1       6.348   5.734  16.237  0.00  0.00    +0.000 C 
ATOM     24  C   UNL     1       7.248   6.644  17.091  0.00  0.00    +0.000 C 
ATOM     25  C   UNL     1       5.383   6.578  15.387  0.00  0.00    +0.000 C 
BRANCH  23  26
ATOM     26  N   UNL     1       7.170   4.858  15.355  0.00  0.00    +0.000 NA
ATOM     27  H   UNL     1       7.829   5.427  14.823  0.00  0.00    +0.000 HD
BRANCH  26  29
ATOM     28  C   UNL     1       6.929   4.206  12.998  0.00  0.00    +0.000 C 
ATOM     29  C   UNL     1       6.423   4.013  14.420  0.00  0.00    +0.000 C 
ENDBRANCH  26  29
ENDBRANCH  23  26
ENDBRANCH  22  23
ENDBRANCH  19  22
ENDBRANCH   1  19
TORSDOF 8
ENDMDL
MODEL 6
REMARK VINA RESULT:      -7.4      0.727      1.893
REMARK  Name = 
REMARK  11 active torsions:
REMARK  status: ('A' for Active; 'I' for Inactive)
REMARK    1  A    between atoms: C_1  and  C_2
REMARK    2  A    between atoms: C_2  and  N_3
REMARK    3  A    between atoms: N_3  and  C_4
REMARK    4  A    between atoms: C_4  and  C_5
REMARK    5  A    between atoms: C_4  and  C_6
REMARK    6  A    between atoms: C_4  and  C_7
REMARK    7  A    between atoms: C_7  and  C_8
REMARK    8  A    between atoms: C_8  and  O_9
REMARK    9  A    between atoms: C_8  and  C_10
REMARK   10  A    between atoms: C_12  and  C_13
REMARK   11  A    between atoms: C_19  and  C_20
REMARK                            x       y       z     vdW  Elec       q    Type
REMARK                         _______ _______ _______ _____ _____    ______ ____
ROOT
ATOM      1  C   UNL     1       3.254   5.537  18.233  0.00  0.00    +0.000 A 
ATOM      2  C   UNL     1       3.046   4.514  19.166  0.00  0.00    +0.000 A 
ATOM      3  C   UNL     1       2.329   4.762  20.325  0.00  0.00    +0.000 A 
ATOM      4  N   UNL     1       1.807   5.987  20.579  0.00  0.00    +0.000 NA
ATOM      5  C   UNL     1       1.966   6.997  19.709  0.00  0.00    +0.000 A 
ATOM      6  C   UNL     1       1.409   8.243  20.002  0.00  0.00    +0.000 A 
ATOM      7  C   UNL     1       1.549   9.320  19.103  0.00  0.00    +0.000 A 
ATOM      8  C   UNL     1       2.242   9.165  17.918  0.00  0.00    +0.000 A 
ATOM      9  C   UNL     1       2.810   7.931  17.625  0.00  0.00    +0.000 A 
ATOM     10  C   UNL     1       2.689   6.822  18.502  0.00  0.00    +0.000 A 
ENDROOT
BRANCH   3  11
ATOM     11  C   UNL     1       2.143   3.648  21.350  0.00  0.00    +0.000 C 
ATOM     12  F   UNL     1       2.429   4.047  22.627  0.00  0.00    +0.000 F 
ATOM     13  F   UNL     1       0.866   3.176  21.400  0.00  0.00    +0.000 F 
ATOM     14  F   UNL     1       2.943   2.568  21.124  0.00  0.00    +0.000 F 
ENDBRANCH   3  11
BRANCH   6  15
ATOM     15  C   UNL     1       0.645   8.501  21.277  0.00  0.00    +0.000 C 
ATOM     16  F   UNL     1       1.339   8.466  22.445  0.00  0.00    +0.000 F 
ATOM     17  F   UNL     1       0.040   9.728  21.257  0.00  0.00    +0.000 F 
ATOM     18  F   UNL     1      -0.378   7.609  21.438  0.00  0.00    +0.000 F 
ENDBRANCH   6  15
BRANCH   1  19
ATOM     19  C   UNL     1       4.083   5.282  16.977  0.00  0.00    +0.000 C 
BRANCH  19  20
ATOM     20  O   UNL     1       4.563   3.943  17.059  0.00  0.00    +0.000 OA
ATOM     21  H   UNL     1       5.119   3.778  16.279  0.00  0.00    +0.000 HD
ENDBRANCH  19  20
BRANCH  19  22
ATOM     22  C   UNL     1       5.265   6.253  16.723  0.00  0.00    +0.000 C 
BRANCH  22  23
ATOM     23  C   UNL     1       6.661   5.870  17.313  0.00  0.00    +0.000 C 
ATOM     24  C   UNL     1       6.487   5.345  18.749  0.00  0.00    +0.000 C 
ATOM     25  C   UNL     1       7.612   7.079  17.295  0.00  0.00    +0.000 C 
BRANCH  23  26
ATOM     26  N   UNL     1       7.181   4.798  16.420  0.00  0.00    +0.000 NA
ATOM     27  H   UNL     1       8.145   4.578  16.672  0.00  0.00    +0.000 HD
BRANCH  26  29
ATOM     28  C   UNL     1       6.415   3.968  14.237  0.00  0.00    +0.000 C 
ATOM     29  C   UNL     1       7.130   5.084  14.984  0.00  0.00    +0.000 C 
ENDBRANCH  26  29
ENDBRANCH  23  26
ENDBRANCH  22  23
ENDBRANCH  19  22
ENDBRANCH   1  19
TORSDOF 8
ENDMDL
MODEL 7
REMARK VINA RESULT:      -7.4      0.776      1.992
REMARK  Name = 
REMARK  11 active torsions:
REMARK  status: ('A' for Active; 'I' for Inactive)
REMARK    1  A    between atoms: C_1  and  C_2
REMARK    2  A    between atoms: C_2  and  N_3
REMARK    3  A    between atoms: N_3  and  C_4
REMARK    4  A    between atoms: C_4  and  C_5
REMARK    5  A    between atoms: C_4  and  C_6
REMARK    6  A    between atoms: C_4  and  C_7
REMARK    7  A    between atoms: C_7  and  C_8
REMARK    8  A    between atoms: C_8  and  O_9
REMARK    9  A    between atoms: C_8  and  C_10
REMARK   10  A    between atoms: C_12  and  C_13
REMARK   11  A    between atoms: C_19  and  C_20
REMARK                            x       y       z     vdW  Elec       q    Type
REMARK                         _______ _______ _______ _____ _____    ______ ____
ROOT
ATOM      1  C   UNL     1       3.353   5.438  18.360  0.00  0.00    +0.000 A 
ATOM      2  C   UNL     1       3.118   4.434  19.306  0.00  0.00    +0.000 A 
ATOM      3  C   UNL     1       2.351   4.700  20.430  0.00  0.00    +0.000 A 
ATOM      4  N   UNL     1       1.806   5.925  20.633  0.00  0.00    +0.000 NA
ATOM      5  C   UNL     1       1.990   6.917  19.747  0.00  0.00    +0.000 A 
ATOM      6  C   UNL     1       1.409   8.163  19.988  0.00  0.00    +0.000 A 
ATOM      7  C   UNL     1       1.576   9.220  19.071  0.00  0.00    +0.000 A 
ATOM      8  C   UNL     1       2.318   9.047  17.919  0.00  0.00    +0.000 A 
ATOM      9  C   UNL     1       2.910   7.812  17.679  0.00  0.00    +0.000 A 
ATOM     10  C   UNL     1       2.765   6.722  18.575  0.00  0.00    +0.000 A 
ENDROOT
BRANCH   3  11
ATOM     11  C   UNL     1       2.134   3.607  21.471  0.00  0.00    +0.000 C 
ATOM     12  F   UNL     1       2.948   2.524  21.282  0.00  0.00    +0.000 F 
ATOM     13  F   UNL     1       2.386   4.026  22.743  0.00  0.00    +0.000 F 
ATOM     14  F   UNL     1       0.867   3.108  21.474  0.00  0.00    +0.000 F 
ENDBRANCH   3  11
BRANCH   6  15
ATOM     15  C   UNL     1       0.591   8.441  21.225  0.00  0.00    +0.000 C 
ATOM     16  F   UNL     1      -0.097   9.613  21.275  0.00  0.00    +0.000 F 
ATOM     17  F   UNL     1      -0.347   7.467  21.433  0.00  0.00    +0.000 F 
ATOM     18  F   UNL     1       1.365   8.429  22.352  0.00  0.00    +0.000 F 
ENDBRANCH   6  15
BRANCH   1  19
ATOM     19  C   UNL     1       4.236   5.164  17.145  0.00  0.00    +0.000 C 
BRANCH  19  20
ATOM     20  O   UNL     1       3.597   4.140  16.388  0.00  0.00    +0.000 OA
ATOM     21  H   UNL     1       2.678   4.070  16.699  0.00  0.00    +0.000 HD
ENDBRANCH  19  20
BRANCH  19  22
ATOM     22  C   UNL     1       5.706   4.767  17.437  0.00  0.00    +0.000 C 
BRANCH  22  23
ATOM     23  C   UNL     1       6.807   5.858  17.235  0.00  0.00    +0.000 C 
ATOM     24  C   UNL     1       7.804   5.808  18.405  0.00  0.00    +0.000 C 
ATOM     25  C   UNL     1       6.176   7.257  17.126  0.00  0.00    +0.000 C 
BRANCH  23  26
ATOM     26  N   UNL     1       7.479   5.501  15.954  0.00  0.00    +0.000 NA
ATOM     27  H   UNL     1       7.369   6.263  15.284  0.00  0.00    +0.000 HD
BRANCH  26  29
ATOM     28  C   UNL     1       6.607   4.505  13.883  0.00  0.00    +0.000 C 
ATOM     29  C   UNL     1       7.030   4.257  15.323  0.00  0.00    +0.000 C 
ENDBRANCH  26  29
ENDBRANCH  23  26
ENDBRANCH  22  23
ENDBRANCH  19  22
ENDBRANCH   1  19
TORSDOF 8
ENDMDL
MODEL 8
REMARK VINA RESULT:      -7.3      0.828      1.929
REMARK  Name = 
REMARK  11 active torsions:
REMARK  status: ('A' for Active; 'I' for Inactive)
REMARK    1  A    between atoms: C_1  and  C_2
REMARK    2  A    between atoms: C_2  and  N_3
REMARK    3  A    between atoms: N_3  and  C_4
REMARK    4  A    between atoms: C_4  and  C_5
REMARK    5  A    between atoms: C_4  and  C_6
REMARK    6  A    between atoms: C_4  and  C_7
REMARK    7  A    between atoms: C_7  and  C_8
REMARK    8  A    between atoms: C_8  and  O_9
REMARK    9  A    between atoms: C_8  and  C_10
REMARK   10  A    between atoms: C_12  and  C_13
REMARK   11  A    between atoms: C_19  and  C_20
REMARK                            x       y       z     vdW  Elec       q    Type
REMARK                         _______ _______ _______ _____ _____    ______ ____
ROOT
ATOM      1  C   UNL     1       3.140   5.786  18.204  0.00  0.00    +0.000 A 
ATOM      2  C   UNL     1       2.972   4.738  19.117  0.00  0.00    +0.000 A 
ATOM      3  C   UNL     1       2.272   4.944  20.295  0.00  0.00    +0.000 A 
ATOM      4  N   UNL     1       1.728   6.152  20.586  0.00  0.00    +0.000 NA
ATOM      5  C   UNL     1       1.849   7.184  19.736  0.00  0.00    +0.000 A 
ATOM      6  C   UNL     1       1.271   8.411  20.068  0.00  0.00    +0.000 A 
ATOM      7  C   UNL     1       1.371   9.510  19.192  0.00  0.00    +0.000 A 
ATOM      8  C   UNL     1       2.043   9.398  17.990  0.00  0.00    +0.000 A 
ATOM      9  C   UNL     1       2.632   8.182  17.659  0.00  0.00    +0.000 A 
ATOM     10  C   UNL     1       2.552   7.052  18.512  0.00  0.00    +0.000 A 
ENDROOT
BRANCH   3  11
ATOM     11  C   UNL     1       2.130   3.804  21.297  0.00  0.00    +0.000 C 
ATOM     12  F   UNL     1       0.870   3.272  21.323  0.00  0.00    +0.000 F 
ATOM     13  F   UNL     1       2.955   2.753  21.030  0.00  0.00    +0.000 F 
ATOM     14  F   UNL     1       2.388   4.179  22.581  0.00  0.00    +0.000 F 
ENDBRANCH   3  11
BRANCH   6  15
ATOM     15  C   UNL     1       0.527   8.624  21.363  0.00  0.00    +0.000 C 
ATOM     16  F   UNL     1      -0.525   7.804  21.628  0.00  0.00    +0.000 F 
ATOM     17  F   UNL     1       1.358   8.500  22.443  0.00  0.00    +0.000 F 
ATOM     18  F   UNL     1       0.025   9.893  21.451  0.00  0.00    +0.000 F 
ENDBRANCH   6  15
BRANCH   1  19
ATOM     19  C   UNL     1       3.949   5.577  16.927  0.00  0.00    +0.000 C 
BRANCH  19  20
ATOM     20  O   UNL     1       4.255   4.189  16.850  0.00  0.00    +0.000 OA
ATOM     21  H   UNL     1       5.132   4.054  17.247  0.00  0.00    +0.000 HD
ENDBRANCH  19  20
BRANCH  19  22
ATOM     22  C   UNL     1       5.248   6.414  16.790  0.00  0.00    +0.000 C 
BRANCH  22  23
ATOM     23  C   UNL     1       6.552   5.840  17.432  0.00  0.00    +0.000 C 
ATOM     24  C   UNL     1       6.252   5.350  18.859  0.00  0.00    +0.000 C 
ATOM     25  C   UNL     1       7.664   6.904  17.453  0.00  0.00    +0.000 C 
BRANCH  23  26
ATOM     26  N   UNL     1       6.951   4.703  16.557  0.00  0.00    +0.000 NA
ATOM     27  H   UNL     1       7.809   4.279  16.913  0.00  0.00    +0.000 HD
BRANCH  26  29
ATOM     28  C   UNL     1       6.446   4.002  14.256  0.00  0.00    +0.000 C 
ATOM     29  C   UNL     1       7.143   5.025  15.141  0.00  0.00    +0.000 C 
ENDBRANCH  26  29
ENDBRANCH  23  26
ENDBRANCH  22  23
ENDBRANCH  19  22
ENDBRANCH   1  19
TORSDOF 8
ENDMDL
MODEL 9
REMARK VINA RESULT:      -7.3      2.255      4.784
REMARK  Name = 
REMARK  11 active torsions:
REMARK  status: ('A' for Active; 'I' for Inactive)
REMARK    1  A    between atoms: C_1  and  C_2
REMARK    2  A    between atoms: C_2  and  N_3
REMARK    3  A    between atoms: N_3  and  C_4
REMARK    4  A    between atoms: C_4  and  C_5
REMARK    5  A    between atoms: C_4  and  C_6
REMARK    6  A    between atoms: C_4  and  C_7
REMARK    7  A    between atoms: C_7  and  C_8
REMARK    8  A    between atoms: C_8  and  O_9
REMARK    9  A    between atoms: C_8  and  C_10
REMARK   10  A    between atoms: C_12  and  C_13
REMARK   11  A    between atoms: C_19  and  C_20
REMARK                            x       y       z     vdW  Elec       q    Type
REMARK                         _______ _______ _______ _____ _____    ______ ____
ROOT
ATOM      1  C   UNL     1       4.639   6.224  17.452  0.00  0.00    +0.000 A 
ATOM      2  C   UNL     1       3.859   7.386  17.477  0.00  0.00    +0.000 A 
ATOM      3  C   UNL     1       2.735   7.455  18.285  0.00  0.00    +0.000 A 
ATOM      4  N   UNL     1       2.372   6.411  19.072  0.00  0.00    +0.000 NA
ATOM      5  C   UNL     1       3.096   5.281  19.094  0.00  0.00    +0.000 A 
ATOM      6  C   UNL     1       2.694   4.230  19.921  0.00  0.00    +0.000 A 
ATOM      7  C   UNL     1       3.439   3.036  19.975  0.00  0.00    +0.000 A 
ATOM      8  C   UNL     1       4.579   2.878  19.210  0.00  0.00    +0.000 A 
ATOM      9  C   UNL     1       4.978   3.915  18.375  0.00  0.00    +0.000 A 
ATOM     10  C   UNL     1       4.257   5.134  18.294  0.00  0.00    +0.000 A 
ENDROOT
BRANCH   3  11
ATOM     11  C   UNL     1       1.874   8.712  18.273  0.00  0.00    +0.000 C 
ATOM     12  F   UNL     1       1.359   9.016  19.503  0.00  0.00    +0.000 F 
ATOM     13  F   UNL     1       2.559   9.825  17.888  0.00  0.00    +0.000 F 
ATOM     14  F   UNL     1       0.795   8.620  17.445  0.00  0.00    +0.000 F 
ENDBRANCH   3  11
BRANCH   6  15
ATOM     15  C   UNL     1       1.457   4.315  20.782  0.00  0.00    +0.000 C 
ATOM     16  F   UNL     1       1.392   3.506  21.872  0.00  0.00    +0.000 F 
ATOM     17  F   UNL     1       1.271   5.581  21.265  0.00  0.00    +0.000 F 
ATOM     18  F   UNL     1       0.326   4.043  20.063  0.00  0.00    +0.000 F 
ENDBRANCH   6  15
BRANCH   1  19
ATOM     19  C   UNL     1       5.851   6.126  16.529  0.00  0.00    +0.000 C 
BRANCH  19  20
ATOM     20  O   UNL     1       6.563   7.354  16.644  0.00  0.00    +0.000 OA
ATOM     21  H   UNL     1       7.456   7.151  16.971  0.00  0.00    +0.000 HD
ENDBRANCH  19  20
BRANCH  19  22
ATOM     22  C   UNL     1       5.558   5.822  15.037  0.00  0.00    +0.000 C 
BRANCH  22  23
ATOM     23  C   UNL     1       6.291   4.605  14.385  0.00  0.00    +0.000 C 
ATOM     24  C   UNL     1       6.786   3.651  15.486  0.00  0.00    +0.000 C 
ATOM     25  C   UNL     1       7.468   5.078  13.515  0.00  0.00    +0.000 C 
BRANCH  23  26
ATOM     26  N   UNL     1       5.264   3.940  13.535  0.00  0.00    +0.000 NA
ATOM     27  H   UNL     1       5.015   3.036  13.940  0.00  0.00    +0.000 HD
BRANCH  26  29
ATOM     28  C   UNL     1       5.696   2.254  11.800  0.00  0.00    +0.000 C 
ATOM     29  C   UNL     1       5.632   3.738  12.132  0.00  0.00    +0.000 C 
ENDBRANCH  26  29
ENDBRANCH  23  26
ENDBRANCH  22  23
ENDBRANCH  19  22
ENDBRANCH   1  19
TORSDOF 8
ENDMDL
