MODEL 1
REMARK VINA RESULT:      -8.5      0.000      0.000
REMARK  Name = 
REMARK  6 active torsions:
REMARK  status: ('A' for Active; 'I' for Inactive)
REMARK    1  A    between atoms: C_1  and  C_2
REMARK    2  A    between atoms: C_4  and  C_5
REMARK    3  A    between atoms: C_8  and  C_9
REMARK    4  A    between atoms: C_9  and  C_10
REMARK    5  A    between atoms: N_12  and  C_13
REMARK    6  A    between atoms: C_13  and  C_14
REMARK                            x       y       z     vdW  Elec       q    Type
REMARK                         _______ _______ _______ _____ _____    ______ ____
ROOT
ATOM      1  C   UNL     1       7.711   5.947  18.771  0.00  0.00    +0.000 C 
ENDROOT
BRANCH   1   9
ATOM      2  C   UNL     1       1.662   2.089  19.140  0.00  0.00    +0.000 C 
ATOM      3  C   UNL     1       2.606   3.252  18.956  0.00  0.00    +0.000 A 
ATOM      4  C   UNL     1       1.998   4.580  18.618  0.00  0.00    +0.000 A 
ATOM      5  C   UNL     1       2.852   5.606  18.458  0.00  0.00    +0.000 A 
ATOM      6  C   UNL     1       2.410   6.995  18.117  0.00  0.00    +0.000 C 
ATOM      7  N   UNL     1       4.223   5.370  18.620  0.00  0.00    +0.000 N 
ATOM      8  N   UNL     1       5.264   6.231  18.498  0.00  0.00    +0.000 NA
ATOM      9  C   UNL     1       6.313   5.461  18.804  0.00  0.00    +0.000 A 
ATOM     10  N   UNL     1       6.020   4.149  19.055  0.00  0.00    +0.000 NA
ATOM     11  C   UNL     1       4.710   4.096  18.947  0.00  0.00    +0.000 A 
ATOM     12  N   UNL     1       3.877   3.027  19.108  0.00  0.00    +0.000 NA
ENDBRANCH   1   9
BRANCH   1  13
ATOM     13  C   UNL     1       7.859   7.145  17.861  0.00  0.00    +0.000 C 
ATOM     14  O   UNL     1       7.731   7.054  16.639  0.00  0.00    +0.000 OA
ATOM     15  N   UNL     1       8.211   8.322  18.483  0.00  0.00    +0.000 N 
ATOM     16  H   UNL     1       8.199   8.372  19.493  0.00  0.00    +0.000 HD
BRANCH  15  17
ATOM     17  C   UNL     1       8.458   9.530  17.730  0.00  0.00    +0.000 C 
BRANCH  17  18
ATOM     18  C   UNL     1       9.228  10.568  18.509  0.00  0.00    +0.000 A 
ATOM     19  C   UNL     1       9.828  11.647  17.840  0.00  0.00    +0.000 A 
ATOM     20  C   UNL     1      10.511  12.632  18.557  0.00  0.00    +0.000 A 
ATOM     21  C   UNL     1      10.605  12.537  19.940  0.00  0.00    +0.000 A 
ATOM     22  F   UNL     1      11.256  13.490  20.623  0.00  0.00    +0.000 F 
ATOM     23  C   UNL     1      10.031  11.473  20.622  0.00  0.00    +0.000 A 
ATOM     24  C   UNL     1       9.347  10.483  19.907  0.00  0.00    +0.000 A 
ENDBRANCH  17  18
ENDBRANCH  15  17
ENDBRANCH   1  13
TORSDOF 4
ENDMDL
MODEL 2
REMARK VINA RESULT:      -8.5      4.641      6.754
REMARK  Name = 
REMARK  6 active torsions:
REMARK  status: ('A' for Active; 'I' for Inactive)
REMARK    1  A    between atoms: C_1  and  C_2
REMARK    2  A    between atoms: C_4  and  C_5
REMARK    3  A    between atoms: C_8  and  C_9
REMARK    4  A    between atoms: C_9  and  C_10
REMARK    5  A    between atoms: N_12  and  C_13
REMARK    6  A    between atoms: C_13  and  C_14
REMARK                            x       y       z     vdW  Elec       q    Type
REMARK                         _______ _______ _______ _____ _____    ______ ____
ROOT
ATOM      1  C   UNL     1       3.531   2.663  20.228  0.00  0.00    +0.000 C 
ENDROOT
BRANCH   1   9
ATOM      2  C   UNL     1       6.600   4.753  14.079  0.00  0.00    +0.000 C 
ATOM      3  C   UNL     1       6.328   4.580  15.553  0.00  0.00    +0.000 A 
ATOM      4  C   UNL     1       7.259   5.268  16.507  0.00  0.00    +0.000 A 
ATOM      5  C   UNL     1       7.002   5.104  17.817  0.00  0.00    +0.000 A 
ATOM      6  C   UNL     1       7.834   5.719  18.898  0.00  0.00    +0.000 C 
ATOM      7  N   UNL     1       5.901   4.324  18.193  0.00  0.00    +0.000 N 
ATOM      8  N   UNL     1       5.455   4.008  19.434  0.00  0.00    +0.000 NA
ATOM      9  C   UNL     1       4.362   3.285  19.173  0.00  0.00    +0.000 A 
ATOM     10  N   UNL     1       4.112   3.064  17.846  0.00  0.00    +0.000 NA
ATOM     11  C   UNL     1       5.072   3.722  17.234  0.00  0.00    +0.000 A 
ATOM     12  N   UNL     1       5.305   3.856  15.896  0.00  0.00    +0.000 NA
ENDBRANCH   1   9
BRANCH   1  13
ATOM     13  C   UNL     1       2.517   3.639  20.782  0.00  0.00    +0.000 C 
ATOM     14  O   UNL     1       1.554   3.266  21.452  0.00  0.00    +0.000 OA
ATOM     15  N   UNL     1       2.709   4.957  20.432  0.00  0.00    +0.000 N 
ATOM     16  H   UNL     1       3.570   5.228  19.973  0.00  0.00    +0.000 HD
BRANCH  15  17
ATOM     17  C   UNL     1       1.779   5.988  20.829  0.00  0.00    +0.000 C 
BRANCH  17  18
ATOM     18  C   UNL     1       1.833   7.209  19.945  0.00  0.00    +0.000 A 
ATOM     19  C   UNL     1       2.492   7.152  18.706  0.00  0.00    +0.000 A 
ATOM     20  C   UNL     1       2.515   8.266  17.864  0.00  0.00    +0.000 A 
ATOM     21  C   UNL     1       1.890   9.442  18.261  0.00  0.00    +0.000 A 
ATOM     22  F   UNL     1       1.909  10.506  17.446  0.00  0.00    +0.000 F 
ATOM     23  C   UNL     1       1.243   9.526  19.487  0.00  0.00    +0.000 A 
ATOM     24  C   UNL     1       1.219   8.412  20.333  0.00  0.00    +0.000 A 
ENDBRANCH  17  18
ENDBRANCH  15  17
ENDBRANCH   1  13
TORSDOF 4
ENDMDL
MODEL 3
REMARK VINA RESULT:      -8.5      0.081      1.009
REMARK  Name = 
REMARK  6 active torsions:
REMARK  status: ('A' for Active; 'I' for Inactive)
REMARK    1  A    between atoms: C_1  and  C_2
REMARK    2  A    between atoms: C_4  and  C_5
REMARK    3  A    between atoms: C_8  and  C_9
REMARK    4  A    between atoms: C_9  and  C_10
REMARK    5  A    between atoms: N_12  and  C_13
REMARK    6  A    between atoms: C_13  and  C_14
REMARK                            x       y       z     vdW  Elec       q    Type
REMARK                         _______ _______ _______ _____ _____    ______ ____
ROOT
ATOM      1  C   UNL     1       7.682   5.963  18.812  0.00  0.00    +0.000 C 
ENDROOT
BRANCH   1   9
ATOM      2  C   UNL     1       1.665   2.053  19.152  0.00  0.00    +0.000 C 
ATOM      3  C   UNL     1       2.600   3.223  18.968  0.00  0.00    +0.000 A 
ATOM      4  C   UNL     1       1.983   4.544  18.614  0.00  0.00    +0.000 A 
ATOM      5  C   UNL     1       2.830   5.575  18.454  0.00  0.00    +0.000 A 
ATOM      6  C   UNL     1       2.379   6.958  18.098  0.00  0.00    +0.000 C 
ATOM      7  N   UNL     1       4.202   5.353  18.632  0.00  0.00    +0.000 N 
ATOM      8  N   UNL     1       5.236   6.222  18.513  0.00  0.00    +0.000 NA
ATOM      9  C   UNL     1       6.289   5.464  18.836  0.00  0.00    +0.000 A 
ATOM     10  N   UNL     1       6.005   4.152  19.094  0.00  0.00    +0.000 NA
ATOM     11  C   UNL     1       4.697   4.086  18.973  0.00  0.00    +0.000 A 
ATOM     12  N   UNL     1       3.872   3.011  19.134  0.00  0.00    +0.000 NA
ENDBRANCH   1   9
BRANCH   1  13
ATOM     13  C   UNL     1       7.833   7.145  17.882  0.00  0.00    +0.000 C 
ATOM     14  O   UNL     1       7.701   7.035  16.663  0.00  0.00    +0.000 OA
ATOM     15  N   UNL     1       8.189   8.331  18.484  0.00  0.00    +0.000 N 
ATOM     16  H   UNL     1       8.180   8.398  19.494  0.00  0.00    +0.000 HD
BRANCH  15  17
ATOM     17  C   UNL     1       8.438   9.526  17.712  0.00  0.00    +0.000 C 
BRANCH  17  18
ATOM     18  C   UNL     1       9.149  10.603  18.495  0.00  0.00    +0.000 A 
ATOM     19  C   UNL     1       9.354  10.448  19.875  0.00  0.00    +0.000 A 
ATOM     20  C   UNL     1      10.044  11.422  20.601  0.00  0.00    +0.000 A 
ATOM     21  C   UNL     1      10.521  12.555  19.953  0.00  0.00    +0.000 A 
ATOM     22  F   UNL     1      11.188  13.483  20.653  0.00  0.00    +0.000 F 
ATOM     23  C   UNL     1      10.319  12.735  18.591  0.00  0.00    +0.000 A 
ATOM     24  C   UNL     1       9.627  11.763  17.861  0.00  0.00    +0.000 A 
ENDBRANCH  17  18
ENDBRANCH  15  17
ENDBRANCH   1  13
TORSDOF 4
ENDMDL
MODEL 4
REMARK VINA RESULT:      -8.3      5.229      8.126
REMARK  Name = 
REMARK  6 active torsions:
REMARK  status: ('A' for Active; 'I' for Inactive)
REMARK    1  A    between atoms: C_1  and  C_2
REMARK    2  A    between atoms: C_4  and  C_5
REMARK    3  A    between atoms: C_8  and  C_9
REMARK    4  A    between atoms: C_9  and  C_10
REMARK    5  A    between atoms: N_12  and  C_13
REMARK    6  A    between atoms: C_13  and  C_14
REMARK                            x       y       z     vdW  Elec       q    Type
REMARK                         _______ _______ _______ _____ _____    ______ ____
ROOT
ATOM      1  C   UNL     1       7.022   5.671  17.747  0.00  0.00    +0.000 C 
ENDROOT
BRANCH   1   9
ATOM      2  C   UNL     1       5.184   2.566  11.535  0.00  0.00    +0.000 C 
ATOM      3  C   UNL     1       5.894   3.438  12.541  0.00  0.00    +0.000 A 
ATOM      4  C   UNL     1       6.995   4.318  12.029  0.00  0.00    +0.000 A 
ATOM      5  C   UNL     1       7.617   5.089  12.938  0.00  0.00    +0.000 A 
ATOM      6  C   UNL     1       8.737   6.022  12.593  0.00  0.00    +0.000 C 
ATOM      7  N   UNL     1       7.199   5.023  14.273  0.00  0.00    +0.000 N 
ATOM      8  N   UNL     1       7.675   5.686  15.356  0.00  0.00    +0.000 NA
ATOM      9  C   UNL     1       6.871   5.257  16.334  0.00  0.00    +0.000 A 
ATOM     10  N   UNL     1       5.950   4.317  15.961  0.00  0.00    +0.000 NA
ATOM     11  C   UNL     1       6.152   4.178  14.669  0.00  0.00    +0.000 A 
ATOM     12  N   UNL     1       5.502   3.373  13.779  0.00  0.00    +0.000 NA
ENDBRANCH   1   9
BRANCH   1  13
ATOM     13  C   UNL     1       5.680   5.816  18.428  0.00  0.00    +0.000 C 
ATOM     14  O   UNL     1       5.464   5.346  19.546  0.00  0.00    +0.000 OA
ATOM     15  N   UNL     1       4.705   6.447  17.690  0.00  0.00    +0.000 N 
ATOM     16  H   UNL     1       4.958   6.910  16.826  0.00  0.00    +0.000 HD
BRANCH  15  17
ATOM     17  C   UNL     1       3.356   6.592  18.186  0.00  0.00    +0.000 C 
BRANCH  17  18
ATOM     18  C   UNL     1       2.653   5.272  18.388  0.00  0.00    +0.000 A 
ATOM     19  C   UNL     1       1.901   5.047  19.553  0.00  0.00    +0.000 A 
ATOM     20  C   UNL     1       1.216   3.843  19.731  0.00  0.00    +0.000 A 
ATOM     21  C   UNL     1       1.288   2.859  18.753  0.00  0.00    +0.000 A 
ATOM     22  F   UNL     1       0.623   1.707  18.926  0.00  0.00    +0.000 F 
ATOM     23  C   UNL     1       2.035   3.054  17.598  0.00  0.00    +0.000 A 
ATOM     24  C   UNL     1       2.723   4.258  17.417  0.00  0.00    +0.000 A 
ENDBRANCH  17  18
ENDBRANCH  15  17
ENDBRANCH   1  13
TORSDOF 4
ENDMDL
MODEL 5
REMARK VINA RESULT:      -8.3      4.669      6.826
REMARK  Name = 
REMARK  6 active torsions:
REMARK  status: ('A' for Active; 'I' for Inactive)
REMARK    1  A    between atoms: C_1  and  C_2
REMARK    2  A    between atoms: C_4  and  C_5
REMARK    3  A    between atoms: C_8  and  C_9
REMARK    4  A    between atoms: C_9  and  C_10
REMARK    5  A    between atoms: N_12  and  C_13
REMARK    6  A    between atoms: C_13  and  C_14
REMARK                            x       y       z     vdW  Elec       q    Type
REMARK                         _______ _______ _______ _____ _____    ______ ____
ROOT
ATOM      1  C   UNL     1       3.345   2.630  20.057  0.00  0.00    +0.000 C 
ENDROOT
BRANCH   1   9
ATOM      2  C   UNL     1       6.759   4.722  14.093  0.00  0.00    +0.000 C 
ATOM      3  C   UNL     1       6.405   4.545  15.549  0.00  0.00    +0.000 A 
ATOM      4  C   UNL     1       7.287   5.223  16.556  0.00  0.00    +0.000 A 
ATOM      5  C   UNL     1       6.957   5.056  17.848  0.00  0.00    +0.000 A 
ATOM      6  C   UNL     1       7.734   5.662  18.977  0.00  0.00    +0.000 C 
ATOM      7  N   UNL     1       5.833   4.282  18.160  0.00  0.00    +0.000 N 
ATOM      8  N   UNL     1       5.318   3.965  19.374  0.00  0.00    +0.000 NA
ATOM      9  C   UNL     1       4.236   3.250  19.051  0.00  0.00    +0.000 A 
ATOM     10  N   UNL     1       4.057   3.035  17.712  0.00  0.00    +0.000 NA
ATOM     11  C   UNL     1       5.054   3.689  17.156  0.00  0.00    +0.000 A 
ATOM     12  N   UNL     1       5.361   3.826  15.833  0.00  0.00    +0.000 NA
ENDBRANCH   1   9
BRANCH   1  13
ATOM     13  C   UNL     1       2.612   3.675  20.867  0.00  0.00    +0.000 C 
ATOM     14  O   UNL     1       2.070   3.405  21.940  0.00  0.00    +0.000 OA
ATOM     15  N   UNL     1       2.537   4.924  20.294  0.00  0.00    +0.000 N 
ATOM     16  H   UNL     1       3.086   5.125  19.469  0.00  0.00    +0.000 HD
BRANCH  15  17
ATOM     17  C   UNL     1       1.806   6.001  20.921  0.00  0.00    +0.000 C 
BRANCH  17  18
ATOM     18  C   UNL     1       1.757   7.254  20.081  0.00  0.00    +0.000 A 
ATOM     19  C   UNL     1       1.106   8.400  20.565  0.00  0.00    +0.000 A 
ATOM     20  C   UNL     1       1.089   9.575  19.811  0.00  0.00    +0.000 A 
ATOM     21  C   UNL     1       1.711   9.606  18.570  0.00  0.00    +0.000 A 
ATOM     22  F   UNL     1       1.697  10.740  17.853  0.00  0.00    +0.000 F 
ATOM     23  C   UNL     1       2.351   8.481  18.065  0.00  0.00    +0.000 A 
ATOM     24  C   UNL     1       2.369   7.302  18.817  0.00  0.00    +0.000 A 
ENDBRANCH  17  18
ENDBRANCH  15  17
ENDBRANCH   1  13
TORSDOF 4
ENDMDL
MODEL 6
REMARK VINA RESULT:      -8.1      4.887      6.928
REMARK  Name = 
REMARK  6 active torsions:
REMARK  status: ('A' for Active; 'I' for Inactive)
REMARK    1  A    between atoms: C_1  and  C_2
REMARK    2  A    between atoms: C_4  and  C_5
REMARK    3  A    between atoms: C_8  and  C_9
REMARK    4  A    between atoms: C_9  and  C_10
REMARK    5  A    between atoms: N_12  and  C_13
REMARK    6  A    between atoms: C_13  and  C_14
REMARK                            x       y       z     vdW  Elec       q    Type
REMARK                         _______ _______ _______ _____ _____    ______ ____
ROOT
ATOM      1  C   UNL     1       6.963   5.294  17.844  0.00  0.00    +0.000 C 
ENDROOT
BRANCH   1   9
ATOM      2  C   UNL     1       5.145   2.616  11.430  0.00  0.00    +0.000 C 
ATOM      3  C   UNL     1       5.854   3.416  12.496  0.00  0.00    +0.000 A 
ATOM      4  C   UNL     1       6.961   4.323  12.048  0.00  0.00    +0.000 A 
ATOM      5  C   UNL     1       7.582   5.028  13.010  0.00  0.00    +0.000 A 
ATOM      6  C   UNL     1       8.708   5.976  12.733  0.00  0.00    +0.000 C 
ATOM      7  N   UNL     1       7.156   4.876  14.336  0.00  0.00    +0.000 N 
ATOM      8  N   UNL     1       7.630   5.463  15.463  0.00  0.00    +0.000 NA
ATOM      9  C   UNL     1       6.818   4.974  16.405  0.00  0.00    +0.000 A 
ATOM     10  N   UNL     1       5.894   4.066  15.966  0.00  0.00    +0.000 NA
ATOM     11  C   UNL     1       6.103   4.012  14.669  0.00  0.00    +0.000 A 
ATOM     12  N   UNL     1       5.454   3.271  13.724  0.00  0.00    +0.000 NA
ENDBRANCH   1   9
BRANCH   1  13
ATOM     13  C   UNL     1       5.668   5.076  18.593  0.00  0.00    +0.000 C 
ATOM     14  O   UNL     1       5.535   4.168  19.414  0.00  0.00    +0.000 OA
ATOM     15  N   UNL     1       4.634   5.918  18.247  0.00  0.00    +0.000 N 
ATOM     16  H   UNL     1       4.820   6.713  17.651  0.00  0.00    +0.000 HD
BRANCH  15  17
ATOM     17  C   UNL     1       3.319   5.779  18.830  0.00  0.00    +0.000 C 
BRANCH  17  18
ATOM     18  C   UNL     1       2.582   7.090  18.950  0.00  0.00    +0.000 A 
ATOM     19  C   UNL     1       2.494   7.952  17.844  0.00  0.00    +0.000 A 
ATOM     20  C   UNL     1       1.781   9.149  17.935  0.00  0.00    +0.000 A 
ATOM     21  C   UNL     1       1.164   9.494  19.131  0.00  0.00    +0.000 A 
ATOM     22  F   UNL     1       0.475  10.642  19.211  0.00  0.00    +0.000 F 
ATOM     23  C   UNL     1       1.247   8.664  20.242  0.00  0.00    +0.000 A 
ATOM     24  C   UNL     1       1.962   7.464  20.154  0.00  0.00    +0.000 A 
ENDBRANCH  17  18
ENDBRANCH  15  17
ENDBRANCH   1  13
TORSDOF 4
ENDMDL
MODEL 7
REMARK VINA RESULT:      -8.1      5.522      7.250
REMARK  Name = 
REMARK  6 active torsions:
REMARK  status: ('A' for Active; 'I' for Inactive)
REMARK    1  A    between atoms: C_1  and  C_2
REMARK    2  A    between atoms: C_4  and  C_5
REMARK    3  A    between atoms: C_8  and  C_9
REMARK    4  A    between atoms: C_9  and  C_10
REMARK    5  A    between atoms: N_12  and  C_13
REMARK    6  A    between atoms: C_13  and  C_14
REMARK                            x       y       z     vdW  Elec       q    Type
REMARK                         _______ _______ _______ _____ _____    ______ ____
ROOT
ATOM      1  C   UNL     1       7.097   4.640  17.731  0.00  0.00    +0.000 C 
ENDROOT
BRANCH   1   9
ATOM      2  C   UNL     1       1.388   2.681  21.626  0.00  0.00    +0.000 C 
ATOM      3  C   UNL     1       2.326   3.510  20.784  0.00  0.00    +0.000 A 
ATOM      4  C   UNL     1       1.905   4.915  20.470  0.00  0.00    +0.000 A 
ATOM      5  C   UNL     1       2.753   5.639  19.720  0.00  0.00    +0.000 A 
ATOM      6  C   UNL     1       2.483   7.056  19.315  0.00  0.00    +0.000 C 
ATOM      7  N   UNL     1       3.950   5.047  19.296  0.00  0.00    +0.000 N 
ATOM      8  N   UNL     1       4.942   5.567  18.532  0.00  0.00    +0.000 NA
ATOM      9  C   UNL     1       5.832   4.569  18.496  0.00  0.00    +0.000 A 
ATOM     10  N   UNL     1       5.448   3.423  19.136  0.00  0.00    +0.000 NA
ATOM     11  C   UNL     1       4.273   3.727  19.643  0.00  0.00    +0.000 A 
ATOM     12  N   UNL     1       3.435   2.955  20.395  0.00  0.00    +0.000 NA
ENDBRANCH   1   9
BRANCH   1  13
ATOM     13  C   UNL     1       6.870   5.168  16.333  0.00  0.00    +0.000 C 
ATOM     14  O   UNL     1       7.566   6.065  15.855  0.00  0.00    +0.000 OA
ATOM     15  N   UNL     1       5.797   4.626  15.661  0.00  0.00    +0.000 N 
ATOM     16  H   UNL     1       5.324   3.820  16.049  0.00  0.00    +0.000 HD
BRANCH  15  17
ATOM     17  C   UNL     1       5.419   5.086  14.345  0.00  0.00    +0.000 C 
BRANCH  17  18
ATOM     18  C   UNL     1       5.756   4.102  13.251  0.00  0.00    +0.000 A 
ATOM     19  C   UNL     1       7.094   3.909  12.868  0.00  0.00    +0.000 A 
ATOM     20  C   UNL     1       7.419   2.973  11.884  0.00  0.00    +0.000 A 
ATOM     21  C   UNL     1       6.411   2.237  11.273  0.00  0.00    +0.000 A 
ATOM     22  F   UNL     1       6.730   1.335  10.334  0.00  0.00    +0.000 F 
ATOM     23  C   UNL     1       5.080   2.420  11.627  0.00  0.00    +0.000 A 
ATOM     24  C   UNL     1       4.751   3.357  12.612  0.00  0.00    +0.000 A 
ENDBRANCH  17  18
ENDBRANCH  15  17
ENDBRANCH   1  13
TORSDOF 4
ENDMDL
MODEL 8
REMARK VINA RESULT:      -8.0      0.984      1.867
REMARK  Name = 
REMARK  6 active torsions:
REMARK  status: ('A' for Active; 'I' for Inactive)
REMARK    1  A    between atoms: C_1  and  C_2
REMARK    2  A    between atoms: C_4  and  C_5
REMARK    3  A    between atoms: C_8  and  C_9
REMARK    4  A    between atoms: C_9  and  C_10
REMARK    5  A    between atoms: N_12  and  C_13
REMARK    6  A    between atoms: C_13  and  C_14
REMARK                            x       y       z     vdW  Elec       q    Type
REMARK                         _______ _______ _______ _____ _____    ______ ____
ROOT
ATOM      1  C   UNL     1       7.841   6.197  18.837  0.00  0.00    +0.000 C 
ENDROOT
BRANCH   1   9
ATOM      2  C   UNL     1       1.054   4.288  17.459  0.00  0.00    +0.000 C 
ATOM      3  C   UNL     1       2.459   4.271  18.009  0.00  0.00    +0.000 A 
ATOM      4  C   UNL     1       2.839   3.112  18.882  0.00  0.00    +0.000 A 
ATOM      5  C   UNL     1       4.095   3.113  19.362  0.00  0.00    +0.000 A 
ATOM      6  C   UNL     1       4.633   2.032  20.249  0.00  0.00    +0.000 C 
ATOM      7  N   UNL     1       4.946   4.170  19.017  0.00  0.00    +0.000 N 
ATOM      8  N   UNL     1       6.233   4.392  19.385  0.00  0.00    +0.000 NA
ATOM      9  C   UNL     1       6.531   5.515  18.724  0.00  0.00    +0.000 A 
ATOM     10  N   UNL     1       5.503   6.061  18.006  0.00  0.00    +0.000 NA
ATOM     11  C   UNL     1       4.514   5.212  18.185  0.00  0.00    +0.000 A 
ATOM     12  N   UNL     1       3.245   5.254  17.685  0.00  0.00    +0.000 NA
ENDBRANCH   1   9
BRANCH   1  13
ATOM     13  C   UNL     1       7.907   7.420  17.952  0.00  0.00    +0.000 C 
ATOM     14  O   UNL     1       7.644   7.369  16.750  0.00  0.00    +0.000 OA
ATOM     15  N   UNL     1       8.342   8.574  18.566  0.00  0.00    +0.000 N 
ATOM     16  H   UNL     1       8.442   8.593  19.572  0.00  0.00    +0.000 HD
BRANCH  15  17
ATOM     17  C   UNL     1       8.523   9.801  17.827  0.00  0.00    +0.000 C 
BRANCH  17  18
ATOM     18  C   UNL     1       9.488  10.756  18.487  0.00  0.00    +0.000 A 
ATOM     19  C   UNL     1      10.297  11.593  17.701  0.00  0.00    +0.000 A 
ATOM     20  C   UNL     1      11.166  12.505  18.304  0.00  0.00    +0.000 A 
ATOM     21  C   UNL     1      11.236  12.577  19.690  0.00  0.00    +0.000 A 
ATOM     22  F   UNL     1      12.067  13.460  20.263  0.00  0.00    +0.000 F 
ATOM     23  C   UNL     1      10.455  11.750  20.487  0.00  0.00    +0.000 A 
ATOM     24  C   UNL     1       9.585  10.834  19.887  0.00  0.00    +0.000 A 
ENDBRANCH  17  18
ENDBRANCH  15  17
ENDBRANCH   1  13
TORSDOF 4
ENDMDL
MODEL 9
REMARK VINA RESULT:      -8.0      0.953      2.108
REMARK  Name = 
REMARK  6 active torsions:
REMARK  status: ('A' for Active; 'I' for Inactive)
REMARK    1  A    between atoms: C_1  and  C_2
REMARK    2  A    between atoms: C_4  and  C_5
REMARK    3  A    between atoms: C_8  and  C_9
REMARK    4  A    between atoms: C_9  and  C_10
REMARK    5  A    between atoms: N_12  and  C_13
REMARK    6  A    between atoms: C_13  and  C_14
REMARK                            x       y       z     vdW  Elec       q    Type
REMARK                         _______ _______ _______ _____ _____    ______ ____
ROOT
ATOM      1  C   UNL     1       7.836   6.158  18.866  0.00  0.00    +0.000 C 
ENDROOT
BRANCH   1   9
ATOM      2  C   UNL     1       1.047   4.273  17.467  0.00  0.00    +0.000 C 
ATOM      3  C   UNL     1       2.452   4.249  18.017  0.00  0.00    +0.000 A 
ATOM      4  C   UNL     1       2.830   3.081  18.879  0.00  0.00    +0.000 A 
ATOM      5  C   UNL     1       4.085   3.074  19.360  0.00  0.00    +0.000 A 
ATOM      6  C   UNL     1       4.621   1.985  20.236  0.00  0.00    +0.000 C 
ATOM      7  N   UNL     1       4.938   4.133  19.025  0.00  0.00    +0.000 N 
ATOM      8  N   UNL     1       6.225   4.350  19.395  0.00  0.00    +0.000 NA
ATOM      9  C   UNL     1       6.526   5.479  18.745  0.00  0.00    +0.000 A 
ATOM     10  N   UNL     1       5.499   6.033  18.033  0.00  0.00    +0.000 NA
ATOM     11  C   UNL     1       4.508   5.185  18.203  0.00  0.00    +0.000 A 
ATOM     12  N   UNL     1       3.239   5.234  17.703  0.00  0.00    +0.000 NA
ENDBRANCH   1   9
BRANCH   1  13
ATOM     13  C   UNL     1       7.928   7.353  17.944  0.00  0.00    +0.000 C 
ATOM     14  O   UNL     1       7.720   7.259  16.734  0.00  0.00    +0.000 OA
ATOM     15  N   UNL     1       8.322   8.531  18.539  0.00  0.00    +0.000 N 
ATOM     16  H   UNL     1       8.377   8.583  19.548  0.00  0.00    +0.000 HD
BRANCH  15  17
ATOM     17  C   UNL     1       8.522   9.736  17.769  0.00  0.00    +0.000 C 
BRANCH  17  18
ATOM     18  C   UNL     1       9.394  10.750  18.468  0.00  0.00    +0.000 A 
ATOM     19  C   UNL     1       9.439  10.791  19.871  0.00  0.00    +0.000 A 
ATOM     20  C   UNL     1      10.272  11.700  20.526  0.00  0.00    +0.000 A 
ATOM     21  C   UNL     1      11.053  12.577  19.784  0.00  0.00    +0.000 A 
ATOM     22  F   UNL     1      11.856  13.444  20.419  0.00  0.00    +0.000 F 
ATOM     23  C   UNL     1      11.016  12.564  18.396  0.00  0.00    +0.000 A 
ATOM     24  C   UNL     1      10.182  11.655  17.736  0.00  0.00    +0.000 A 
ENDBRANCH  17  18
ENDBRANCH  15  17
ENDBRANCH   1  13
TORSDOF 4
ENDMDL
