MODEL 1
REMARK VINA RESULT:      -6.8      0.000      0.000
REMARK  Name = 
REMARK  8 active torsions:
REMARK  status: ('A' for Active; 'I' for Inactive)
REMARK    1  A    between atoms: C_1  and  C_2
REMARK    2  A    between atoms: C_2  and  C_3
REMARK    3  A    between atoms: C_2  and  C_4
REMARK    4  A    between atoms: C_7  and  C_8
REMARK    5  A    between atoms: N_17  and  C_18
REMARK    6  A    between atoms: C_19  and  C_20
REMARK    7  A    between atoms: N_22  and  C_23
REMARK    8  A    between atoms: N_22  and  C_24
REMARK                            x       y       z     vdW  Elec       q    Type
REMARK                         _______ _______ _______ _____ _____    ______ ____
ROOT
ATOM      1  C   UNL     1       0.151  11.147  18.700  0.00  0.00    +0.000 C 
ATOM      2  O   UNL     1      -1.072  11.023  18.610  0.00  0.00    +0.000 OA
ATOM      3  N   UNL     1       0.782  12.394  18.662  0.00  0.00    +0.000 N 
ATOM      4  C   UNL     1      -0.026  13.603  18.777  0.00  0.00    +0.000 C 
ATOM      5  C   UNL     1       0.594  14.542  19.817  0.00  0.00    +0.000 C 
ATOM      6  C   UNL     1       2.097  14.899  19.522  0.00  0.00    +0.000 C 
ATOM      7  C   UNL     1       2.227  15.769  18.246  0.00  0.00    +0.000 C 
ATOM      8  C   UNL     1       1.521  17.109  18.395  0.00  0.00    +0.000 C 
ATOM      9  C   UNL     1       1.953  17.847  19.659  0.00  0.00    +0.000 C 
ATOM     10  N   UNL     1       1.916  17.001  20.860  0.00  0.00    +0.000 NA
ATOM     11  C   UNL     1       2.271  17.780  22.044  0.00  0.00    +0.000 C 
ATOM     12  C   UNL     1       2.689  15.717  20.737  0.00  0.00    +0.000 C 
ATOM     13  C   UNL     1       2.842  13.559  19.297  0.00  0.00    +0.000 C 
ATOM     14  C   UNL     1       2.168  12.641  18.275  0.00  0.00    +0.000 C 
ENDROOT
BRANCH   1  18
ATOM     15  C   UNL     1       2.254   7.424  19.330  0.00  0.00    +0.000 A 
ATOM     16  C   UNL     1       2.231   8.038  18.064  0.00  0.00    +0.000 A 
ATOM     17  C   UNL     1       1.591   9.271  17.868  0.00  0.00    +0.000 A 
ATOM     18  C   UNL     1       0.948   9.910  18.942  0.00  0.00    +0.000 A 
ATOM     19  C   UNL     1       0.952   9.281  20.195  0.00  0.00    +0.000 A 
ATOM     20  C   UNL     1       1.636   8.088  20.397  0.00  0.00    +0.000 A 
BRANCH  15  22
ATOM     21  C   UNL     1       2.058   5.197  20.509  0.00  0.00    +0.000 C 
ATOM     22  C   UNL     1       2.876   6.055  19.538  0.00  0.00    +0.000 C 
ATOM     23  C   UNL     1       3.042   5.311  18.205  0.00  0.00    +0.000 C 
ENDBRANCH  15  22
ENDBRANCH   1  18
BRANCH  12  24
ATOM     24  C   UNL     1       4.252  15.958  20.651  0.00  0.00    +0.000 C 
ATOM     25  O   UNL     1       4.718  16.764  19.837  0.00  0.00    +0.000 OA
ATOM     26  N   UNL     1       5.135  15.247  21.469  0.00  0.00    +0.000 N 
ATOM     27  C   UNL     1       4.805  14.216  22.440  0.00  0.00    +0.000 C 
ATOM     28  C   UNL     1       6.564  15.400  21.208  0.00  0.00    +0.000 C 
ENDBRANCH  12  24
TORSDOF 3
ENDMDL
MODEL 2
REMARK VINA RESULT:      -6.6      2.525      4.314
REMARK  Name = 
REMARK  8 active torsions:
REMARK  status: ('A' for Active; 'I' for Inactive)
REMARK    1  A    between atoms: C_1  and  C_2
REMARK    2  A    between atoms: C_2  and  C_3
REMARK    3  A    between atoms: C_2  and  C_4
REMARK    4  A    between atoms: C_7  and  C_8
REMARK    5  A    between atoms: N_17  and  C_18
REMARK    6  A    between atoms: C_19  and  C_20
REMARK    7  A    between atoms: N_22  and  C_23
REMARK    8  A    between atoms: N_22  and  C_24
REMARK                            x       y       z     vdW  Elec       q    Type
REMARK                         _______ _______ _______ _____ _____    ______ ____
ROOT
ATOM      1  C   UNL     1       1.913   7.210  19.991  0.00  0.00    +0.000 C 
ATOM      2  O   UNL     1       1.580   6.427  20.883  0.00  0.00    +0.000 OA
ATOM      3  N   UNL     1       1.321   8.467  19.839  0.00  0.00    +0.000 N 
ATOM      4  C   UNL     1       0.471   8.986  20.906  0.00  0.00    +0.000 C 
ATOM      5  C   UNL     1       0.877  10.427  21.234  0.00  0.00    +0.000 C 
ATOM      6  C   UNL     1       0.856  11.383  19.986  0.00  0.00    +0.000 C 
ATOM      7  C   UNL     1      -0.589  11.609  19.475  0.00  0.00    +0.000 C 
ATOM      8  C   UNL     1      -1.462  12.294  20.516  0.00  0.00    +0.000 C 
ATOM      9  C   UNL     1      -0.821  13.571  21.053  0.00  0.00    +0.000 C 
ATOM     10  N   UNL     1       0.580  13.384  21.458  0.00  0.00    +0.000 NA
ATOM     11  C   UNL     1       1.115  14.619  22.025  0.00  0.00    +0.000 C 
ATOM     12  C   UNL     1       1.458  12.787  20.393  0.00  0.00    +0.000 C 
ATOM     13  C   UNL     1       1.683  10.690  18.874  0.00  0.00    +0.000 C 
ATOM     14  C   UNL     1       1.264   9.243  18.604  0.00  0.00    +0.000 C 
ENDROOT
BRANCH   1  18
ATOM     15  C   UNL     1       5.032   5.882  17.310  0.00  0.00    +0.000 A 
ATOM     16  C   UNL     1       4.233   6.997  16.996  0.00  0.00    +0.000 A 
ATOM     17  C   UNL     1       3.254   7.460  17.887  0.00  0.00    +0.000 A 
ATOM     18  C   UNL     1       3.046   6.803  19.111  0.00  0.00    +0.000 A 
ATOM     19  C   UNL     1       3.827   5.676  19.407  0.00  0.00    +0.000 A 
ATOM     20  C   UNL     1       4.835   5.256  18.547  0.00  0.00    +0.000 A 
BRANCH  15  22
ATOM     21  C   UNL     1       7.270   4.741  17.031  0.00  0.00    +0.000 C 
ATOM     22  C   UNL     1       6.042   5.324  16.323  0.00  0.00    +0.000 C 
ATOM     23  C   UNL     1       5.408   4.255  15.422  0.00  0.00    +0.000 C 
ENDBRANCH  15  22
ENDBRANCH   1  18
BRANCH  12  24
ATOM     24  C   UNL     1       1.681  13.771  19.172  0.00  0.00    +0.000 C 
ATOM     25  O   UNL     1       0.817  13.889  18.295  0.00  0.00    +0.000 OA
ATOM     26  N   UNL     1       2.867  14.501  19.044  0.00  0.00    +0.000 N 
ATOM     27  C   UNL     1       4.027  14.463  19.920  0.00  0.00    +0.000 C 
ATOM     28  C   UNL     1       3.065  15.249  17.806  0.00  0.00    +0.000 C 
ENDBRANCH  12  24
TORSDOF 3
ENDMDL
MODEL 3
REMARK VINA RESULT:      -6.5      2.472      7.348
REMARK  Name = 
REMARK  8 active torsions:
REMARK  status: ('A' for Active; 'I' for Inactive)
REMARK    1  A    between atoms: C_1  and  C_2
REMARK    2  A    between atoms: C_2  and  C_3
REMARK    3  A    between atoms: C_2  and  C_4
REMARK    4  A    between atoms: C_7  and  C_8
REMARK    5  A    between atoms: N_17  and  C_18
REMARK    6  A    between atoms: C_19  and  C_20
REMARK    7  A    between atoms: N_22  and  C_23
REMARK    8  A    between atoms: N_22  and  C_24
REMARK                            x       y       z     vdW  Elec       q    Type
REMARK                         _______ _______ _______ _____ _____    ______ ____
ROOT
ATOM      1  C   UNL     1       3.414  16.129  18.748  0.00  0.00    +0.000 C 
ATOM      2  O   UNL     1       3.120  17.182  18.180  0.00  0.00    +0.000 OA
ATOM      3  N   UNL     1       2.450  15.281  19.301  0.00  0.00    +0.000 N 
ATOM      4  C   UNL     1       1.044  15.502  18.984  0.00  0.00    +0.000 C 
ATOM      5  C   UNL     1       0.393  14.177  18.571  0.00  0.00    +0.000 C 
ATOM      6  C   UNL     1       0.553  13.040  19.644  0.00  0.00    +0.000 C 
ATOM      7  C   UNL     1      -0.255  13.361  20.927  0.00  0.00    +0.000 C 
ATOM      8  C   UNL     1      -1.750  13.443  20.654  0.00  0.00    +0.000 C 
ATOM      9  C   UNL     1      -2.269  12.208  19.924  0.00  0.00    +0.000 C 
ATOM     10  N   UNL     1      -1.455  11.846  18.755  0.00  0.00    +0.000 NA
ATOM     11  C   UNL     1      -2.040  10.703  18.060  0.00  0.00    +0.000 C 
ATOM     12  C   UNL     1       0.010  11.680  19.050  0.00  0.00    +0.000 C 
ATOM     13  C   UNL     1       2.059  12.966  20.001  0.00  0.00    +0.000 C 
ATOM     14  C   UNL     1       2.673  14.317  20.375  0.00  0.00    +0.000 C 
ENDROOT
BRANCH   1  18
ATOM     15  C   UNL     1       7.628  15.179  18.601  0.00  0.00    +0.000 A 
ATOM     16  C   UNL     1       7.130  16.123  19.518  0.00  0.00    +0.000 A 
ATOM     17  C   UNL     1       5.757  16.397  19.602  0.00  0.00    +0.000 A 
ATOM     18  C   UNL     1       4.853  15.734  18.754  0.00  0.00    +0.000 A 
ATOM     19  C   UNL     1       5.357  14.814  17.825  0.00  0.00    +0.000 A 
ATOM     20  C   UNL     1       6.712  14.504  17.785  0.00  0.00    +0.000 A 
BRANCH  15  22
ATOM     21  C   UNL     1       9.408  13.537  17.879  0.00  0.00    +0.000 C 
ATOM     22  C   UNL     1       9.118  14.930  18.448  0.00  0.00    +0.000 C 
ATOM     23  C   UNL     1       9.772  15.997  17.559  0.00  0.00    +0.000 C 
ENDBRANCH  15  22
ENDBRANCH   1  18
BRANCH  12  24
ATOM     24  C   UNL     1       0.305  10.416  19.959  0.00  0.00    +0.000 C 
ATOM     25  O   UNL     1      -0.139  10.356  21.112  0.00  0.00    +0.000 OA
ATOM     26  N   UNL     1       1.092   9.360  19.490  0.00  0.00    +0.000 N 
ATOM     27  C   UNL     1       1.758   9.260  18.201  0.00  0.00    +0.000 C 
ATOM     28  C   UNL     1       1.458   8.319  20.446  0.00  0.00    +0.000 C 
ENDBRANCH  12  24
TORSDOF 3
ENDMDL
MODEL 4
REMARK VINA RESULT:      -6.4      0.992      1.030
REMARK  Name = 
REMARK  8 active torsions:
REMARK  status: ('A' for Active; 'I' for Inactive)
REMARK    1  A    between atoms: C_1  and  C_2
REMARK    2  A    between atoms: C_2  and  C_3
REMARK    3  A    between atoms: C_2  and  C_4
REMARK    4  A    between atoms: C_7  and  C_8
REMARK    5  A    between atoms: N_17  and  C_18
REMARK    6  A    between atoms: C_19  and  C_20
REMARK    7  A    between atoms: N_22  and  C_23
REMARK    8  A    between atoms: N_22  and  C_24
REMARK                            x       y       z     vdW  Elec       q    Type
REMARK                         _______ _______ _______ _____ _____    ______ ____
ROOT
ATOM      1  C   UNL     1       0.225  10.719  19.501  0.00  0.00    +0.000 C 
ATOM      2  O   UNL     1      -0.906  10.482  19.929  0.00  0.00    +0.000 OA
ATOM      3  N   UNL     1       0.712  12.021  19.352  0.00  0.00    +0.000 N 
ATOM      4  C   UNL     1      -0.024  13.128  19.953  0.00  0.00    +0.000 C 
ATOM      5  C   UNL     1       0.941  14.025  20.735  0.00  0.00    +0.000 C 
ATOM      6  C   UNL     1       2.142  14.556  19.872  0.00  0.00    +0.000 C 
ATOM      7  C   UNL     1       1.657  15.547  18.784  0.00  0.00    +0.000 C 
ATOM      8  C   UNL     1       1.022  16.791  19.388  0.00  0.00    +0.000 C 
ATOM      9  C   UNL     1       1.925  17.451  20.426  0.00  0.00    +0.000 C 
ATOM     10  N   UNL     1       2.460  16.499  21.410  0.00  0.00    +0.000 NA
ATOM     11  C   UNL     1       3.257  17.198  22.415  0.00  0.00    +0.000 C 
ATOM     12  C   UNL     1       3.165  15.315  20.808  0.00  0.00    +0.000 C 
ATOM     13  C   UNL     1       2.781  13.323  19.183  0.00  0.00    +0.000 C 
ATOM     14  C   UNL     1       1.775  12.439  18.442  0.00  0.00    +0.000 C 
ENDROOT
BRANCH   1  18
ATOM     15  C   UNL     1       2.576   7.205  18.606  0.00  0.00    +0.000 A 
ATOM     16  C   UNL     1       2.318   8.174  17.619  0.00  0.00    +0.000 A 
ATOM     17  C   UNL     1       1.597   9.339  17.919  0.00  0.00    +0.000 A 
ATOM     18  C   UNL     1       1.109   9.551  19.220  0.00  0.00    +0.000 A 
ATOM     19  C   UNL     1       1.346   8.570  20.192  0.00  0.00    +0.000 A 
ATOM     20  C   UNL     1       2.110   7.444  19.904  0.00  0.00    +0.000 A 
BRANCH  15  22
ATOM     21  C   UNL     1       4.146   5.411  19.445  0.00  0.00    +0.000 C 
ATOM     22  C   UNL     1       3.288   5.905  18.276  0.00  0.00    +0.000 C 
ATOM     23  C   UNL     1       2.290   4.812  17.869  0.00  0.00    +0.000 C 
ENDBRANCH  15  22
ENDBRANCH   1  18
BRANCH  12  24
ATOM     24  C   UNL     1       4.518  15.718  20.090  0.00  0.00    +0.000 C 
ATOM     25  O   UNL     1       4.501  16.363  19.035  0.00  0.00    +0.000 OA
ATOM     26  N   UNL     1       5.754  15.330  20.617  0.00  0.00    +0.000 N 
ATOM     27  C   UNL     1       5.996  14.521  21.801  0.00  0.00    +0.000 C 
ATOM     28  C   UNL     1       6.941  15.591  19.807  0.00  0.00    +0.000 C 
ENDBRANCH  12  24
TORSDOF 3
ENDMDL
MODEL 5
REMARK VINA RESULT:      -6.4      2.745      6.975
REMARK  Name = 
REMARK  8 active torsions:
REMARK  status: ('A' for Active; 'I' for Inactive)
REMARK    1  A    between atoms: C_1  and  C_2
REMARK    2  A    between atoms: C_2  and  C_3
REMARK    3  A    between atoms: C_2  and  C_4
REMARK    4  A    between atoms: C_7  and  C_8
REMARK    5  A    between atoms: N_17  and  C_18
REMARK    6  A    between atoms: C_19  and  C_20
REMARK    7  A    between atoms: N_22  and  C_23
REMARK    8  A    between atoms: N_22  and  C_24
REMARK                            x       y       z     vdW  Elec       q    Type
REMARK                         _______ _______ _______ _____ _____    ______ ____
ROOT
ATOM      1  C   UNL     1       4.594  16.095  18.958  0.00  0.00    +0.000 C 
ATOM      2  O   UNL     1       4.496  17.167  18.359  0.00  0.00    +0.000 OA
ATOM      3  N   UNL     1       3.528  15.533  19.667  0.00  0.00    +0.000 N 
ATOM      4  C   UNL     1       2.189  16.083  19.491  0.00  0.00    +0.000 C 
ATOM      5  C   UNL     1       1.193  14.947  19.239  0.00  0.00    +0.000 C 
ATOM      6  C   UNL     1       1.202  13.845  20.360  0.00  0.00    +0.000 C 
ATOM      7  C   UNL     1       0.657  14.403  21.699  0.00  0.00    +0.000 C 
ATOM      8  C   UNL     1      -0.795  14.842  21.586  0.00  0.00    +0.000 C 
ATOM      9  C   UNL     1      -1.682  13.748  20.999  0.00  0.00    +0.000 C 
ATOM     10  N   UNL     1      -1.127  13.153  19.775  0.00  0.00    +0.000 NA
ATOM     11  C   UNL     1      -2.051  12.166  19.224  0.00  0.00    +0.000 C 
ATOM     12  C   UNL     1       0.279  12.640  19.918  0.00  0.00    +0.000 C 
ATOM     13  C   UNL     1       2.677  13.414  20.555  0.00  0.00    +0.000 C 
ATOM     14  C   UNL     1       3.640  14.584  20.771  0.00  0.00    +0.000 C 
ENDROOT
BRANCH   1  18
ATOM     15  C   UNL     1       8.423  14.155  18.457  0.00  0.00    +0.000 A 
ATOM     16  C   UNL     1       8.201  15.056  19.514  0.00  0.00    +0.000 A 
ATOM     17  C   UNL     1       6.945  15.649  19.708  0.00  0.00    +0.000 A 
ATOM     18  C   UNL     1       5.884  15.357  18.834  0.00  0.00    +0.000 A 
ATOM     19  C   UNL     1       6.119  14.479  17.767  0.00  0.00    +0.000 A 
ATOM     20  C   UNL     1       7.348  13.850  17.612  0.00  0.00    +0.000 A 
BRANCH  15  22
ATOM     21  C   UNL     1      10.744  13.764  19.378  0.00  0.00    +0.000 C 
ATOM     22  C   UNL     1       9.797  13.565  18.190  0.00  0.00    +0.000 C 
ATOM     23  C   UNL     1       9.704  12.072  17.848  0.00  0.00    +0.000 C 
ENDBRANCH  15  22
ENDBRANCH   1  18
BRANCH  12  24
ATOM     24  C   UNL     1       0.368  11.378  20.871  0.00  0.00    +0.000 C 
ATOM     25  O   UNL     1       0.200  11.499  22.090  0.00  0.00    +0.000 OA
ATOM     26  N   UNL     1       0.664  10.110  20.359  0.00  0.00    +0.000 N 
ATOM     27  C   UNL     1       0.957   9.761  18.978  0.00  0.00    +0.000 C 
ATOM     28  C   UNL     1       0.898   9.036  21.319  0.00  0.00    +0.000 C 
ENDBRANCH  12  24
TORSDOF 3
ENDMDL
MODEL 6
REMARK VINA RESULT:      -6.4      0.956      1.369
REMARK  Name = 
REMARK  8 active torsions:
REMARK  status: ('A' for Active; 'I' for Inactive)
REMARK    1  A    between atoms: C_1  and  C_2
REMARK    2  A    between atoms: C_2  and  C_3
REMARK    3  A    between atoms: C_2  and  C_4
REMARK    4  A    between atoms: C_7  and  C_8
REMARK    5  A    between atoms: N_17  and  C_18
REMARK    6  A    between atoms: C_19  and  C_20
REMARK    7  A    between atoms: N_22  and  C_23
REMARK    8  A    between atoms: N_22  and  C_24
REMARK                            x       y       z     vdW  Elec       q    Type
REMARK                         _______ _______ _______ _____ _____    ______ ____
ROOT
ATOM      1  C   UNL     1       0.021  11.172  19.459  0.00  0.00    +0.000 C 
ATOM      2  O   UNL     1      -1.134  11.095  19.882  0.00  0.00    +0.000 OA
ATOM      3  N   UNL     1       0.668  12.397  19.268  0.00  0.00    +0.000 N 
ATOM      4  C   UNL     1       0.072  13.609  19.819  0.00  0.00    +0.000 C 
ATOM      5  C   UNL     1       1.136  14.408  20.579  0.00  0.00    +0.000 C 
ATOM      6  C   UNL     1       2.401  14.751  19.710  0.00  0.00    +0.000 C 
ATOM      7  C   UNL     1       2.051  15.753  18.581  0.00  0.00    +0.000 C 
ATOM      8  C   UNL     1       1.572  17.089  19.132  0.00  0.00    +0.000 C 
ATOM      9  C   UNL     1       2.544  17.669  20.155  0.00  0.00    +0.000 C 
ATOM     10  N   UNL     1       2.948  16.696  21.180  0.00  0.00    +0.000 NA
ATOM     11  C   UNL     1       3.820  17.328  22.167  0.00  0.00    +0.000 C 
ATOM     12  C   UNL     1       3.504  15.412  20.629  0.00  0.00    +0.000 C 
ATOM     13  C   UNL     1       2.885  13.423  19.075  0.00  0.00    +0.000 C 
ATOM     14  C   UNL     1       1.781  12.644  18.356  0.00  0.00    +0.000 C 
ENDROOT
BRANCH   1  18
ATOM     15  C   UNL     1       2.360   7.587  18.865  0.00  0.00    +0.000 A 
ATOM     16  C   UNL     1       1.827   7.903  20.128  0.00  0.00    +0.000 A 
ATOM     17  C   UNL     1       1.026   9.039  20.313  0.00  0.00    +0.000 A 
ATOM     18  C   UNL     1       0.753   9.893  19.231  0.00  0.00    +0.000 A 
ATOM     19  C   UNL     1       1.309   9.588  17.980  0.00  0.00    +0.000 A 
ATOM     20  C   UNL     1       2.054   8.430  17.790  0.00  0.00    +0.000 A 
BRANCH  15  22
ATOM     21  C   UNL     1       2.522   5.079  18.598  0.00  0.00    +0.000 C 
ATOM     22  C   UNL     1       3.290   6.403  18.669  0.00  0.00    +0.000 C 
ATOM     23  C   UNL     1       4.146   6.571  17.405  0.00  0.00    +0.000 C 
ENDBRANCH  15  22
ENDBRANCH   1  18
BRANCH  12  24
ATOM     24  C   UNL     1       4.902  15.615  19.914  0.00  0.00    +0.000 C 
ATOM     25  O   UNL     1       4.966  16.164  18.807  0.00  0.00    +0.000 OA
ATOM     26  N   UNL     1       6.084  15.154  20.501  0.00  0.00    +0.000 N 
ATOM     27  C   UNL     1       6.225  14.432  21.755  0.00  0.00    +0.000 C 
ATOM     28  C   UNL     1       7.304  15.225  19.701  0.00  0.00    +0.000 C 
ENDBRANCH  12  24
TORSDOF 3
ENDMDL
MODEL 7
REMARK VINA RESULT:      -6.3      2.782      6.763
REMARK  Name = 
REMARK  8 active torsions:
REMARK  status: ('A' for Active; 'I' for Inactive)
REMARK    1  A    between atoms: C_1  and  C_2
REMARK    2  A    between atoms: C_2  and  C_3
REMARK    3  A    between atoms: C_2  and  C_4
REMARK    4  A    between atoms: C_7  and  C_8
REMARK    5  A    between atoms: N_17  and  C_18
REMARK    6  A    between atoms: C_19  and  C_20
REMARK    7  A    between atoms: N_22  and  C_23
REMARK    8  A    between atoms: N_22  and  C_24
REMARK                            x       y       z     vdW  Elec       q    Type
REMARK                         _______ _______ _______ _____ _____    ______ ____
ROOT
ATOM      1  C   UNL     1       4.855  16.155  19.067  0.00  0.00    +0.000 C 
ATOM      2  O   UNL     1       4.777  17.260  18.527  0.00  0.00    +0.000 OA
ATOM      3  N   UNL     1       3.787  15.586  19.766  0.00  0.00    +0.000 N 
ATOM      4  C   UNL     1       2.461  16.182  19.647  0.00  0.00    +0.000 C 
ATOM      5  C   UNL     1       1.428  15.089  19.356  0.00  0.00    +0.000 C 
ATOM      6  C   UNL     1       1.426  13.929  20.417  0.00  0.00    +0.000 C 
ATOM      7  C   UNL     1       0.923  14.430  21.795  0.00  0.00    +0.000 C 
ATOM      8  C   UNL     1      -0.518  14.916  21.734  0.00  0.00    +0.000 C 
ATOM      9  C   UNL     1      -1.447  13.880  21.108  0.00  0.00    +0.000 C 
ATOM     10  N   UNL     1      -0.933  13.336  19.843  0.00  0.00    +0.000 NA
ATOM     11  C   UNL     1      -1.895  12.405  19.260  0.00  0.00    +0.000 C 
ATOM     12  C   UNL     1       0.460  12.777  19.931  0.00  0.00    +0.000 C 
ATOM     13  C   UNL     1       2.892  13.447  20.559  0.00  0.00    +0.000 C 
ATOM     14  C   UNL     1       3.892  14.576  20.816  0.00  0.00    +0.000 C 
ENDROOT
BRANCH   1  18
ATOM     15  C   UNL     1       8.403  13.729  18.615  0.00  0.00    +0.000 A 
ATOM     16  C   UNL     1       7.427  13.779  17.603  0.00  0.00    +0.000 A 
ATOM     17  C   UNL     1       6.299  14.604  17.725  0.00  0.00    +0.000 A 
ATOM     18  C   UNL     1       6.121  15.389  18.877  0.00  0.00    +0.000 A 
ATOM     19  C   UNL     1       7.083  15.314  19.894  0.00  0.00    +0.000 A 
ATOM     20  C   UNL     1       8.228  14.540  19.743  0.00  0.00    +0.000 A 
BRANCH  15  22
ATOM     21  C   UNL     1       9.149  11.316  18.500  0.00  0.00    +0.000 C 
ATOM     22  C   UNL     1       9.589  12.784  18.529  0.00  0.00    +0.000 C 
ATOM     23  C   UNL     1      10.454  13.088  17.297  0.00  0.00    +0.000 C 
ENDBRANCH  15  22
ENDBRANCH   1  18
BRANCH  12  24
ATOM     24  C   UNL     1       0.530  11.463  20.813  0.00  0.00    +0.000 C 
ATOM     25  O   UNL     1       0.382  11.522  22.040  0.00  0.00    +0.000 OA
ATOM     26  N   UNL     1       0.788  10.218  20.230  0.00  0.00    +0.000 N 
ATOM     27  C   UNL     1       1.053   9.937  18.829  0.00  0.00    +0.000 C 
ATOM     28  C   UNL     1       1.008   9.088  21.129  0.00  0.00    +0.000 C 
ENDBRANCH  12  24
TORSDOF 3
ENDMDL
MODEL 8
REMARK VINA RESULT:      -6.3      1.441      1.879
REMARK  Name = 
REMARK  8 active torsions:
REMARK  status: ('A' for Active; 'I' for Inactive)
REMARK    1  A    between atoms: C_1  and  C_2
REMARK    2  A    between atoms: C_2  and  C_3
REMARK    3  A    between atoms: C_2  and  C_4
REMARK    4  A    between atoms: C_7  and  C_8
REMARK    5  A    between atoms: N_17  and  C_18
REMARK    6  A    between atoms: C_19  and  C_20
REMARK    7  A    between atoms: N_22  and  C_23
REMARK    8  A    between atoms: N_22  and  C_24
REMARK                            x       y       z     vdW  Elec       q    Type
REMARK                         _______ _______ _______ _____ _____    ______ ____
ROOT
ATOM      1  C   UNL     1       0.316  10.662  20.212  0.00  0.00    +0.000 C 
ATOM      2  O   UNL     1      -0.597  10.509  21.026  0.00  0.00    +0.000 OA
ATOM      3  N   UNL     1       0.779  11.926  19.835  0.00  0.00    +0.000 N 
ATOM      4  C   UNL     1       0.361  13.094  20.602  0.00  0.00    +0.000 C 
ATOM      5  C   UNL     1       1.584  13.952  20.943  0.00  0.00    +0.000 C 
ATOM      6  C   UNL     1       2.420  14.380  19.683  0.00  0.00    +0.000 C 
ATOM      7  C   UNL     1       1.625  15.367  18.791  0.00  0.00    +0.000 C 
ATOM      8  C   UNL     1       1.309  16.666  19.518  0.00  0.00    +0.000 C 
ATOM      9  C   UNL     1       2.555  17.298  20.132  0.00  0.00    +0.000 C 
ATOM     10  N   UNL     1       3.360  16.345  20.908  0.00  0.00    +0.000 NA
ATOM     11  C   UNL     1       4.497  17.023  21.526  0.00  0.00    +0.000 C 
ATOM     12  C   UNL     1       3.745  15.102  20.154  0.00  0.00    +0.000 C 
ATOM     13  C   UNL     1       2.709  13.090  18.875  0.00  0.00    +0.000 C 
ATOM     14  C   UNL     1       1.464  12.249  18.586  0.00  0.00    +0.000 C 
ENDROOT
BRANCH   1  18
ATOM     15  C   UNL     1       2.475   7.204  18.779  0.00  0.00    +0.000 A 
ATOM     16  C   UNL     1       2.059   7.293  20.120  0.00  0.00    +0.000 A 
ATOM     17  C   UNL     1       1.315   8.391  20.576  0.00  0.00    +0.000 A 
ATOM     18  C   UNL     1       0.983   9.433  19.694  0.00  0.00    +0.000 A 
ATOM     19  C   UNL     1       1.423   9.351  18.365  0.00  0.00    +0.000 A 
ATOM     20  C   UNL     1       2.111   8.235  17.904  0.00  0.00    +0.000 A 
BRANCH  15  22
ATOM     21  C   UNL     1       4.327   5.588  19.370  0.00  0.00    +0.000 C 
ATOM     22  C   UNL     1       3.345   6.058  18.291  0.00  0.00    +0.000 C 
ATOM     23  C   UNL     1       2.490   4.874  17.818  0.00  0.00    +0.000 C 
ENDBRANCH  15  22
ENDBRANCH   1  18
BRANCH  12  24
ATOM     24  C   UNL     1       4.769  15.398  18.982  0.00  0.00    +0.000 C 
ATOM     25  O   UNL     1       4.366  15.784  17.879  0.00  0.00    +0.000 OA
ATOM     26  N   UNL     1       6.142  15.202  19.161  0.00  0.00    +0.000 N 
ATOM     27  C   UNL     1       6.816  14.697  20.347  0.00  0.00    +0.000 C 
ATOM     28  C   UNL     1       6.998  15.330  17.985  0.00  0.00    +0.000 C 
ENDBRANCH  12  24
TORSDOF 3
ENDMDL
MODEL 9
REMARK VINA RESULT:      -6.3      2.456      4.059
REMARK  Name = 
REMARK  8 active torsions:
REMARK  status: ('A' for Active; 'I' for Inactive)
REMARK    1  A    between atoms: C_1  and  C_2
REMARK    2  A    between atoms: C_2  and  C_3
REMARK    3  A    between atoms: C_2  and  C_4
REMARK    4  A    between atoms: C_7  and  C_8
REMARK    5  A    between atoms: N_17  and  C_18
REMARK    6  A    between atoms: C_19  and  C_20
REMARK    7  A    between atoms: N_22  and  C_23
REMARK    8  A    between atoms: N_22  and  C_24
REMARK                            x       y       z     vdW  Elec       q    Type
REMARK                         _______ _______ _______ _____ _____    ______ ____
ROOT
ATOM      1  C   UNL     1       1.539   7.563  20.225  0.00  0.00    +0.000 C 
ATOM      2  O   UNL     1       1.203   6.842  21.166  0.00  0.00    +0.000 OA
ATOM      3  N   UNL     1       1.058   8.866  20.070  0.00  0.00    +0.000 N 
ATOM      4  C   UNL     1       0.341   9.494  21.174  0.00  0.00    +0.000 C 
ATOM      5  C   UNL     1       0.903  10.899  21.420  0.00  0.00    +0.000 C 
ATOM      6  C   UNL     1       0.879  11.816  20.143  0.00  0.00    +0.000 C 
ATOM      7  C   UNL     1      -0.573  12.163  19.729  0.00  0.00    +0.000 C 
ATOM      8  C   UNL     1      -1.299  12.960  20.804  0.00  0.00    +0.000 C 
ATOM      9  C   UNL     1      -0.503  14.184  21.246  0.00  0.00    +0.000 C 
ATOM     10  N   UNL     1       0.900  13.876  21.557  0.00  0.00    +0.000 NA
ATOM     11  C   UNL     1       1.589  15.070  22.040  0.00  0.00    +0.000 C 
ATOM     12  C   UNL     1       1.637  13.167  20.455  0.00  0.00    +0.000 C 
ATOM     13  C   UNL     1       1.552  11.015  19.001  0.00  0.00    +0.000 C 
ATOM     14  C   UNL     1       0.982   9.607  18.814  0.00  0.00    +0.000 C 
ENDROOT
BRANCH   1  18
ATOM     15  C   UNL     1       4.681   6.123  17.630  0.00  0.00    +0.000 A 
ATOM     16  C   UNL     1       4.321   5.416  18.792  0.00  0.00    +0.000 A 
ATOM     17  C   UNL     1       3.269   5.854  19.609  0.00  0.00    +0.000 A 
ATOM     18  C   UNL     1       2.561   7.023  19.282  0.00  0.00    +0.000 A 
ATOM     19  C   UNL     1       2.942   7.738  18.137  0.00  0.00    +0.000 A 
ATOM     20  C   UNL     1       3.948   7.269  17.300  0.00  0.00    +0.000 A 
BRANCH  15  22
ATOM     21  C   UNL     1       5.540   5.746  15.283  0.00  0.00    +0.000 C 
ATOM     22  C   UNL     1       5.867   5.702  16.779  0.00  0.00    +0.000 C 
ATOM     23  C   UNL     1       7.096   6.576  17.066  0.00  0.00    +0.000 C 
ENDBRANCH  15  22
ENDBRANCH   1  18
BRANCH  12  24
ATOM     24  C   UNL     1       1.860  14.089  19.186  0.00  0.00    +0.000 C 
ATOM     25  O   UNL     1       0.945  14.269  18.373  0.00  0.00    +0.000 OA
ATOM     26  N   UNL     1       3.098  14.691  18.943  0.00  0.00    +0.000 N 
ATOM     27  C   UNL     1       4.314  14.560  19.730  0.00  0.00    +0.000 C 
ATOM     28  C   UNL     1       3.272  15.380  17.668  0.00  0.00    +0.000 C 
ENDBRANCH  12  24
TORSDOF 3
ENDMDL
