MODEL 1
REMARK VINA RESULT:      -7.7      0.000      0.000
REMARK  Name = 
REMARK  1 active torsions:
REMARK  status: ('A' for Active; 'I' for Inactive)
REMARK    1  A    between atoms: C_1  and  C_2
REMARK                            x       y       z     vdW  Elec       q    Type
REMARK                         _______ _______ _______ _____ _____    ______ ____
ROOT
ATOM      1  C   UNL     1      -1.158  12.410  22.634  0.00  0.00    +0.000 C 
ATOM      2  C   UNL     1      -0.560  11.097  22.231  0.00  0.00    +0.000 A 
ATOM      3  C   UNL     1      -0.700   9.988  23.077  0.00  0.00    +0.000 A 
ATOM      4  C   UNL     1      -0.130   8.761  22.761  0.00  0.00    +0.000 A 
ATOM      5  C   UNL     1       0.575   8.676  21.559  0.00  0.00    +0.000 A 
ATOM      6  N   UNL     1       1.214   7.599  21.019  0.00  0.00    +0.000 N 
ATOM      7  C   UNL     1       1.747   7.899  19.794  0.00  0.00    +0.000 A 
ATOM      8  C   UNL     1       2.384   7.087  18.862  0.00  0.00    +0.000 A 
ATOM      9  N   UNL     1       2.535   5.726  19.076  0.00  0.00    +0.000 N 
ATOM     10  C   UNL     1       2.494   4.836  17.923  0.00  0.00    +0.000 C 
ATOM     11  C   UNL     1       1.188   4.034  17.971  0.00  0.00    +0.000 C 
ATOM     12  C   UNL     1       1.027   3.066  19.151  0.00  0.00    +0.000 C 
ATOM     13  C   UNL     1       1.398   3.593  20.542  0.00  0.00    +0.000 C 
ATOM     14  C   UNL     1       2.894   3.890  20.689  0.00  0.00    +0.000 C 
ATOM     15  C   UNL     1       3.308   5.293  20.234  0.00  0.00    +0.000 C 
ATOM     16  N   UNL     1       2.731   7.687  17.703  0.00  0.00    +0.000 NA
ATOM     17  C   UNL     1       2.481   9.006  17.552  0.00  0.00    +0.000 A 
ATOM     18  N   UNL     1       1.870   9.846  18.408  0.00  0.00    +0.000 NA
ATOM     19  C   UNL     1       1.478   9.236  19.554  0.00  0.00    +0.000 A 
ATOM     20  C   UNL     1       0.733   9.738  20.670  0.00  0.00    +0.000 A 
ATOM     21  C   UNL     1       0.150  10.976  21.017  0.00  0.00    +0.000 A 
ATOM     22  H   UNL     1       1.255   6.687  21.444  0.00  0.00    +0.000 HD
ENDROOT
TORSDOF 0
ENDMDL
MODEL 2
REMARK VINA RESULT:      -7.3      2.374      4.245
REMARK  Name = 
REMARK  1 active torsions:
REMARK  status: ('A' for Active; 'I' for Inactive)
REMARK    1  A    between atoms: C_1  and  C_2
REMARK                            x       y       z     vdW  Elec       q    Type
REMARK                         _______ _______ _______ _____ _____    ______ ____
ROOT
ATOM      1  C   UNL     1      -0.874  11.356  20.208  0.00  0.00    +0.000 C 
ATOM      2  C   UNL     1       0.189  10.449  19.669  0.00  0.00    +0.000 A 
ATOM      3  C   UNL     1       0.995  10.887  18.608  0.00  0.00    +0.000 A 
ATOM      4  C   UNL     1       1.967  10.066  18.051  0.00  0.00    +0.000 A 
ATOM      5  C   UNL     1       2.118   8.792  18.604  0.00  0.00    +0.000 A 
ATOM      6  N   UNL     1       2.994   7.808  18.250  0.00  0.00    +0.000 N 
ATOM      7  C   UNL     1       2.870   6.716  19.067  0.00  0.00    +0.000 A 
ATOM      8  C   UNL     1       3.619   5.545  19.131  0.00  0.00    +0.000 A 
ATOM      9  N   UNL     1       4.716   5.347  18.309  0.00  0.00    +0.000 N 
ATOM     10  C   UNL     1       5.842   4.581  18.830  0.00  0.00    +0.000 C 
ATOM     11  C   UNL     1       7.016   5.537  19.067  0.00  0.00    +0.000 C 
ATOM     12  C   UNL     1       7.611   6.206  17.820  0.00  0.00    +0.000 C 
ATOM     13  C   UNL     1       6.625   6.791  16.804  0.00  0.00    +0.000 C 
ATOM     14  C   UNL     1       5.777   5.720  16.109  0.00  0.00    +0.000 C 
ATOM     15  C   UNL     1       4.503   5.333  16.866  0.00  0.00    +0.000 C 
ATOM     16  N   UNL     1       3.277   4.685  20.114  0.00  0.00    +0.000 NA
ATOM     17  C   UNL     1       2.236   4.993  20.917  0.00  0.00    +0.000 A 
ATOM     18  N   UNL     1       1.475   6.103  20.912  0.00  0.00    +0.000 NA
ATOM     19  C   UNL     1       1.844   6.990  19.955  0.00  0.00    +0.000 A 
ATOM     20  C   UNL     1       1.360   8.307  19.668  0.00  0.00    +0.000 A 
ATOM     21  C   UNL     1       0.373   9.159  20.211  0.00  0.00    +0.000 A 
ATOM     22  H   UNL     1       3.673   7.885  17.512  0.00  0.00    +0.000 HD
ENDROOT
TORSDOF 0
ENDMDL
MODEL 3
REMARK VINA RESULT:      -7.2      3.469      6.880
REMARK  Name = 
REMARK  1 active torsions:
REMARK  status: ('A' for Active; 'I' for Inactive)
REMARK    1  A    between atoms: C_1  and  C_2
REMARK                            x       y       z     vdW  Elec       q    Type
REMARK                         _______ _______ _______ _____ _____    ______ ____
ROOT
ATOM      1  C   UNL     1       7.872   5.497  13.533  0.00  0.00    +0.000 C 
ATOM      2  C   UNL     1       6.805   5.087  14.501  0.00  0.00    +0.000 A 
ATOM      3  C   UNL     1       6.534   3.725  14.693  0.00  0.00    +0.000 A 
ATOM      4  C   UNL     1       5.528   3.301  15.552  0.00  0.00    +0.000 A 
ATOM      5  C   UNL     1       4.809   4.290  16.228  0.00  0.00    +0.000 A 
ATOM      6  N   UNL     1       3.789   4.141  17.122  0.00  0.00    +0.000 N 
ATOM      7  C   UNL     1       3.376   5.352  17.609  0.00  0.00    +0.000 A 
ATOM      8  C   UNL     1       2.448   5.659  18.600  0.00  0.00    +0.000 A 
ATOM      9  N   UNL     1       1.793   4.663  19.306  0.00  0.00    +0.000 N 
ATOM     10  C   UNL     1       1.456   4.913  20.702  0.00  0.00    +0.000 C 
ATOM     11  C   UNL     1       2.355   4.042  21.586  0.00  0.00    +0.000 C 
ATOM     12  C   UNL     1       2.167   2.524  21.461  0.00  0.00    +0.000 C 
ATOM     13  C   UNL     1       2.069   1.947  20.044  0.00  0.00    +0.000 C 
ATOM     14  C   UNL     1       0.806   2.398  19.302  0.00  0.00    +0.000 C 
ATOM     15  C   UNL     1       0.949   3.733  18.565  0.00  0.00    +0.000 C 
ATOM     16  N   UNL     1       2.323   6.970  18.898  0.00  0.00    +0.000 NA
ATOM     17  C   UNL     1       3.055   7.868  18.205  0.00  0.00    +0.000 A 
ATOM     18  N   UNL     1       3.967   7.641  17.242  0.00  0.00    +0.000 NA
ATOM     19  C   UNL     1       4.129   6.323  16.971  0.00  0.00    +0.000 A 
ATOM     20  C   UNL     1       5.043   5.657  16.091  0.00  0.00    +0.000 A 
ATOM     21  C   UNL     1       6.066   6.061  15.207  0.00  0.00    +0.000 A 
ATOM     22  H   UNL     1       3.414   3.256  17.419  0.00  0.00    +0.000 HD
ENDROOT
TORSDOF 0
ENDMDL
MODEL 4
REMARK VINA RESULT:      -7.2      1.143      1.383
REMARK  Name = 
REMARK  1 active torsions:
REMARK  status: ('A' for Active; 'I' for Inactive)
REMARK    1  A    between atoms: C_1  and  C_2
REMARK                            x       y       z     vdW  Elec       q    Type
REMARK                         _______ _______ _______ _____ _____    ______ ____
ROOT
ATOM      1  C   UNL     1      -0.438  12.171  20.838  0.00  0.00    +0.000 C 
ATOM      2  C   UNL     1       0.026  10.747  20.819  0.00  0.00    +0.000 A 
ATOM      3  C   UNL     1      -0.411   9.867  21.819  0.00  0.00    +0.000 A 
ATOM      4  C   UNL     1       0.024   8.548  21.862  0.00  0.00    +0.000 A 
ATOM      5  C   UNL     1       0.902   8.133  20.857  0.00  0.00    +0.000 A 
ATOM      6  N   UNL     1       1.462   6.904  20.669  0.00  0.00    +0.000 N 
ATOM      7  C   UNL     1       2.231   6.877  19.536  0.00  0.00    +0.000 A 
ATOM      8  C   UNL     1       2.894   5.821  18.918  0.00  0.00    +0.000 A 
ATOM      9  N   UNL     1       2.812   4.530  19.416  0.00  0.00    +0.000 N 
ATOM     10  C   UNL     1       2.839   3.422  18.469  0.00  0.00    +0.000 C 
ATOM     11  C   UNL     1       1.443   2.790  18.417  0.00  0.00    +0.000 C 
ATOM     12  C   UNL     1       0.950   2.121  19.707  0.00  0.00    +0.000 C 
ATOM     13  C   UNL     1       1.153   2.892  21.015  0.00  0.00    +0.000 C 
ATOM     14  C   UNL     1       2.630   3.056  21.390  0.00  0.00    +0.000 C 
ATOM     15  C   UNL     1       3.309   4.278  20.763  0.00  0.00    +0.000 C 
ATOM     16  N   UNL     1       3.512   6.119  17.756  0.00  0.00    +0.000 NA
ATOM     17  C   UNL     1       3.481   7.393  17.309  0.00  0.00    +0.000 A 
ATOM     18  N   UNL     1       2.861   8.456  17.852  0.00  0.00    +0.000 NA
ATOM     19  C   UNL     1       2.199   8.151  18.996  0.00  0.00    +0.000 A 
ATOM     20  C   UNL     1       1.356   8.957  19.829  0.00  0.00    +0.000 A 
ATOM     21  C   UNL     1       0.905  10.295  19.812  0.00  0.00    +0.000 A 
ATOM     22  H   UNL     1       1.302   6.106  21.261  0.00  0.00    +0.000 HD
ENDROOT
TORSDOF 0
ENDMDL
MODEL 5
REMARK VINA RESULT:      -7.0      2.046      2.932
REMARK  Name = 
REMARK  1 active torsions:
REMARK  status: ('A' for Active; 'I' for Inactive)
REMARK    1  A    between atoms: C_1  and  C_2
REMARK                            x       y       z     vdW  Elec       q    Type
REMARK                         _______ _______ _______ _____ _____    ______ ____
ROOT
ATOM      1  C   UNL     1       1.196  12.036  18.350  0.00  0.00    +0.000 C 
ATOM      2  C   UNL     1       1.426  10.593  18.681  0.00  0.00    +0.000 A 
ATOM      3  C   UNL     1       0.716  10.007  19.738  0.00  0.00    +0.000 A 
ATOM      4  C   UNL     1       0.926   8.683  20.104  0.00  0.00    +0.000 A 
ATOM      5  C   UNL     1       1.863   7.958  19.364  0.00  0.00    +0.000 A 
ATOM      6  N   UNL     1       2.243   6.656  19.511  0.00  0.00    +0.000 N 
ATOM      7  C   UNL     1       3.153   6.293  18.555  0.00  0.00    +0.000 A 
ATOM      8  C   UNL     1       3.722   5.056  18.272  0.00  0.00    +0.000 A 
ATOM      9  N   UNL     1       3.366   3.920  18.982  0.00  0.00    +0.000 N 
ATOM     10  C   UNL     1       3.353   2.642  18.281  0.00  0.00    +0.000 C 
ATOM     11  C   UNL     1       1.897   2.194  18.108  0.00  0.00    +0.000 C 
ATOM     12  C   UNL     1       1.124   1.881  19.396  0.00  0.00    +0.000 C 
ATOM     13  C   UNL     1       1.256   2.880  20.550  0.00  0.00    +0.000 C 
ATOM     14  C   UNL     1       2.670   2.933  21.137  0.00  0.00    +0.000 C 
ATOM     15  C   UNL     1       3.617   3.898  20.418  0.00  0.00    +0.000 C 
ATOM     16  N   UNL     1       4.541   5.020  17.199  0.00  0.00    +0.000 NA
ATOM     17  C   UNL     1       4.777   6.164  16.521  0.00  0.00    +0.000 A 
ATOM     18  N   UNL     1       4.260   7.387  16.738  0.00  0.00    +0.000 NA
ATOM     19  C   UNL     1       3.401   7.418  17.786  0.00  0.00    +0.000 A 
ATOM     20  C   UNL     1       2.586   8.481  18.293  0.00  0.00    +0.000 A 
ATOM     21  C   UNL     1       2.359   9.830  17.946  0.00  0.00    +0.000 A 
ATOM     22  H   UNL     1       1.875   6.029  20.206  0.00  0.00    +0.000 HD
ENDROOT
TORSDOF 0
ENDMDL
MODEL 6
REMARK VINA RESULT:      -7.0      2.385      4.300
REMARK  Name = 
REMARK  1 active torsions:
REMARK  status: ('A' for Active; 'I' for Inactive)
REMARK    1  A    between atoms: C_1  and  C_2
REMARK                            x       y       z     vdW  Elec       q    Type
REMARK                         _______ _______ _______ _____ _____    ______ ____
ROOT
ATOM      1  C   UNL     1      -0.827   9.723  22.360  0.00  0.00    +0.000 C 
ATOM      2  C   UNL     1       0.173   9.097  21.438  0.00  0.00    +0.000 A 
ATOM      3  C   UNL     1       0.753   9.871  20.423  0.00  0.00    +0.000 A 
ATOM      4  C   UNL     1       1.657   9.322  19.521  0.00  0.00    +0.000 A 
ATOM      5  C   UNL     1       1.974   7.971  19.679  0.00  0.00    +0.000 A 
ATOM      6  N   UNL     1       2.828   7.204  18.943  0.00  0.00    +0.000 N 
ATOM      7  C   UNL     1       2.912   5.933  19.444  0.00  0.00    +0.000 A 
ATOM      8  C   UNL     1       3.725   4.866  19.073  0.00  0.00    +0.000 A 
ATOM      9  N   UNL     1       4.669   4.997  18.067  0.00  0.00    +0.000 N 
ATOM     10  C   UNL     1       5.910   4.241  18.182  0.00  0.00    +0.000 C 
ATOM     11  C   UNL     1       7.052   5.218  18.483  0.00  0.00    +0.000 C 
ATOM     12  C   UNL     1       7.380   6.240  17.386  0.00  0.00    +0.000 C 
ATOM     13  C   UNL     1       6.198   6.964  16.730  0.00  0.00    +0.000 C 
ATOM     14  C   UNL     1       5.303   6.027  15.912  0.00  0.00    +0.000 C 
ATOM     15  C   UNL     1       4.206   5.332  16.726  0.00  0.00    +0.000 C 
ATOM     16  N   UNL     1       3.611   3.753  19.828  0.00  0.00    +0.000 NA
ATOM     17  C   UNL     1       2.712   3.739  20.836  0.00  0.00    +0.000 A 
ATOM     18  N   UNL     1       1.900   4.730  21.248  0.00  0.00    +0.000 NA
ATOM     19  C   UNL     1       2.044   5.865  20.521  0.00  0.00    +0.000 A 
ATOM     20  C   UNL     1       1.444   7.156  20.678  0.00  0.00    +0.000 A 
ATOM     21  C   UNL     1       0.523   7.737  21.577  0.00  0.00    +0.000 A 
ATOM     22  H   UNL     1       3.361   7.536  18.156  0.00  0.00    +0.000 HD
ENDROOT
TORSDOF 0
ENDMDL
MODEL 7
REMARK VINA RESULT:      -6.7      4.849      8.314
REMARK  Name = 
REMARK  1 active torsions:
REMARK  status: ('A' for Active; 'I' for Inactive)
REMARK    1  A    between atoms: C_1  and  C_2
REMARK                            x       y       z     vdW  Elec       q    Type
REMARK                         _______ _______ _______ _____ _____    ______ ____
ROOT
ATOM      1  C   UNL     1       7.862   4.259  11.057  0.00  0.00    +0.000 C 
ATOM      2  C   UNL     1       6.958   4.221  12.251  0.00  0.00    +0.000 A 
ATOM      3  C   UNL     1       5.729   3.551  12.163  0.00  0.00    +0.000 A 
ATOM      4  C   UNL     1       4.843   3.523  13.233  0.00  0.00    +0.000 A 
ATOM      5  C   UNL     1       5.235   4.177  14.403  0.00  0.00    +0.000 A 
ATOM      6  N   UNL     1       4.561   4.289  15.583  0.00  0.00    +0.000 N 
ATOM      7  C   UNL     1       5.301   4.965  16.516  0.00  0.00    +0.000 A 
ATOM      8  C   UNL     1       5.050   5.216  17.861  0.00  0.00    +0.000 A 
ATOM      9  N   UNL     1       3.914   4.726  18.484  0.00  0.00    +0.000 N 
ATOM     10  C   UNL     1       4.004   4.349  19.890  0.00  0.00    +0.000 C 
ATOM     11  C   UNL     1       3.925   2.822  19.992  0.00  0.00    +0.000 C 
ATOM     12  C   UNL     1       2.601   2.179  19.555  0.00  0.00    +0.000 C 
ATOM     13  C   UNL     1       1.985   2.672  18.241  0.00  0.00    +0.000 C 
ATOM     14  C   UNL     1       1.522   4.132  18.309  0.00  0.00    +0.000 C 
ATOM     15  C   UNL     1       2.613   5.157  17.986  0.00  0.00    +0.000 C 
ATOM     16  N   UNL     1       6.032   5.858  18.530  0.00  0.00    +0.000 NA
ATOM     17  C   UNL     1       7.139   6.237  17.855  0.00  0.00    +0.000 A 
ATOM     18  N   UNL     1       7.446   6.026  16.563  0.00  0.00    +0.000 NA
ATOM     19  C   UNL     1       6.482   5.341  15.899  0.00  0.00    +0.000 A 
ATOM     20  C   UNL     1       6.449   4.844  14.555  0.00  0.00    +0.000 A 
ATOM     21  C   UNL     1       7.329   4.864  13.451  0.00  0.00    +0.000 A 
ATOM     22  H   UNL     1       3.653   3.892  15.763  0.00  0.00    +0.000 HD
ENDROOT
TORSDOF 0
ENDMDL
MODEL 8
REMARK VINA RESULT:      -6.5      5.666      8.848
REMARK  Name = 
REMARK  1 active torsions:
REMARK  status: ('A' for Active; 'I' for Inactive)
REMARK    1  A    between atoms: C_1  and  C_2
REMARK                            x       y       z     vdW  Elec       q    Type
REMARK                         _______ _______ _______ _____ _____    ______ ____
ROOT
ATOM      1  C   UNL     1      -2.864   9.971  14.904  0.00  0.00    +0.000 C 
ATOM      2  C   UNL     1      -3.193  10.667  16.189  0.00  0.00    +0.000 A 
ATOM      3  C   UNL     1      -4.504  11.105  16.420  0.00  0.00    +0.000 A 
ATOM      4  C   UNL     1      -4.845  11.788  17.581  0.00  0.00    +0.000 A 
ATOM      5  C   UNL     1      -3.829  12.005  18.514  0.00  0.00    +0.000 A 
ATOM      6  N   UNL     1      -3.902  12.634  19.723  0.00  0.00    +0.000 N 
ATOM      7  C   UNL     1      -2.699  12.598  20.374  0.00  0.00    +0.000 A 
ATOM      8  C   UNL     1      -2.350  13.021  21.653  0.00  0.00    +0.000 A 
ATOM      9  N   UNL     1      -3.294  13.550  22.519  0.00  0.00    +0.000 N 
ATOM     10  C   UNL     1      -3.142  13.298  23.946  0.00  0.00    +0.000 C 
ATOM     11  C   UNL     1      -4.238  12.323  24.390  0.00  0.00    +0.000 C 
ATOM     12  C   UNL     1      -5.682  12.832  24.290  0.00  0.00    +0.000 C 
ATOM     13  C   UNL     1      -6.081  13.552  22.997  0.00  0.00    +0.000 C 
ATOM     14  C   UNL     1      -5.352  14.887  22.807  0.00  0.00    +0.000 C 
ATOM     15  C   UNL     1      -3.988  14.769  22.121  0.00  0.00    +0.000 C 
ATOM     16  N   UNL     1      -1.076  12.773  22.024  0.00  0.00    +0.000 NA
ATOM     17  C   UNL     1      -0.242  12.187  21.138  0.00  0.00    +0.000 A 
ATOM     18  N   UNL     1      -0.512  11.754  19.894  0.00  0.00    +0.000 NA
ATOM     19  C   UNL     1      -1.803  11.959  19.534  0.00  0.00    +0.000 A 
ATOM     20  C   UNL     1      -2.513  11.578  18.349  0.00  0.00    +0.000 A 
ATOM     21  C   UNL     1      -2.191  10.893  17.158  0.00  0.00    +0.000 A 
ATOM     22  H   UNL     1      -4.740  13.037  20.107  0.00  0.00    +0.000 HD
ENDROOT
TORSDOF 0
ENDMDL
MODEL 9
REMARK VINA RESULT:      -6.3      4.664      8.045
REMARK  Name = 
REMARK  1 active torsions:
REMARK  status: ('A' for Active; 'I' for Inactive)
REMARK    1  A    between atoms: C_1  and  C_2
REMARK                            x       y       z     vdW  Elec       q    Type
REMARK                         _______ _______ _______ _____ _____    ______ ____
ROOT
ATOM      1  C   UNL     1      -3.449   9.661  14.072  0.00  0.00    +0.000 C 
ATOM      2  C   UNL     1      -3.387  10.353  15.399  0.00  0.00    +0.000 A 
ATOM      3  C   UNL     1      -4.503  11.067  15.857  0.00  0.00    +0.000 A 
ATOM      4  C   UNL     1      -4.477  11.755  17.064  0.00  0.00    +0.000 A 
ATOM      5  C   UNL     1      -3.296  11.691  17.808  0.00  0.00    +0.000 A 
ATOM      6  N   UNL     1      -3.017  12.263  19.015  0.00  0.00    +0.000 N 
ATOM      7  C   UNL     1      -1.763  11.924  19.447  0.00  0.00    +0.000 A 
ATOM      8  C   UNL     1      -1.116  12.196  20.648  0.00  0.00    +0.000 A 
ATOM      9  N   UNL     1      -1.753  12.885  21.668  0.00  0.00    +0.000 N 
ATOM     10  C   UNL     1      -1.426  12.539  23.046  0.00  0.00    +0.000 C 
ATOM     11  C   UNL     1      -2.628  11.819  23.668  0.00  0.00    +0.000 C 
ATOM     12  C   UNL     1      -3.910  12.648  23.824  0.00  0.00    +0.000 C 
ATOM     13  C   UNL     1      -4.342  13.499  22.624  0.00  0.00    +0.000 C 
ATOM     14  C   UNL     1      -3.365  14.640  22.319  0.00  0.00    +0.000 C 
ATOM     15  C   UNL     1      -2.201  14.247  21.405  0.00  0.00    +0.000 C 
ATOM     16  N   UNL     1       0.109  11.647  20.791  0.00  0.00    +0.000 NA
ATOM     17  C   UNL     1       0.624  10.929  19.769  0.00  0.00    +0.000 A 
ATOM     18  N   UNL     1       0.055  10.627  18.588  0.00  0.00    +0.000 NA
ATOM     19  C   UNL     1      -1.194  11.138  18.459  0.00  0.00    +0.000 A 
ATOM     20  C   UNL     1      -2.162  10.984  17.414  0.00  0.00    +0.000 A 
ATOM     21  C   UNL     1      -2.212  10.299  16.180  0.00  0.00    +0.000 A 
ATOM     22  H   UNL     1      -3.662  12.828  19.542  0.00  0.00    +0.000 HD
ENDROOT
TORSDOF 0
ENDMDL
