MODEL 1
REMARK VINA RESULT:      -8.0      0.000      0.000
REMARK  Name = 
REMARK  9 active torsions:
REMARK  status: ('A' for Active; 'I' for Inactive)
REMARK    1  A    between atoms: C_1  and  C_2
REMARK    2  A    between atoms: C_2  and  O_3
REMARK    3  A    between atoms: O_3  and  C_4
REMARK    4  A    between atoms: C_4  and  C_5
REMARK    5  A    between atoms: C_4  and  C_24
REMARK    6  A    between atoms: C_5  and  C_6
REMARK    7  A    between atoms: C_10  and  C_11
REMARK    8  A    between atoms: C_14  and  C_15
REMARK    9  A    between atoms: C_24  and  O_26
REMARK                            x       y       z     vdW  Elec       q    Type
REMARK                         _______ _______ _______ _____ _____    ______ ____
ROOT
ATOM      1  C   UNL     1       4.382   4.564  18.492  0.00  0.00    +0.000 A 
ATOM      2  C   UNL     1       3.446   3.582  18.155  0.00  0.00    +0.000 A 
ATOM      3  C   UNL     1       2.130   3.939  17.853  0.00  0.00    +0.000 A 
ATOM      4  C   UNL     1       1.743   5.280  17.876  0.00  0.00    +0.000 A 
ATOM      5  C   UNL     1       2.662   6.265  18.243  0.00  0.00    +0.000 A 
ATOM      6  C   UNL     1       3.968   5.900  18.578  0.00  0.00    +0.000 A 
ENDROOT
BRANCH   5   7
ATOM      7  C   UNL     1       2.305   7.702  18.222  0.00  0.00    +0.000 C 
ATOM      8  N   UNL     1       2.609   8.492  17.240  0.00  0.00    +0.000 NA
ATOM      9  O   UNL     1       2.089   9.769  17.533  0.00  0.00    +0.000 OA
ATOM     10  C   UNL     1       1.466   9.748  18.831  0.00  0.00    +0.000 C 
ATOM     11  C   UNL     1       1.540   8.323  19.331  0.00  0.00    +0.000 C 
BRANCH  10  12
ATOM     12  C   UNL     1       0.045  10.272  18.760  0.00  0.00    +0.000 A 
ATOM     13  C   UNL     1      -0.838   9.861  17.749  0.00  0.00    +0.000 A 
ATOM     14  C   UNL     1      -2.134  10.378  17.682  0.00  0.00    +0.000 A 
ATOM     15  C   UNL     1      -2.561  11.300  18.634  0.00  0.00    +0.000 A 
ATOM     16 CL   UNL     1      -4.144  11.965  18.532  0.00  0.00    +0.000 Cl
ATOM     17  C   UNL     1      -1.711  11.692  19.666  0.00  0.00    +0.000 A 
ATOM     18  C   UNL     1      -0.414  11.177  19.732  0.00  0.00    +0.000 A 
ENDBRANCH  10  12
ENDBRANCH   5   7
BRANCH   1  19
ATOM     19  C   UNL     1       5.847   4.197  18.628  0.00  0.00    +0.000 C 
BRANCH  19  20
ATOM     20  C   UNL     1       6.781   5.297  18.086  0.00  0.00    +0.000 C 
BRANCH  20  21
ATOM     21  C   UNL     1       7.655   5.845  19.224  0.00  0.00    +0.000 C 
ATOM     22  O   UNL     1       7.750   5.340  20.334  0.00  0.00    +0.000 OA
BRANCH  21  23
ATOM     23  O   UNL     1       8.336   6.960  18.860  0.00  0.00    +0.000 OA
ATOM     24  H   UNL     1       8.546   7.460  19.684  0.00  0.00    +0.000 HD
ENDBRANCH  21  23
ENDBRANCH  20  21
BRANCH  20  25
ATOM     25  O   UNL     1       7.657   4.848  17.028  0.00  0.00    +0.000 OA
BRANCH  25  27
ATOM     26  C   UNL     1       6.011   5.521  15.424  0.00  0.00    +0.000 C 
ATOM     27  C   UNL     1       6.959   4.420  15.857  0.00  0.00    +0.000 C 
ENDBRANCH  25  27
ENDBRANCH  20  25
ENDBRANCH  19  20
ENDBRANCH   1  19
TORSDOF 8
ENDMDL
MODEL 2
REMARK VINA RESULT:      -8.0      1.196      1.689
REMARK  Name = 
REMARK  9 active torsions:
REMARK  status: ('A' for Active; 'I' for Inactive)
REMARK    1  A    between atoms: C_1  and  C_2
REMARK    2  A    between atoms: C_2  and  O_3
REMARK    3  A    between atoms: O_3  and  C_4
REMARK    4  A    between atoms: C_4  and  C_5
REMARK    5  A    between atoms: C_4  and  C_24
REMARK    6  A    between atoms: C_5  and  C_6
REMARK    7  A    between atoms: C_10  and  C_11
REMARK    8  A    between atoms: C_14  and  C_15
REMARK    9  A    between atoms: C_24  and  O_26
REMARK                            x       y       z     vdW  Elec       q    Type
REMARK                         _______ _______ _______ _____ _____    ______ ____
ROOT
ATOM      1  C   UNL     1       3.994   4.657  19.346  0.00  0.00    +0.000 A 
ATOM      2  C   UNL     1       3.193   4.000  20.285  0.00  0.00    +0.000 A 
ATOM      3  C   UNL     1       2.050   4.621  20.792  0.00  0.00    +0.000 A 
ATOM      4  C   UNL     1       1.694   5.898  20.359  0.00  0.00    +0.000 A 
ATOM      5  C   UNL     1       2.505   6.577  19.447  0.00  0.00    +0.000 A 
ATOM      6  C   UNL     1       3.666   5.966  18.968  0.00  0.00    +0.000 A 
ENDROOT
BRANCH   5   7
ATOM      7  C   UNL     1       2.129   7.908  18.919  0.00  0.00    +0.000 C 
ATOM      8  N   UNL     1       2.423   8.303  17.720  0.00  0.00    +0.000 NA
ATOM      9  O   UNL     1       1.886   9.594  17.544  0.00  0.00    +0.000 OA
ATOM     10  C   UNL     1       1.261  10.026  18.766  0.00  0.00    +0.000 C 
ATOM     11  C   UNL     1       1.353   8.872  19.738  0.00  0.00    +0.000 C 
BRANCH  10  12
ATOM     12  C   UNL     1      -0.167  10.472  18.519  0.00  0.00    +0.000 A 
ATOM     13  C   UNL     1      -0.715  11.581  19.184  0.00  0.00    +0.000 A 
ATOM     14  C   UNL     1      -2.042  11.957  18.966  0.00  0.00    +0.000 A 
ATOM     15  C   UNL     1      -2.829  11.235  18.072  0.00  0.00    +0.000 A 
ATOM     16 CL   UNL     1      -4.474  11.674  17.830  0.00  0.00    +0.000 Cl
ATOM     17  C   UNL     1      -2.292  10.154  17.376  0.00  0.00    +0.000 A 
ATOM     18  C   UNL     1      -0.965   9.776  17.595  0.00  0.00    +0.000 A 
ENDBRANCH  10  12
ENDBRANCH   5   7
BRANCH   1  19
ATOM     19  C   UNL     1       5.118   3.910  18.655  0.00  0.00    +0.000 C 
BRANCH  19  20
ATOM     20  C   UNL     1       5.886   4.797  17.655  0.00  0.00    +0.000 C 
BRANCH  20  21
ATOM     21  C   UNL     1       7.336   4.978  18.126  0.00  0.00    +0.000 C 
ATOM     22  O   UNL     1       7.722   5.873  18.865  0.00  0.00    +0.000 OA
BRANCH  21  23
ATOM     23  O   UNL     1       8.159   4.016  17.639  0.00  0.00    +0.000 OA
ATOM     24  H   UNL     1       8.228   3.310  18.325  0.00  0.00    +0.000 HD
ENDBRANCH  21  23
ENDBRANCH  20  21
BRANCH  20  25
ATOM     25  O   UNL     1       5.916   4.267  16.311  0.00  0.00    +0.000 OA
BRANCH  25  27
ATOM     26  C   UNL     1       5.127   6.464  15.776  0.00  0.00    +0.000 C 
ATOM     27  C   UNL     1       5.944   5.278  15.301  0.00  0.00    +0.000 C 
ENDBRANCH  25  27
ENDBRANCH  20  25
ENDBRANCH  19  20
ENDBRANCH   1  19
TORSDOF 8
ENDMDL
MODEL 3
REMARK VINA RESULT:      -7.9      1.445      2.766
REMARK  Name = 
REMARK  9 active torsions:
REMARK  status: ('A' for Active; 'I' for Inactive)
REMARK    1  A    between atoms: C_1  and  C_2
REMARK    2  A    between atoms: C_2  and  O_3
REMARK    3  A    between atoms: O_3  and  C_4
REMARK    4  A    between atoms: C_4  and  C_5
REMARK    5  A    between atoms: C_4  and  C_24
REMARK    6  A    between atoms: C_5  and  C_6
REMARK    7  A    between atoms: C_10  and  C_11
REMARK    8  A    between atoms: C_14  and  C_15
REMARK    9  A    between atoms: C_24  and  O_26
REMARK                            x       y       z     vdW  Elec       q    Type
REMARK                         _______ _______ _______ _____ _____    ______ ____
ROOT
ATOM      1  C   UNL     1       4.342   6.378  16.994  0.00  0.00    +0.000 A 
ATOM      2  C   UNL     1       4.034   5.261  17.775  0.00  0.00    +0.000 A 
ATOM      3  C   UNL     1       3.065   5.349  18.777  0.00  0.00    +0.000 A 
ATOM      4  C   UNL     1       2.392   6.550  19.000  0.00  0.00    +0.000 A 
ATOM      5  C   UNL     1       2.716   7.682  18.247  0.00  0.00    +0.000 A 
ATOM      6  C   UNL     1       3.709   7.598  17.269  0.00  0.00    +0.000 A 
ENDROOT
BRANCH   5   7
ATOM      7  C   UNL     1       1.982   8.957  18.413  0.00  0.00    +0.000 C 
ATOM      8  N   UNL     1       2.301  10.044  17.783  0.00  0.00    +0.000 NA
ATOM      9  O   UNL     1       1.379  11.045  18.149  0.00  0.00    +0.000 OA
ATOM     10  C   UNL     1       0.460  10.519  19.124  0.00  0.00    +0.000 C 
ATOM     11  C   UNL     1       0.800   9.057  19.304  0.00  0.00    +0.000 C 
BRANCH  10  12
ATOM     12  C   UNL     1      -0.977  10.738  18.692  0.00  0.00    +0.000 A 
ATOM     13  C   UNL     1      -1.797  11.685  19.325  0.00  0.00    +0.000 A 
ATOM     14  C   UNL     1      -3.128  11.850  18.933  0.00  0.00    +0.000 A 
ATOM     15  C   UNL     1      -3.644  11.078  17.896  0.00  0.00    +0.000 A 
ATOM     16 CL   UNL     1      -5.292  11.254  17.436  0.00  0.00    +0.000 Cl
ATOM     17  C   UNL     1      -2.835  10.158  17.232  0.00  0.00    +0.000 A 
ATOM     18  C   UNL     1      -1.505   9.992  17.625  0.00  0.00    +0.000 A 
ENDBRANCH  10  12
ENDBRANCH   5   7
BRANCH   1  19
ATOM     19  C   UNL     1       5.247   6.231  15.786  0.00  0.00    +0.000 C 
BRANCH  19  20
ATOM     20  C   UNL     1       6.318   5.139  15.984  0.00  0.00    +0.000 C 
BRANCH  20  21
ATOM     21  C   UNL     1       6.828   4.657  14.618  0.00  0.00    +0.000 C 
ATOM     22  O   UNL     1       6.367   3.710  13.996  0.00  0.00    +0.000 OA
BRANCH  21  23
ATOM     23  O   UNL     1       7.855   5.413  14.156  0.00  0.00    +0.000 OA
ATOM     24  H   UNL     1       8.694   4.976  14.437  0.00  0.00    +0.000 HD
ENDBRANCH  21  23
ENDBRANCH  20  21
BRANCH  20  25
ATOM     25  O   UNL     1       7.458   5.576  16.757  0.00  0.00    +0.000 OA
BRANCH  25  27
ATOM     26  C   UNL     1       7.733   5.782  19.127  0.00  0.00    +0.000 C 
ATOM     27  C   UNL     1       7.654   4.823  17.955  0.00  0.00    +0.000 C 
ENDBRANCH  25  27
ENDBRANCH  20  25
ENDBRANCH  19  20
ENDBRANCH   1  19
TORSDOF 8
ENDMDL
MODEL 4
REMARK VINA RESULT:      -7.9      2.662      3.568
REMARK  Name = 
REMARK  9 active torsions:
REMARK  status: ('A' for Active; 'I' for Inactive)
REMARK    1  A    between atoms: C_1  and  C_2
REMARK    2  A    between atoms: C_2  and  O_3
REMARK    3  A    between atoms: O_3  and  C_4
REMARK    4  A    between atoms: C_4  and  C_5
REMARK    5  A    between atoms: C_4  and  C_24
REMARK    6  A    between atoms: C_5  and  C_6
REMARK    7  A    between atoms: C_10  and  C_11
REMARK    8  A    between atoms: C_14  and  C_15
REMARK    9  A    between atoms: C_24  and  O_26
REMARK                            x       y       z     vdW  Elec       q    Type
REMARK                         _______ _______ _______ _____ _____    ______ ____
ROOT
ATOM      1  C   UNL     1       4.276   6.278  17.163  0.00  0.00    +0.000 A 
ATOM      2  C   UNL     1       4.040   5.030  17.747  0.00  0.00    +0.000 A 
ATOM      3  C   UNL     1       3.068   4.890  18.740  0.00  0.00    +0.000 A 
ATOM      4  C   UNL     1       2.320   5.993  19.150  0.00  0.00    +0.000 A 
ATOM      5  C   UNL     1       2.570   7.251  18.597  0.00  0.00    +0.000 A 
ATOM      6  C   UNL     1       3.566   7.393  17.628  0.00  0.00    +0.000 A 
ENDROOT
BRANCH   5   7
ATOM      7  C   UNL     1       1.756   8.433  18.963  0.00  0.00    +0.000 C 
ATOM      8  N   UNL     1       1.386   8.688  20.179  0.00  0.00    +0.000 NA
ATOM      9  O   UNL     1       0.663   9.898  20.167  0.00  0.00    +0.000 OA
ATOM     10  C   UNL     1       0.549  10.378  18.816  0.00  0.00    +0.000 C 
ATOM     11  C   UNL     1       1.337   9.427  17.944  0.00  0.00    +0.000 C 
BRANCH  10  12
ATOM     12  C   UNL     1       1.032  11.811  18.704  0.00  0.00    +0.000 A 
ATOM     13  C   UNL     1       2.341  12.114  18.297  0.00  0.00    +0.000 A 
ATOM     14  C   UNL     1       2.777  13.440  18.230  0.00  0.00    +0.000 A 
ATOM     15  C   UNL     1       1.902  14.473  18.558  0.00  0.00    +0.000 A 
ATOM     16 CL   UNL     1       2.448  16.103  18.512  0.00  0.00    +0.000 Cl
ATOM     17  C   UNL     1       0.589  14.193  18.930  0.00  0.00    +0.000 A 
ATOM     18  C   UNL     1       0.153  12.867  18.998  0.00  0.00    +0.000 A 
ENDBRANCH  10  12
ENDBRANCH   5   7
BRANCH   1  19
ATOM     19  C   UNL     1       5.187   6.389  15.956  0.00  0.00    +0.000 C 
BRANCH  19  20
ATOM     20  C   UNL     1       6.557   5.719  16.191  0.00  0.00    +0.000 C 
BRANCH  20  21
ATOM     21  C   UNL     1       6.941   4.877  14.966  0.00  0.00    +0.000 C 
ATOM     22  O   UNL     1       6.415   3.816  14.657  0.00  0.00    +0.000 OA
BRANCH  21  23
ATOM     23  O   UNL     1       7.934   5.447  14.238  0.00  0.00    +0.000 OA
ATOM     24  H   UNL     1       8.754   5.419  14.786  0.00  0.00    +0.000 HD
ENDBRANCH  21  23
ENDBRANCH  20  21
BRANCH  20  25
ATOM     25  O   UNL     1       7.628   6.657  16.440  0.00  0.00    +0.000 OA
BRANCH  25  27
ATOM     26  C   UNL     1       8.055   8.569  17.818  0.00  0.00    +0.000 C 
ATOM     27  C   UNL     1       7.694   7.096  17.798  0.00  0.00    +0.000 C 
ENDBRANCH  25  27
ENDBRANCH  20  25
ENDBRANCH  19  20
ENDBRANCH   1  19
TORSDOF 8
ENDMDL
MODEL 5
REMARK VINA RESULT:      -7.8      1.142      1.358
REMARK  Name = 
REMARK  9 active torsions:
REMARK  status: ('A' for Active; 'I' for Inactive)
REMARK    1  A    between atoms: C_1  and  C_2
REMARK    2  A    between atoms: C_2  and  O_3
REMARK    3  A    between atoms: O_3  and  C_4
REMARK    4  A    between atoms: C_4  and  C_5
REMARK    5  A    between atoms: C_4  and  C_24
REMARK    6  A    between atoms: C_5  and  C_6
REMARK    7  A    between atoms: C_10  and  C_11
REMARK    8  A    between atoms: C_14  and  C_15
REMARK    9  A    between atoms: C_24  and  O_26
REMARK                            x       y       z     vdW  Elec       q    Type
REMARK                         _______ _______ _______ _____ _____    ______ ____
ROOT
ATOM      1  C   UNL     1       4.155   4.983  18.660  0.00  0.00    +0.000 A 
ATOM      2  C   UNL     1       3.516   4.247  19.662  0.00  0.00    +0.000 A 
ATOM      3  C   UNL     1       2.431   4.792  20.352  0.00  0.00    +0.000 A 
ATOM      4  C   UNL     1       1.972   6.072  20.041  0.00  0.00    +0.000 A 
ATOM      5  C   UNL     1       2.624   6.829  19.065  0.00  0.00    +0.000 A 
ATOM      6  C   UNL     1       3.730   6.293  18.401  0.00  0.00    +0.000 A 
ENDROOT
BRANCH   5   7
ATOM      7  C   UNL     1       2.130   8.166  18.666  0.00  0.00    +0.000 C 
ATOM      8  N   UNL     1       2.402   8.708  17.520  0.00  0.00    +0.000 NA
ATOM      9  O   UNL     1       1.747   9.954  17.462  0.00  0.00    +0.000 OA
ATOM     10  C   UNL     1       1.066  10.198  18.707  0.00  0.00    +0.000 C 
ATOM     11  C   UNL     1       1.254   8.964  19.559  0.00  0.00    +0.000 C 
BRANCH  10  12
ATOM     12  C   UNL     1      -0.394  10.531  18.472  0.00  0.00    +0.000 A 
ATOM     13  C   UNL     1      -1.166   9.825  17.536  0.00  0.00    +0.000 A 
ATOM     14  C   UNL     1      -2.502  10.166  17.312  0.00  0.00    +0.000 A 
ATOM     15  C   UNL     1      -3.079  11.209  18.031  0.00  0.00    +0.000 A 
ATOM     16 CL   UNL     1      -4.713  11.656  17.730  0.00  0.00    +0.000 Cl
ATOM     17  C   UNL     1      -2.339  11.898  18.990  0.00  0.00    +0.000 A 
ATOM     18  C   UNL     1      -1.003  11.558  19.213  0.00  0.00    +0.000 A 
ENDBRANCH  10  12
ENDBRANCH   5   7
BRANCH   1  19
ATOM     19  C   UNL     1       5.200   4.320  17.784  0.00  0.00    +0.000 C 
BRANCH  19  20
ATOM     20  C   UNL     1       6.219   5.330  17.219  0.00  0.00    +0.000 C 
BRANCH  20  21
ATOM     21  C   UNL     1       7.503   5.300  18.060  0.00  0.00    +0.000 C 
ATOM     22  O   UNL     1       7.926   6.240  18.720  0.00  0.00    +0.000 OA
BRANCH  21  23
ATOM     23  O   UNL     1       8.126   4.096  18.007  0.00  0.00    +0.000 OA
ATOM     24  H   UNL     1       9.094   4.259  18.114  0.00  0.00    +0.000 HD
ENDBRANCH  21  23
ENDBRANCH  20  21
BRANCH  20  25
ATOM     25  O   UNL     1       6.583   5.080  15.842  0.00  0.00    +0.000 OA
BRANCH  25  27
ATOM     26  C   UNL     1       6.025   3.932  13.816  0.00  0.00    +0.000 C 
ATOM     27  C   UNL     1       6.059   3.853  15.330  0.00  0.00    +0.000 C 
ENDBRANCH  25  27
ENDBRANCH  20  25
ENDBRANCH  19  20
ENDBRANCH   1  19
TORSDOF 8
ENDMDL
MODEL 6
REMARK VINA RESULT:      -7.8      1.337      2.505
REMARK  Name = 
REMARK  9 active torsions:
REMARK  status: ('A' for Active; 'I' for Inactive)
REMARK    1  A    between atoms: C_1  and  C_2
REMARK    2  A    between atoms: C_2  and  O_3
REMARK    3  A    between atoms: O_3  and  C_4
REMARK    4  A    between atoms: C_4  and  C_5
REMARK    5  A    between atoms: C_4  and  C_24
REMARK    6  A    between atoms: C_5  and  C_6
REMARK    7  A    between atoms: C_10  and  C_11
REMARK    8  A    between atoms: C_14  and  C_15
REMARK    9  A    between atoms: C_24  and  O_26
REMARK                            x       y       z     vdW  Elec       q    Type
REMARK                         _______ _______ _______ _____ _____    ______ ____
ROOT
ATOM      1  C   UNL     1       4.002   5.021  17.807  0.00  0.00    +0.000 A 
ATOM      2  C   UNL     1       3.659   4.280  18.941  0.00  0.00    +0.000 A 
ATOM      3  C   UNL     1       2.847   4.841  19.929  0.00  0.00    +0.000 A 
ATOM      4  C   UNL     1       2.364   6.142  19.786  0.00  0.00    +0.000 A 
ATOM      5  C   UNL     1       2.728   6.903  18.673  0.00  0.00    +0.000 A 
ATOM      6  C   UNL     1       3.568   6.350  17.704  0.00  0.00    +0.000 A 
ENDROOT
BRANCH   5   7
ATOM      7  C   UNL     1       2.189   8.265  18.457  0.00  0.00    +0.000 C 
ATOM      8  N   UNL     1       2.480   8.985  17.420  0.00  0.00    +0.000 NA
ATOM      9  O   UNL     1       1.770  10.199  17.521  0.00  0.00    +0.000 OA
ATOM     10  C   UNL     1       1.031  10.223  18.755  0.00  0.00    +0.000 C 
ATOM     11  C   UNL     1       1.242   8.881  19.420  0.00  0.00    +0.000 C 
BRANCH  10  12
ATOM     12  C   UNL     1      -0.433  10.529  18.506  0.00  0.00    +0.000 A 
ATOM     13  C   UNL     1      -1.107  11.527  19.229  0.00  0.00    +0.000 A 
ATOM     14  C   UNL     1      -2.464  11.773  19.007  0.00  0.00    +0.000 A 
ATOM     15  C   UNL     1      -3.154  11.033  18.052  0.00  0.00    +0.000 A 
ATOM     16 CL   UNL     1      -4.834  11.310  17.804  0.00  0.00    +0.000 Cl
ATOM     17  C   UNL     1      -2.494  10.063  17.300  0.00  0.00    +0.000 A 
ATOM     18  C   UNL     1      -1.138   9.815  17.523  0.00  0.00    +0.000 A 
ENDBRANCH  10  12
ENDBRANCH   5   7
BRANCH   1  19
ATOM     19  C   UNL     1       4.717   4.349  16.652  0.00  0.00    +0.000 C 
BRANCH  19  20
ATOM     20  C   UNL     1       6.235   4.619  16.662  0.00  0.00    +0.000 C 
BRANCH  20  21
ATOM     21  C   UNL     1       6.793   4.514  15.236  0.00  0.00    +0.000 C 
ATOM     22  O   UNL     1       7.626   5.271  14.756  0.00  0.00    +0.000 OA
BRANCH  21  23
ATOM     23  O   UNL     1       6.267   3.467  14.552  0.00  0.00    +0.000 OA
ATOM     24  H   UNL     1       6.863   2.694  14.691  0.00  0.00    +0.000 HD
ENDBRANCH  21  23
ENDBRANCH  20  21
BRANCH  20  25
ATOM     25  O   UNL     1       6.590   5.919  17.185  0.00  0.00    +0.000 OA
BRANCH  25  27
ATOM     26  C   UNL     1       8.114   7.251  18.466  0.00  0.00    +0.000 C 
ATOM     27  C   UNL     1       7.545   5.863  18.247  0.00  0.00    +0.000 C 
ENDBRANCH  25  27
ENDBRANCH  20  25
ENDBRANCH  19  20
ENDBRANCH   1  19
TORSDOF 8
ENDMDL
MODEL 7
REMARK VINA RESULT:      -7.8      1.492      2.173
REMARK  Name = 
REMARK  9 active torsions:
REMARK  status: ('A' for Active; 'I' for Inactive)
REMARK    1  A    between atoms: C_1  and  C_2
REMARK    2  A    between atoms: C_2  and  O_3
REMARK    3  A    between atoms: O_3  and  C_4
REMARK    4  A    between atoms: C_4  and  C_5
REMARK    5  A    between atoms: C_4  and  C_24
REMARK    6  A    between atoms: C_5  and  C_6
REMARK    7  A    between atoms: C_10  and  C_11
REMARK    8  A    between atoms: C_14  and  C_15
REMARK    9  A    between atoms: C_24  and  O_26
REMARK                            x       y       z     vdW  Elec       q    Type
REMARK                         _______ _______ _______ _____ _____    ______ ____
ROOT
ATOM      1  C   UNL     1       3.915   4.893  18.061  0.00  0.00    +0.000 A 
ATOM      2  C   UNL     1       3.511   4.214  19.213  0.00  0.00    +0.000 A 
ATOM      3  C   UNL     1       2.687   4.843  20.149  0.00  0.00    +0.000 A 
ATOM      4  C   UNL     1       2.254   6.152  19.935  0.00  0.00    +0.000 A 
ATOM      5  C   UNL     1       2.679   6.851  18.803  0.00  0.00    +0.000 A 
ATOM      6  C   UNL     1       3.531   6.230  17.888  0.00  0.00    +0.000 A 
ENDROOT
BRANCH   5   7
ATOM      7  C   UNL     1       2.194   8.219  18.512  0.00  0.00    +0.000 C 
ATOM      8  N   UNL     1       2.461   8.846  17.409  0.00  0.00    +0.000 NA
ATOM      9  O   UNL     1       1.816  10.098  17.453  0.00  0.00    +0.000 OA
ATOM     10  C   UNL     1       1.147  10.251  18.719  0.00  0.00    +0.000 C 
ATOM     11  C   UNL     1       1.332   8.953  19.472  0.00  0.00    +0.000 C 
BRANCH  10  12
ATOM     12  C   UNL     1      -0.312  10.613  18.523  0.00  0.00    +0.000 A 
ATOM     13  C   UNL     1      -0.912  11.656  19.246  0.00  0.00    +0.000 A 
ATOM     14  C   UNL     1      -2.266  11.955  19.075  0.00  0.00    +0.000 A 
ATOM     15  C   UNL     1      -3.027  11.219  18.170  0.00  0.00    +0.000 A 
ATOM     16 CL   UNL     1      -4.702  11.561  17.985  0.00  0.00    +0.000 Cl
ATOM     17  C   UNL     1      -2.440  10.204  17.418  0.00  0.00    +0.000 A 
ATOM     18  C   UNL     1      -1.087   9.904  17.590  0.00  0.00    +0.000 A 
ENDBRANCH  10  12
ENDBRANCH   5   7
BRANCH   1  19
ATOM     19  C   UNL     1       4.644   4.148  16.960  0.00  0.00    +0.000 C 
BRANCH  19  20
ATOM     20  C   UNL     1       5.340   5.101  15.967  0.00  0.00    +0.000 C 
BRANCH  20  21
ATOM     21  C   UNL     1       6.839   5.186  16.290  0.00  0.00    +0.000 C 
ATOM     22  O   UNL     1       7.599   6.040  15.854  0.00  0.00    +0.000 OA
BRANCH  21  23
ATOM     23  O   UNL     1       7.240   4.204  17.137  0.00  0.00    +0.000 OA
ATOM     24  H   UNL     1       7.776   4.629  17.848  0.00  0.00    +0.000 HD
ENDBRANCH  21  23
ENDBRANCH  20  21
BRANCH  20  25
ATOM     25  O   UNL     1       5.205   4.701  14.584  0.00  0.00    +0.000 OA
BRANCH  25  27
ATOM     26  C   UNL     1       6.041   3.507  12.684  0.00  0.00    +0.000 C 
ATOM     27  C   UNL     1       6.356   4.026  14.073  0.00  0.00    +0.000 C 
ENDBRANCH  25  27
ENDBRANCH  20  25
ENDBRANCH  19  20
ENDBRANCH   1  19
TORSDOF 8
ENDMDL
MODEL 8
REMARK VINA RESULT:      -7.7      1.624      2.572
REMARK  Name = 
REMARK  9 active torsions:
REMARK  status: ('A' for Active; 'I' for Inactive)
REMARK    1  A    between atoms: C_1  and  C_2
REMARK    2  A    between atoms: C_2  and  O_3
REMARK    3  A    between atoms: O_3  and  C_4
REMARK    4  A    between atoms: C_4  and  C_5
REMARK    5  A    between atoms: C_4  and  C_24
REMARK    6  A    between atoms: C_5  and  C_6
REMARK    7  A    between atoms: C_10  and  C_11
REMARK    8  A    between atoms: C_14  and  C_15
REMARK    9  A    between atoms: C_24  and  O_26
REMARK                            x       y       z     vdW  Elec       q    Type
REMARK                         _______ _______ _______ _____ _____    ______ ____
ROOT
ATOM      1  C   UNL     1       3.957   6.318  17.662  0.00  0.00    +0.000 A 
ATOM      2  C   UNL     1       3.741   5.371  18.667  0.00  0.00    +0.000 A 
ATOM      3  C   UNL     1       2.858   5.645  19.714  0.00  0.00    +0.000 A 
ATOM      4  C   UNL     1       2.179   6.862  19.760  0.00  0.00    +0.000 A 
ATOM      5  C   UNL     1       2.412   7.829  18.779  0.00  0.00    +0.000 A 
ATOM      6  C   UNL     1       3.322   7.564  17.752  0.00  0.00    +0.000 A 
ENDROOT
BRANCH   5   7
ATOM      7  C   UNL     1       1.667   9.108  18.760  0.00  0.00    +0.000 C 
ATOM      8  N   UNL     1       1.963  10.088  17.965  0.00  0.00    +0.000 NA
ATOM      9  O   UNL     1       1.035  11.125  18.189  0.00  0.00    +0.000 OA
ATOM     10  C   UNL     1       0.138  10.747  19.250  0.00  0.00    +0.000 C 
ATOM     11  C   UNL     1       0.498   9.333  19.646  0.00  0.00    +0.000 C 
BRANCH  10  12
ATOM     12  C   UNL     1      -1.308  10.883  18.814  0.00  0.00    +0.000 A 
ATOM     13  C   UNL     1      -1.865  10.033  17.845  0.00  0.00    +0.000 A 
ATOM     14  C   UNL     1      -3.190  10.194  17.435  0.00  0.00    +0.000 A 
ATOM     15  C   UNL     1      -3.972  11.199  17.998  0.00  0.00    +0.000 A 
ATOM     16 CL   UNL     1      -5.593  11.422  17.467  0.00  0.00    +0.000 Cl
ATOM     17  C   UNL     1      -3.447  12.029  18.986  0.00  0.00    +0.000 A 
ATOM     18  C   UNL     1      -2.121  11.869  19.396  0.00  0.00    +0.000 A 
ENDBRANCH  10  12
ENDBRANCH   5   7
BRANCH   1  19
ATOM     19  C   UNL     1       4.760   5.945  16.431  0.00  0.00    +0.000 C 
BRANCH  19  20
ATOM     20  C   UNL     1       6.262   5.781  16.737  0.00  0.00    +0.000 C 
BRANCH  20  21
ATOM     21  C   UNL     1       6.922   4.917  15.653  0.00  0.00    +0.000 C 
ATOM     22  O   UNL     1       7.714   5.331  14.818  0.00  0.00    +0.000 OA
BRANCH  21  23
ATOM     23  O   UNL     1       6.540   3.617  15.726  0.00  0.00    +0.000 OA
ATOM     24  H   UNL     1       5.670   3.591  16.192  0.00  0.00    +0.000 HD
ENDBRANCH  21  23
ENDBRANCH  20  21
BRANCH  20  25
ATOM     25  O   UNL     1       6.981   7.033  16.808  0.00  0.00    +0.000 OA
BRANCH  25  27
ATOM     26  C   UNL     1       7.531   5.983  18.889  0.00  0.00    +0.000 C 
ATOM     27  C   UNL     1       7.835   7.134  17.950  0.00  0.00    +0.000 C 
ENDBRANCH  25  27
ENDBRANCH  20  25
ENDBRANCH  19  20
ENDBRANCH   1  19
TORSDOF 8
ENDMDL
MODEL 9
REMARK VINA RESULT:      -7.6      2.715      3.736
REMARK  Name = 
REMARK  9 active torsions:
REMARK  status: ('A' for Active; 'I' for Inactive)
REMARK    1  A    between atoms: C_1  and  C_2
REMARK    2  A    between atoms: C_2  and  O_3
REMARK    3  A    between atoms: O_3  and  C_4
REMARK    4  A    between atoms: C_4  and  C_5
REMARK    5  A    between atoms: C_4  and  C_24
REMARK    6  A    between atoms: C_5  and  C_6
REMARK    7  A    between atoms: C_10  and  C_11
REMARK    8  A    between atoms: C_14  and  C_15
REMARK    9  A    between atoms: C_24  and  O_26
REMARK                            x       y       z     vdW  Elec       q    Type
REMARK                         _______ _______ _______ _____ _____    ______ ____
ROOT
ATOM      1  C   UNL     1       4.393   6.049  17.142  0.00  0.00    +0.000 A 
ATOM      2  C   UNL     1       4.300   4.844  17.843  0.00  0.00    +0.000 A 
ATOM      3  C   UNL     1       3.462   4.739  18.955  0.00  0.00    +0.000 A 
ATOM      4  C   UNL     1       2.703   5.834  19.368  0.00  0.00    +0.000 A 
ATOM      5  C   UNL     1       2.813   7.053  18.695  0.00  0.00    +0.000 A 
ATOM      6  C   UNL     1       3.679   7.163  17.604  0.00  0.00    +0.000 A 
ENDROOT
BRANCH   5   7
ATOM      7  C   UNL     1       1.981   8.220  19.066  0.00  0.00    +0.000 C 
ATOM      8  N   UNL     1       1.442   8.361  20.237  0.00  0.00    +0.000 NA
ATOM      9  O   UNL     1       0.755   9.591  20.253  0.00  0.00    +0.000 OA
ATOM     10  C   UNL     1       0.851  10.214  18.959  0.00  0.00    +0.000 C 
ATOM     11  C   UNL     1       1.738   9.330  18.111  0.00  0.00    +0.000 C 
BRANCH  10  12
ATOM     12  C   UNL     1       1.376  11.631  19.075  0.00  0.00    +0.000 A 
ATOM     13  C   UNL     1       0.975  12.479  20.120  0.00  0.00    +0.000 A 
ATOM     14  C   UNL     1       1.446  13.792  20.193  0.00  0.00    +0.000 A 
ATOM     15  C   UNL     1       2.332  14.263  19.227  0.00  0.00    +0.000 A 
ATOM     16 CL   UNL     1       2.884  15.891  19.294  0.00  0.00    +0.000 Cl
ATOM     17  C   UNL     1       2.769  13.426  18.203  0.00  0.00    +0.000 A 
ATOM     18  C   UNL     1       2.297  12.113  18.130  0.00  0.00    +0.000 A 
ENDBRANCH  10  12
ENDBRANCH   5   7
BRANCH   1  19
ATOM     19  C   UNL     1       5.148   6.105  15.828  0.00  0.00    +0.000 C 
BRANCH  19  20
ATOM     20  C   UNL     1       6.596   5.592  15.961  0.00  0.00    +0.000 C 
BRANCH  20  21
ATOM     21  C   UNL     1       7.038   4.934  14.646  0.00  0.00    +0.000 C 
ATOM     22  O   UNL     1       6.482   3.977  14.124  0.00  0.00    +0.000 OA
BRANCH  21  23
ATOM     23  O   UNL     1       8.123   5.542  14.104  0.00  0.00    +0.000 OA
ATOM     24  H   UNL     1       8.792   5.648  14.822  0.00  0.00    +0.000 HD
ENDBRANCH  21  23
ENDBRANCH  20  21
BRANCH  20  25
ATOM     25  O   UNL     1       7.552   6.627  16.285  0.00  0.00    +0.000 OA
BRANCH  25  27
ATOM     26  C   UNL     1       8.072   8.352  17.863  0.00  0.00    +0.000 C 
ATOM     27  C   UNL     1       7.628   6.913  17.683  0.00  0.00    +0.000 C 
ENDBRANCH  25  27
ENDBRANCH  20  25
ENDBRANCH  19  20
ENDBRANCH   1  19
TORSDOF 8
ENDMDL
