MODEL 1
REMARK VINA RESULT:      -8.3      0.000      0.000
REMARK  Name = 
REMARK  10 active torsions:
REMARK  status: ('A' for Active; 'I' for Inactive)
REMARK    1  A    between atoms: C_1  and  O_2
REMARK    2  A    between atoms: O_2  and  C_3
REMARK    3  A    between atoms: C_6  and  C_7
REMARK    4  A    between atoms: C_7  and  N_8
REMARK    5  A    between atoms: C_13  and  C_14
REMARK    6  A    between atoms: C_14  and  N_15
REMARK    7  A    between atoms: C_16  and  C_17
REMARK    8  A    between atoms: N_22  and  C_23
REMARK    9  A    between atoms: C_33  and  O_34
REMARK   10  A    between atoms: O_34  and  C_35
REMARK                            x       y       z     vdW  Elec       q    Type
REMARK                         _______ _______ _______ _____ _____    ______ ____
ROOT
ATOM      1  N   UNL     1      -0.178  10.515  20.949  0.00  0.00    +0.000 N 
ATOM      2  C   UNL     1       0.206   9.184  20.984  0.00  0.00    +0.000 A 
ATOM      3  O   UNL     1      -0.160   8.283  21.741  0.00  0.00    +0.000 OA
ATOM      4  C   UNL     1       1.161   8.903  19.865  0.00  0.00    +0.000 A 
ATOM      5  C   UNL     1       1.694   7.629  19.792  0.00  0.00    +0.000 A 
ATOM      6  C   UNL     1       2.496   7.300  18.714  0.00  0.00    +0.000 A 
ATOM      7  C   UNL     1       2.749   8.288  17.731  0.00  0.00    +0.000 A 
ATOM      8  C   UNL     1       2.199   9.604  17.805  0.00  0.00    +0.000 A 
ATOM      9  C   UNL     1       1.368   9.936  18.870  0.00  0.00    +0.000 A 
ATOM     10  N   UNL     1       0.379  11.081  18.833  0.00  0.00    +0.000 N 
ATOM     11  C   UNL     1      -0.654  10.415  19.431  0.00  0.00    +0.000 A 
ATOM     12  O   UNL     1      -1.574   9.849  18.870  0.00  0.00    +0.000 OA
ENDROOT
BRANCH  10  13
ATOM     13  C   UNL     1       0.105  12.035  19.922  0.00  0.00    +0.000 C 
ATOM     14  C   UNL     1      -1.154  13.296  19.018  0.00  0.00    +0.000 C 
ATOM     15  C   UNL     1      -0.227  15.017  18.723  0.00  0.00    +0.000 C 
ATOM     16  N   UNL     1       1.457  14.920  19.608  0.00  0.00    +0.000 N 
ATOM     17  C   UNL     1       2.420  15.864  19.336  0.00  0.00    +0.000 C 
ATOM     18  O   UNL     1       3.564  15.843  19.766  0.00  0.00    +0.000 OA
ATOM     19  C   UNL     1       1.793  13.182  20.439  0.00  0.00    +0.000 C 
ENDBRANCH  10  13
BRANCH   1  20
ATOM     20  C   UNL     1      -0.167  12.351  21.968  0.00  0.00    +0.000 C 
BRANCH  20  24
ATOM     21  C   UNL     1      -2.921  14.843  24.527  0.00  0.00    +0.000 A 
ATOM     22  C   UNL     1      -1.680  15.353  24.109  0.00  0.00    +0.000 A 
ATOM     23  C   UNL     1      -0.845  14.613  23.257  0.00  0.00    +0.000 A 
ATOM     24  C   UNL     1      -1.232  13.332  22.805  0.00  0.00    +0.000 A 
ATOM     25  C   UNL     1      -2.446  12.829  23.282  0.00  0.00    +0.000 A 
ATOM     26  C   UNL     1      -3.282  13.557  24.124  0.00  0.00    +0.000 A 
BRANCH  21  28
ATOM     27  C   UNL     1      -4.551  16.526  24.586  0.00  0.00    +0.000 C 
ATOM     28  O   UNL     1      -3.793  15.553  25.308  0.00  0.00    +0.000 OA
ENDBRANCH  21  28
BRANCH  26  29
ATOM     29  O   UNL     1      -4.466  12.912  24.338  0.00  0.00    +0.000 OA
ATOM     30  C   UNL     1      -5.469  13.066  23.347  0.00  0.00    +0.000 C 
ENDBRANCH  26  29
ENDBRANCH  20  24
ENDBRANCH   1  20
BRANCH   6  31
ATOM     31  C   UNL     1       3.000   5.879  18.661  0.00  0.00    +0.000 C 
BRANCH  31  32
ATOM     32  N   UNL     1       2.113   4.954  19.331  0.00  0.00    +0.000 N 
ATOM     33  C   UNL     1       1.475   3.958  18.639  0.00  0.00    +0.000 C 
ATOM     34  C   UNL     1       0.681   2.998  19.484  0.00  0.00    +0.000 C 
ATOM     35  O   UNL     1       1.555   3.826  17.419  0.00  0.00    +0.000 OA
ATOM     36  H   UNL     1       1.951   5.063  20.325  0.00  0.00    +0.000 HD
ENDBRANCH  31  32
ENDBRANCH   6  31
TORSDOF 7
ENDMDL
MODEL 2
REMARK VINA RESULT:      -8.1      0.643      1.557
REMARK  Name = 
REMARK  10 active torsions:
REMARK  status: ('A' for Active; 'I' for Inactive)
REMARK    1  A    between atoms: C_1  and  O_2
REMARK    2  A    between atoms: O_2  and  C_3
REMARK    3  A    between atoms: C_6  and  C_7
REMARK    4  A    between atoms: C_7  and  N_8
REMARK    5  A    between atoms: C_13  and  C_14
REMARK    6  A    between atoms: C_14  and  N_15
REMARK    7  A    between atoms: C_16  and  C_17
REMARK    8  A    between atoms: N_22  and  C_23
REMARK    9  A    between atoms: C_33  and  O_34
REMARK   10  A    between atoms: O_34  and  C_35
REMARK                            x       y       z     vdW  Elec       q    Type
REMARK                         _______ _______ _______ _____ _____    ______ ____
ROOT
ATOM      1  N   UNL     1      -0.283  10.447  20.953  0.00  0.00    +0.000 N 
ATOM      2  C   UNL     1       0.114   9.118  20.958  0.00  0.00    +0.000 A 
ATOM      3  O   UNL     1      -0.264   8.190  21.674  0.00  0.00    +0.000 OA
ATOM      4  C   UNL     1       1.107   8.883  19.861  0.00  0.00    +0.000 A 
ATOM      5  C   UNL     1       1.655   7.618  19.764  0.00  0.00    +0.000 A 
ATOM      6  C   UNL     1       2.494   7.331  18.702  0.00  0.00    +0.000 A 
ATOM      7  C   UNL     1       2.766   8.353  17.759  0.00  0.00    +0.000 A 
ATOM      8  C   UNL     1       2.200   9.660  17.857  0.00  0.00    +0.000 A 
ATOM      9  C   UNL     1       1.333   9.950  18.906  0.00  0.00    +0.000 A 
ATOM     10  N   UNL     1       0.332  11.085  18.874  0.00  0.00    +0.000 N 
ATOM     11  C   UNL     1      -0.711  10.390  19.419  0.00  0.00    +0.000 A 
ATOM     12  O   UNL     1      -1.607   9.833  18.812  0.00  0.00    +0.000 OA
ENDROOT
BRANCH  10  13
ATOM     13  C   UNL     1       0.014  12.001  19.984  0.00  0.00    +0.000 C 
ATOM     14  C   UNL     1      -1.177  13.315  19.065  0.00  0.00    +0.000 C 
ATOM     15  C   UNL     1      -0.212  15.032  18.886  0.00  0.00    +0.000 C 
ATOM     16  N   UNL     1       1.421  14.874  19.854  0.00  0.00    +0.000 N 
ATOM     17  C   UNL     1       2.410  15.813  19.670  0.00  0.00    +0.000 C 
ATOM     18  O   UNL     1       3.529  15.757  20.158  0.00  0.00    +0.000 OA
ATOM     19  C   UNL     1       1.689  13.100  20.633  0.00  0.00    +0.000 C 
ENDBRANCH  10  13
BRANCH   1  20
ATOM     20  C   UNL     1      -0.324  12.249  22.029  0.00  0.00    +0.000 C 
BRANCH  20  24
ATOM     21  C   UNL     1      -3.218  14.772  24.397  0.00  0.00    +0.000 A 
ATOM     22  C   UNL     1      -3.642  13.575  23.794  0.00  0.00    +0.000 A 
ATOM     23  C   UNL     1      -2.735  12.748  23.113  0.00  0.00    +0.000 A 
ATOM     24  C   UNL     1      -1.373  13.105  23.011  0.00  0.00    +0.000 A 
ATOM     25  C   UNL     1      -0.991  14.328  23.572  0.00  0.00    +0.000 A 
ATOM     26  C   UNL     1      -1.884  15.152  24.253  0.00  0.00    +0.000 A 
BRANCH  21  28
ATOM     27  C   UNL     1      -4.843  16.458  24.319  0.00  0.00    +0.000 C 
ATOM     28  O   UNL     1      -4.054  15.578  25.122  0.00  0.00    +0.000 OA
ENDBRANCH  21  28
BRANCH  26  29
ATOM     29  O   UNL     1      -1.247  16.216  24.827  0.00  0.00    +0.000 OA
ATOM     30  C   UNL     1      -0.734  16.028  26.135  0.00  0.00    +0.000 C 
ENDBRANCH  26  29
ENDBRANCH  20  24
ENDBRANCH   1  20
BRANCH   6  31
ATOM     31  C   UNL     1       3.015   5.918  18.620  0.00  0.00    +0.000 C 
BRANCH  31  32
ATOM     32  N   UNL     1       2.217   4.991  19.390  0.00  0.00    +0.000 N 
ATOM     33  C   UNL     1       1.488   4.005  18.777  0.00  0.00    +0.000 C 
ATOM     34  C   UNL     1       0.805   3.040  19.708  0.00  0.00    +0.000 C 
ATOM     35  O   UNL     1       1.408   3.886  17.556  0.00  0.00    +0.000 OA
ATOM     36  H   UNL     1       2.187   5.090  20.397  0.00  0.00    +0.000 HD
ENDBRANCH  31  32
ENDBRANCH   6  31
TORSDOF 7
ENDMDL
MODEL 3
REMARK VINA RESULT:      -7.9      1.083      1.389
REMARK  Name = 
REMARK  10 active torsions:
REMARK  status: ('A' for Active; 'I' for Inactive)
REMARK    1  A    between atoms: C_1  and  O_2
REMARK    2  A    between atoms: O_2  and  C_3
REMARK    3  A    between atoms: C_6  and  C_7
REMARK    4  A    between atoms: C_7  and  N_8
REMARK    5  A    between atoms: C_13  and  C_14
REMARK    6  A    between atoms: C_14  and  N_15
REMARK    7  A    between atoms: C_16  and  C_17
REMARK    8  A    between atoms: N_22  and  C_23
REMARK    9  A    between atoms: C_33  and  O_34
REMARK   10  A    between atoms: O_34  and  C_35
REMARK                            x       y       z     vdW  Elec       q    Type
REMARK                         _______ _______ _______ _____ _____    ______ ____
ROOT
ATOM      1  N   UNL     1      -0.215  10.555  20.910  0.00  0.00    +0.000 N 
ATOM      2  C   UNL     1       0.124   9.213  20.988  0.00  0.00    +0.000 A 
ATOM      3  O   UNL     1      -0.289   8.344  21.758  0.00  0.00    +0.000 OA
ATOM      4  C   UNL     1       1.097   8.873  19.902  0.00  0.00    +0.000 A 
ATOM      5  C   UNL     1       1.589   7.581  19.873  0.00  0.00    +0.000 A 
ATOM      6  C   UNL     1       2.407   7.199  18.825  0.00  0.00    +0.000 A 
ATOM      7  C   UNL     1       2.716   8.152  17.825  0.00  0.00    +0.000 A 
ATOM      8  C   UNL     1       2.208   9.487  17.852  0.00  0.00    +0.000 A 
ATOM      9  C   UNL     1       1.363   9.873  18.886  0.00  0.00    +0.000 A 
ATOM     10  N   UNL     1       0.413  11.048  18.795  0.00  0.00    +0.000 N 
ATOM     11  C   UNL     1      -0.656  10.431  19.384  0.00  0.00    +0.000 A 
ATOM     12  O   UNL     1      -1.580   9.881  18.814  0.00  0.00    +0.000 OA
ENDROOT
BRANCH  10  13
ATOM     13  C   UNL     1       0.143  12.038  19.854  0.00  0.00    +0.000 C 
ATOM     14  C   UNL     1      -1.041  13.321  18.882  0.00  0.00    +0.000 C 
ATOM     15  C   UNL     1      -0.042  15.000  18.575  0.00  0.00    +0.000 C 
ATOM     16  N   UNL     1       1.611  14.862  19.512  0.00  0.00    +0.000 N 
ATOM     17  C   UNL     1       2.616  15.764  19.247  0.00  0.00    +0.000 C 
ATOM     18  O   UNL     1       3.746  15.711  19.710  0.00  0.00    +0.000 OA
ATOM     19  C   UNL     1       1.858  13.134  20.393  0.00  0.00    +0.000 C 
ENDBRANCH  10  13
BRANCH   1  20
ATOM     20  C   UNL     1      -0.169  12.415  21.883  0.00  0.00    +0.000 C 
BRANCH  20  24
ATOM     21  C   UNL     1      -2.804  14.975  24.500  0.00  0.00    +0.000 A 
ATOM     22  C   UNL     1      -1.623  15.498  23.948  0.00  0.00    +0.000 A 
ATOM     23  C   UNL     1      -0.830  14.733  23.077  0.00  0.00    +0.000 A 
ATOM     24  C   UNL     1      -1.200  13.412  22.742  0.00  0.00    +0.000 A 
ATOM     25  C   UNL     1      -2.350  12.899  23.350  0.00  0.00    +0.000 A 
ATOM     26  C   UNL     1      -3.144  13.653  24.211  0.00  0.00    +0.000 A 
BRANCH  21  28
ATOM     27  C   UNL     1      -4.531  16.556  24.585  0.00  0.00    +0.000 C 
ATOM     28  O   UNL     1      -3.638  15.704  25.304  0.00  0.00    +0.000 OA
ENDBRANCH  21  28
BRANCH  26  29
ATOM     29  O   UNL     1      -4.280  12.981  24.564  0.00  0.00    +0.000 OA
ATOM     30  C   UNL     1      -5.354  13.006  23.638  0.00  0.00    +0.000 C 
ENDBRANCH  26  29
ENDBRANCH  20  24
ENDBRANCH   1  20
BRANCH   6  31
ATOM     31  C   UNL     1       2.864   5.761  18.820  0.00  0.00    +0.000 C 
BRANCH  31  32
ATOM     32  N   UNL     1       3.521   5.395  17.585  0.00  0.00    +0.000 N 
ATOM     33  C   UNL     1       4.723   4.738  17.591  0.00  0.00    +0.000 C 
ATOM     34  C   UNL     1       5.228   4.313  16.238  0.00  0.00    +0.000 C 
ATOM     35  O   UNL     1       5.347   4.482  18.619  0.00  0.00    +0.000 OA
ATOM     36  H   UNL     1       3.087   5.649  16.706  0.00  0.00    +0.000 HD
ENDBRANCH  31  32
ENDBRANCH   6  31
TORSDOF 7
ENDMDL
MODEL 4
REMARK VINA RESULT:      -7.7      1.246      2.208
REMARK  Name = 
REMARK  10 active torsions:
REMARK  status: ('A' for Active; 'I' for Inactive)
REMARK    1  A    between atoms: C_1  and  O_2
REMARK    2  A    between atoms: O_2  and  C_3
REMARK    3  A    between atoms: C_6  and  C_7
REMARK    4  A    between atoms: C_7  and  N_8
REMARK    5  A    between atoms: C_13  and  C_14
REMARK    6  A    between atoms: C_14  and  N_15
REMARK    7  A    between atoms: C_16  and  C_17
REMARK    8  A    between atoms: N_22  and  C_23
REMARK    9  A    between atoms: C_33  and  O_34
REMARK   10  A    between atoms: O_34  and  C_35
REMARK                            x       y       z     vdW  Elec       q    Type
REMARK                         _______ _______ _______ _____ _____    ______ ____
ROOT
ATOM      1  N   UNL     1      -0.258  10.562  20.975  0.00  0.00    +0.000 N 
ATOM      2  C   UNL     1       0.074   9.217  21.033  0.00  0.00    +0.000 A 
ATOM      3  O   UNL     1      -0.357   8.336  21.779  0.00  0.00    +0.000 OA
ATOM      4  C   UNL     1       1.063   8.893  19.957  0.00  0.00    +0.000 A 
ATOM      5  C   UNL     1       1.550   7.599  19.913  0.00  0.00    +0.000 A 
ATOM      6  C   UNL     1       2.384   7.233  18.872  0.00  0.00    +0.000 A 
ATOM      7  C   UNL     1       2.715   8.204  17.895  0.00  0.00    +0.000 A 
ATOM      8  C   UNL     1       2.212   9.540  17.939  0.00  0.00    +0.000 A 
ATOM      9  C   UNL     1       1.351   9.910  18.966  0.00  0.00    +0.000 A 
ATOM     10  N   UNL     1       0.408  11.091  18.880  0.00  0.00    +0.000 N 
ATOM     11  C   UNL     1      -0.674  10.469  19.439  0.00  0.00    +0.000 A 
ATOM     12  O   UNL     1      -1.591   9.934  18.843  0.00  0.00    +0.000 OA
ENDROOT
BRANCH  10  13
ATOM     13  C   UNL     1       0.125  12.063  19.952  0.00  0.00    +0.000 C 
ATOM     14  C   UNL     1      -1.046  13.364  18.988  0.00  0.00    +0.000 C 
ATOM     15  C   UNL     1      -0.042  15.047  18.724  0.00  0.00    +0.000 C 
ATOM     16  N   UNL     1       1.598  14.892  19.680  0.00  0.00    +0.000 N 
ATOM     17  C   UNL     1       2.607  15.797  19.444  0.00  0.00    +0.000 C 
ATOM     18  O   UNL     1       3.730  15.736  19.922  0.00  0.00    +0.000 OA
ATOM     19  C   UNL     1       1.833  13.149  20.534  0.00  0.00    +0.000 C 
ENDBRANCH  10  13
BRANCH   1  20
ATOM     20  C   UNL     1      -0.220  12.404  21.983  0.00  0.00    +0.000 C 
BRANCH  20  24
ATOM     21  C   UNL     1      -3.015  14.991  24.400  0.00  0.00    +0.000 A 
ATOM     22  C   UNL     1      -3.355  13.661  24.098  0.00  0.00    +0.000 A 
ATOM     23  C   UNL     1      -2.464  12.826  23.406  0.00  0.00    +0.000 A 
ATOM     24  C   UNL     1      -1.204  13.308  22.988  0.00  0.00    +0.000 A 
ATOM     25  C   UNL     1      -0.916  14.651  23.253  0.00  0.00    +0.000 A 
ATOM     26  C   UNL     1      -1.793  15.485  23.943  0.00  0.00    +0.000 A 
BRANCH  21  28
ATOM     27  C   UNL     1      -4.922  16.352  24.376  0.00  0.00    +0.000 C 
ATOM     28  O   UNL     1      -3.827  15.822  25.125  0.00  0.00    +0.000 OA
ENDBRANCH  21  28
BRANCH  26  29
ATOM     29  O   UNL     1      -1.231  16.703  24.198  0.00  0.00    +0.000 OA
ATOM     30  C   UNL     1      -0.352  16.785  25.308  0.00  0.00    +0.000 C 
ENDBRANCH  26  29
ENDBRANCH  20  24
ENDBRANCH   1  20
BRANCH   6  31
ATOM     31  C   UNL     1       2.835   5.793  18.848  0.00  0.00    +0.000 C 
BRANCH  31  32
ATOM     32  N   UNL     1       4.171   5.625  19.375  0.00  0.00    +0.000 N 
ATOM     33  C   UNL     1       5.250   5.499  18.539  0.00  0.00    +0.000 C 
ATOM     34  C   UNL     1       6.589   5.454  19.225  0.00  0.00    +0.000 C 
ATOM     35  O   UNL     1       5.153   5.449  17.315  0.00  0.00    +0.000 OA
ATOM     36  H   UNL     1       4.301   5.583  20.378  0.00  0.00    +0.000 HD
ENDBRANCH  31  32
ENDBRANCH   6  31
TORSDOF 7
ENDMDL
MODEL 5
REMARK VINA RESULT:      -7.6      1.293      2.039
REMARK  Name = 
REMARK  10 active torsions:
REMARK  status: ('A' for Active; 'I' for Inactive)
REMARK    1  A    between atoms: C_1  and  O_2
REMARK    2  A    between atoms: O_2  and  C_3
REMARK    3  A    between atoms: C_6  and  C_7
REMARK    4  A    between atoms: C_7  and  N_8
REMARK    5  A    between atoms: C_13  and  C_14
REMARK    6  A    between atoms: C_14  and  N_15
REMARK    7  A    between atoms: C_16  and  C_17
REMARK    8  A    between atoms: N_22  and  C_23
REMARK    9  A    between atoms: C_33  and  O_34
REMARK   10  A    between atoms: O_34  and  C_35
REMARK                            x       y       z     vdW  Elec       q    Type
REMARK                         _______ _______ _______ _____ _____    ______ ____
ROOT
ATOM      1  N   UNL     1      -0.334  10.472  20.913  0.00  0.00    +0.000 N 
ATOM      2  C   UNL     1       0.057   9.143  20.952  0.00  0.00    +0.000 A 
ATOM      3  O   UNL     1      -0.341   8.231  21.679  0.00  0.00    +0.000 OA
ATOM      4  C   UNL     1       1.070   8.880  19.881  0.00  0.00    +0.000 A 
ATOM      5  C   UNL     1       1.614   7.611  19.820  0.00  0.00    +0.000 A 
ATOM      6  C   UNL     1       2.473   7.299  18.782  0.00  0.00    +0.000 A 
ATOM      7  C   UNL     1       2.770   8.300  17.825  0.00  0.00    +0.000 A 
ATOM      8  C   UNL     1       2.208   9.612  17.885  0.00  0.00    +0.000 A 
ATOM      9  C   UNL     1       1.321   9.926  18.909  0.00  0.00    +0.000 A 
ATOM     10  N   UNL     1       0.328  11.066  18.834  0.00  0.00    +0.000 N 
ATOM     11  C   UNL     1      -0.730  10.387  19.371  0.00  0.00    +0.000 A 
ATOM     12  O   UNL     1      -1.617   9.823  18.757  0.00  0.00    +0.000 OA
ENDROOT
BRANCH  10  13
ATOM     13  C   UNL     1      -0.008  12.005  19.919  0.00  0.00    +0.000 C 
ATOM     14  C   UNL     1      -1.123  13.340  18.935  0.00  0.00    +0.000 C 
ATOM     15  C   UNL     1      -0.102  15.026  18.775  0.00  0.00    +0.000 C 
ATOM     16  N   UNL     1       1.486  14.835  19.810  0.00  0.00    +0.000 N 
ATOM     17  C   UNL     1       2.508  15.743  19.654  0.00  0.00    +0.000 C 
ATOM     18  O   UNL     1       3.605  15.662  20.188  0.00  0.00    +0.000 OA
ATOM     19  C   UNL     1       1.670  13.066  20.622  0.00  0.00    +0.000 C 
ENDBRANCH  10  13
BRANCH   1  20
ATOM     20  C   UNL     1      -0.387  12.297  21.951  0.00  0.00    +0.000 C 
BRANCH  20  24
ATOM     21  C   UNL     1      -3.514  14.830  23.988  0.00  0.00    +0.000 A 
ATOM     22  C   UNL     1      -3.598  13.427  24.022  0.00  0.00    +0.000 A 
ATOM     23  C   UNL     1      -2.595  12.628  23.451  0.00  0.00    +0.000 A 
ATOM     24  C   UNL     1      -1.478  13.219  22.820  0.00  0.00    +0.000 A 
ATOM     25  C   UNL     1      -1.450  14.615  22.752  0.00  0.00    +0.000 A 
ATOM     26  C   UNL     1      -2.438  15.415  23.320  0.00  0.00    +0.000 A 
BRANCH  21  28
ATOM     27  C   UNL     1      -5.555  15.956  23.750  0.00  0.00    +0.000 C 
ATOM     28  O   UNL     1      -4.437  15.646  24.584  0.00  0.00    +0.000 OA
ENDBRANCH  21  28
BRANCH  26  29
ATOM     29  O   UNL     1      -2.117  16.740  23.244  0.00  0.00    +0.000 OA
ATOM     30  C   UNL     1      -1.378  17.158  22.108  0.00  0.00    +0.000 C 
ENDBRANCH  26  29
ENDBRANCH  20  24
ENDBRANCH   1  20
BRANCH   6  31
ATOM     31  C   UNL     1       2.987   5.881  18.739  0.00  0.00    +0.000 C 
BRANCH  31  32
ATOM     32  N   UNL     1       3.789   5.621  17.564  0.00  0.00    +0.000 N 
ATOM     33  C   UNL     1       4.525   4.471  17.451  0.00  0.00    +0.000 C 
ATOM     34  C   UNL     1       5.212   4.277  16.126  0.00  0.00    +0.000 C 
ATOM     35  O   UNL     1       4.611   3.634  18.348  0.00  0.00    +0.000 OA
ATOM     36  H   UNL     1       3.815   6.313  16.826  0.00  0.00    +0.000 HD
ENDBRANCH  31  32
ENDBRANCH   6  31
TORSDOF 7
ENDMDL
MODEL 6
REMARK VINA RESULT:      -7.4      1.349      1.829
REMARK  Name = 
REMARK  10 active torsions:
REMARK  status: ('A' for Active; 'I' for Inactive)
REMARK    1  A    between atoms: C_1  and  O_2
REMARK    2  A    between atoms: O_2  and  C_3
REMARK    3  A    between atoms: C_6  and  C_7
REMARK    4  A    between atoms: C_7  and  N_8
REMARK    5  A    between atoms: C_13  and  C_14
REMARK    6  A    between atoms: C_14  and  N_15
REMARK    7  A    between atoms: C_16  and  C_17
REMARK    8  A    between atoms: N_22  and  C_23
REMARK    9  A    between atoms: C_33  and  O_34
REMARK   10  A    between atoms: O_34  and  C_35
REMARK                            x       y       z     vdW  Elec       q    Type
REMARK                         _______ _______ _______ _____ _____    ______ ____
ROOT
ATOM      1  N   UNL     1      -0.366  10.739  20.991  0.00  0.00    +0.000 N 
ATOM      2  C   UNL     1      -0.022   9.405  21.154  0.00  0.00    +0.000 A 
ATOM      3  O   UNL     1      -0.457   8.576  21.955  0.00  0.00    +0.000 OA
ATOM      4  C   UNL     1       0.990   9.014  20.121  0.00  0.00    +0.000 A 
ATOM      5  C   UNL     1       1.490   7.726  20.180  0.00  0.00    +0.000 A 
ATOM      6  C   UNL     1       2.345   7.294  19.183  0.00  0.00    +0.000 A 
ATOM      7  C   UNL     1       2.684   8.194  18.143  0.00  0.00    +0.000 A 
ATOM      8  C   UNL     1       2.168   9.524  18.080  0.00  0.00    +0.000 A 
ATOM      9  C   UNL     1       1.285   9.959  19.062  0.00  0.00    +0.000 A 
ATOM     10  N   UNL     1       0.332  11.120  18.875  0.00  0.00    +0.000 N 
ATOM     11  C   UNL     1      -0.753  10.529  19.459  0.00  0.00    +0.000 A 
ATOM     12  O   UNL     1      -1.654   9.942  18.889  0.00  0.00    +0.000 OA
ENDROOT
BRANCH  10  13
ATOM     13  C   UNL     1       0.020  12.164  19.868  0.00  0.00    +0.000 C 
ATOM     14  C   UNL     1      -1.042  13.441  18.758  0.00  0.00    +0.000 C 
ATOM     15  C   UNL     1       0.036  15.071  18.456  0.00  0.00    +0.000 C 
ATOM     16  N   UNL     1       1.609  14.922  19.520  0.00  0.00    +0.000 N 
ATOM     17  C   UNL     1       2.662  15.778  19.294  0.00  0.00    +0.000 C 
ATOM     18  O   UNL     1       3.752  15.709  19.843  0.00  0.00    +0.000 OA
ATOM     19  C   UNL     1       1.729  13.228  20.489  0.00  0.00    +0.000 C 
ENDBRANCH  10  13
BRANCH   1  20
ATOM     20  C   UNL     1      -0.363  12.649  21.862  0.00  0.00    +0.000 C 
BRANCH  20  24
ATOM     21  C   UNL     1      -3.032  15.778  23.716  0.00  0.00    +0.000 A 
ATOM     22  C   UNL     1      -3.121  15.485  22.345  0.00  0.00    +0.000 A 
ATOM     23  C   UNL     1      -2.344  14.467  21.770  0.00  0.00    +0.000 A 
ATOM     24  C   UNL     1      -1.446  13.715  22.559  0.00  0.00    +0.000 A 
ATOM     25  C   UNL     1      -1.338  14.066  23.909  0.00  0.00    +0.000 A 
ATOM     26  C   UNL     1      -2.108  15.072  24.487  0.00  0.00    +0.000 A 
BRANCH  21  28
ATOM     27  C   UNL     1      -5.199  16.379  24.371  0.00  0.00    +0.000 C 
ATOM     28  O   UNL     1      -3.813  16.720  24.330  0.00  0.00    +0.000 OA
ENDBRANCH  21  28
BRANCH  26  29
ATOM     29  O   UNL     1      -1.923  15.131  25.839  0.00  0.00    +0.000 OA
ATOM     30  C   UNL     1      -0.973  16.070  26.317  0.00  0.00    +0.000 C 
ENDBRANCH  26  29
ENDBRANCH  20  24
ENDBRANCH   1  20
BRANCH   6  31
ATOM     31  C   UNL     1       2.811   5.862  19.272  0.00  0.00    +0.000 C 
BRANCH  31  32
ATOM     32  N   UNL     1       3.863   5.563  18.327  0.00  0.00    +0.000 N 
ATOM     33  C   UNL     1       3.706   4.587  17.378  0.00  0.00    +0.000 C 
ATOM     34  C   UNL     1       4.832   4.470  16.386  0.00  0.00    +0.000 C 
ATOM     35  O   UNL     1       2.713   3.866  17.310  0.00  0.00    +0.000 OA
ATOM     36  H   UNL     1       4.734   6.077  18.385  0.00  0.00    +0.000 HD
ENDBRANCH  31  32
ENDBRANCH   6  31
TORSDOF 7
ENDMDL
MODEL 7
REMARK VINA RESULT:      -7.3      1.369      1.619
REMARK  Name = 
REMARK  10 active torsions:
REMARK  status: ('A' for Active; 'I' for Inactive)
REMARK    1  A    between atoms: C_1  and  O_2
REMARK    2  A    between atoms: O_2  and  C_3
REMARK    3  A    between atoms: C_6  and  C_7
REMARK    4  A    between atoms: C_7  and  N_8
REMARK    5  A    between atoms: C_13  and  C_14
REMARK    6  A    between atoms: C_14  and  N_15
REMARK    7  A    between atoms: C_16  and  C_17
REMARK    8  A    between atoms: N_22  and  C_23
REMARK    9  A    between atoms: C_33  and  O_34
REMARK   10  A    between atoms: O_34  and  C_35
REMARK                            x       y       z     vdW  Elec       q    Type
REMARK                         _______ _______ _______ _____ _____    ______ ____
ROOT
ATOM      1  N   UNL     1      -0.338  10.741  20.934  0.00  0.00    +0.000 N 
ATOM      2  C   UNL     1       0.014   9.406  21.056  0.00  0.00    +0.000 A 
ATOM      3  O   UNL     1      -0.412   8.551  21.834  0.00  0.00    +0.000 OA
ATOM      4  C   UNL     1       1.024   9.051  20.008  0.00  0.00    +0.000 A 
ATOM      5  C   UNL     1       1.532   7.765  20.027  0.00  0.00    +0.000 A 
ATOM      6  C   UNL     1       2.386   7.367  19.015  0.00  0.00    +0.000 A 
ATOM      7  C   UNL     1       2.715   8.300  18.001  0.00  0.00    +0.000 A 
ATOM      8  C   UNL     1       2.191   9.628  17.979  0.00  0.00    +0.000 A 
ATOM      9  C   UNL     1       1.309  10.029  18.977  0.00  0.00    +0.000 A 
ATOM     10  N   UNL     1       0.349  11.189  18.827  0.00  0.00    +0.000 N 
ATOM     11  C   UNL     1      -0.730  10.574  19.398  0.00  0.00    +0.000 A 
ATOM     12  O   UNL     1      -1.630   9.998  18.814  0.00  0.00    +0.000 OA
ENDROOT
BRANCH  10  13
ATOM     13  C   UNL     1       0.035  12.201  19.851  0.00  0.00    +0.000 C 
ATOM     14  C   UNL     1      -1.041  13.503  18.783  0.00  0.00    +0.000 C 
ATOM     15  C   UNL     1       0.025  15.148  18.525  0.00  0.00    +0.000 C 
ATOM     16  N   UNL     1       1.604  14.978  19.577  0.00  0.00    +0.000 N 
ATOM     17  C   UNL     1       2.651  15.848  19.372  0.00  0.00    +0.000 C 
ATOM     18  O   UNL     1       3.743  15.770  19.914  0.00  0.00    +0.000 OA
ATOM     19  C   UNL     1       1.739  13.258  20.496  0.00  0.00    +0.000 C 
ENDBRANCH  10  13
BRANCH   1  20
ATOM     20  C   UNL     1      -0.344  12.625  21.860  0.00  0.00    +0.000 C 
BRANCH  20  24
ATOM     21  C   UNL     1      -3.545  15.222  23.693  0.00  0.00    +0.000 A 
ATOM     22  C   UNL     1      -2.823  14.313  24.485  0.00  0.00    +0.000 A 
ATOM     23  C   UNL     1      -1.778  13.549  23.939  0.00  0.00    +0.000 A 
ATOM     24  C   UNL     1      -1.434  13.672  22.576  0.00  0.00    +0.000 A 
ATOM     25  C   UNL     1      -2.206  14.543  21.800  0.00  0.00    +0.000 A 
ATOM     26  C   UNL     1      -3.240  15.307  22.334  0.00  0.00    +0.000 A 
BRANCH  21  28
ATOM     27  C   UNL     1      -4.038  17.097  25.009  0.00  0.00    +0.000 C 
ATOM     28  O   UNL     1      -4.529  16.030  24.195  0.00  0.00    +0.000 OA
ENDBRANCH  21  28
BRANCH  26  29
ATOM     29  O   UNL     1      -3.748  16.178  21.412  0.00  0.00    +0.000 OA
ATOM     30  C   UNL     1      -2.833  16.739  20.486  0.00  0.00    +0.000 C 
ENDBRANCH  26  29
ENDBRANCH  20  24
ENDBRANCH   1  20
BRANCH   6  31
ATOM     31  C   UNL     1       2.861   5.936  19.060  0.00  0.00    +0.000 C 
BRANCH  31  32
ATOM     32  N   UNL     1       2.243   5.184  20.129  0.00  0.00    +0.000 N 
ATOM     33  C   UNL     1       2.645   3.907  20.420  0.00  0.00    +0.000 C 
ATOM     34  C   UNL     1       2.000   3.292  21.633  0.00  0.00    +0.000 C 
ATOM     35  O   UNL     1       3.489   3.300  19.764  0.00  0.00    +0.000 OA
ATOM     36  H   UNL     1       1.489   5.609  20.655  0.00  0.00    +0.000 HD
ENDBRANCH  31  32
ENDBRANCH   6  31
TORSDOF 7
ENDMDL
MODEL 8
REMARK VINA RESULT:      -7.2      1.083      1.102
REMARK  Name = 
REMARK  10 active torsions:
REMARK  status: ('A' for Active; 'I' for Inactive)
REMARK    1  A    between atoms: C_1  and  O_2
REMARK    2  A    between atoms: O_2  and  C_3
REMARK    3  A    between atoms: C_6  and  C_7
REMARK    4  A    between atoms: C_7  and  N_8
REMARK    5  A    between atoms: C_13  and  C_14
REMARK    6  A    between atoms: C_14  and  N_15
REMARK    7  A    between atoms: C_16  and  C_17
REMARK    8  A    between atoms: N_22  and  C_23
REMARK    9  A    between atoms: C_33  and  O_34
REMARK   10  A    between atoms: O_34  and  C_35
REMARK                            x       y       z     vdW  Elec       q    Type
REMARK                         _______ _______ _______ _____ _____    ______ ____
ROOT
ATOM      1  N   UNL     1      -0.395  10.589  21.045  0.00  0.00    +0.000 N 
ATOM      2  C   UNL     1      -0.025   9.271  21.265  0.00  0.00    +0.000 A 
ATOM      3  O   UNL     1      -0.447   8.468  22.099  0.00  0.00    +0.000 OA
ATOM      4  C   UNL     1       1.001   8.858  20.255  0.00  0.00    +0.000 A 
ATOM      5  C   UNL     1       1.527   7.584  20.371  0.00  0.00    +0.000 A 
ATOM      6  C   UNL     1       2.397   7.128  19.397  0.00  0.00    +0.000 A 
ATOM      7  C   UNL     1       2.723   7.991  18.322  0.00  0.00    +0.000 A 
ATOM      8  C   UNL     1       2.180   9.306  18.200  0.00  0.00    +0.000 A 
ATOM      9  C   UNL     1       1.282   9.764  19.159  0.00  0.00    +0.000 A 
ATOM     10  N   UNL     1       0.306  10.895  18.918  0.00  0.00    +0.000 N 
ATOM     11  C   UNL     1      -0.769  10.306  19.521  0.00  0.00    +0.000 A 
ATOM     12  O   UNL     1      -1.655   9.677  18.972  0.00  0.00    +0.000 OA
ENDROOT
BRANCH  10  13
ATOM     13  C   UNL     1      -0.032  11.974  19.864  0.00  0.00    +0.000 C 
ATOM     14  C   UNL     1      -1.100  13.188  18.691  0.00  0.00    +0.000 C 
ATOM     15  C   UNL     1      -0.043  14.821  18.337  0.00  0.00    +0.000 C 
ATOM     16  N   UNL     1       1.519  14.739  19.423  0.00  0.00    +0.000 N 
ATOM     17  C   UNL     1       2.563  15.601  19.175  0.00  0.00    +0.000 C 
ATOM     18  O   UNL     1       3.646  15.571  19.739  0.00  0.00    +0.000 OA
ATOM     19  C   UNL     1       1.652  13.087  20.461  0.00  0.00    +0.000 C 
ENDBRANCH  10  13
BRANCH   1  20
ATOM     20  C   UNL     1      -0.438  12.534  21.834  0.00  0.00    +0.000 C 
BRANCH  20  24
ATOM     21  C   UNL     1      -3.465  15.010  24.081  0.00  0.00    +0.000 A 
ATOM     22  C   UNL     1      -2.133  14.938  24.523  0.00  0.00    +0.000 A 
ATOM     23  C   UNL     1      -1.167  14.226  23.794  0.00  0.00    +0.000 A 
ATOM     24  C   UNL     1      -1.515  13.558  22.600  0.00  0.00    +0.000 A 
ATOM     25  C   UNL     1      -2.859  13.601  22.215  0.00  0.00    +0.000 A 
ATOM     26  C   UNL     1      -3.823  14.308  22.930  0.00  0.00    +0.000 A 
BRANCH  21  28
ATOM     27  C   UNL     1      -4.058  17.104  24.949  0.00  0.00    +0.000 C 
ATOM     28  O   UNL     1      -4.425  15.742  24.727  0.00  0.00    +0.000 OA
ENDBRANCH  21  28
BRANCH  26  29
ATOM     29  O   UNL     1      -5.025  14.315  22.282  0.00  0.00    +0.000 OA
ATOM     30  C   UNL     1      -5.555  13.056  21.900  0.00  0.00    +0.000 C 
ENDBRANCH  26  29
ENDBRANCH  20  24
ENDBRANCH   1  20
BRANCH   6  31
ATOM     31  C   UNL     1       2.892   5.711  19.549  0.00  0.00    +0.000 C 
BRANCH  31  32
ATOM     32  N   UNL     1       2.533   4.878  18.424  0.00  0.00    +0.000 N 
ATOM     33  C   UNL     1       3.148   3.671  18.212  0.00  0.00    +0.000 C 
ATOM     34  C   UNL     1       2.589   2.858  17.076  0.00  0.00    +0.000 C 
ATOM     35  O   UNL     1       4.075   3.256  18.905  0.00  0.00    +0.000 OA
ATOM     36  H   UNL     1       1.827   5.206  17.777  0.00  0.00    +0.000 HD
ENDBRANCH  31  32
ENDBRANCH   6  31
TORSDOF 7
ENDMDL
MODEL 9
REMARK VINA RESULT:      -7.1      1.356      1.385
REMARK  Name = 
REMARK  10 active torsions:
REMARK  status: ('A' for Active; 'I' for Inactive)
REMARK    1  A    between atoms: C_1  and  O_2
REMARK    2  A    between atoms: O_2  and  C_3
REMARK    3  A    between atoms: C_6  and  C_7
REMARK    4  A    between atoms: C_7  and  N_8
REMARK    5  A    between atoms: C_13  and  C_14
REMARK    6  A    between atoms: C_14  and  N_15
REMARK    7  A    between atoms: C_16  and  C_17
REMARK    8  A    between atoms: N_22  and  C_23
REMARK    9  A    between atoms: C_33  and  O_34
REMARK   10  A    between atoms: O_34  and  C_35
REMARK                            x       y       z     vdW  Elec       q    Type
REMARK                         _______ _______ _______ _____ _____    ______ ____
ROOT
ATOM      1  N   UNL     1      -0.342  10.527  20.837  0.00  0.00    +0.000 N 
ATOM      2  C   UNL     1       0.053   9.206  20.978  0.00  0.00    +0.000 A 
ATOM      3  O   UNL     1      -0.363   8.342  21.752  0.00  0.00    +0.000 OA
ATOM      4  C   UNL     1       1.099   8.879  19.958  0.00  0.00    +0.000 A 
ATOM      5  C   UNL     1       1.650   7.611  19.999  0.00  0.00    +0.000 A 
ATOM      6  C   UNL     1       2.542   7.236  19.010  0.00  0.00    +0.000 A 
ATOM      7  C   UNL     1       2.863   8.173  17.997  0.00  0.00    +0.000 A 
ATOM      8  C   UNL     1       2.294   9.482  17.952  0.00  0.00    +0.000 A 
ATOM      9  C   UNL     1       1.376   9.859  18.926  0.00  0.00    +0.000 A 
ATOM     10  N   UNL     1       0.380  10.984  18.744  0.00  0.00    +0.000 N 
ATOM     11  C   UNL     1      -0.691  10.337  19.294  0.00  0.00    +0.000 A 
ATOM     12  O   UNL     1      -1.556   9.726  18.693  0.00  0.00    +0.000 OA
ENDROOT
BRANCH  10  13
ATOM     13  C   UNL     1       0.007  11.992  19.753  0.00  0.00    +0.000 C 
ATOM     14  C   UNL     1      -1.004  13.300  18.630  0.00  0.00    +0.000 C 
ATOM     15  C   UNL     1       0.077  14.945  18.442  0.00  0.00    +0.000 C 
ATOM     16  N   UNL     1       1.591  14.769  19.584  0.00  0.00    +0.000 N 
ATOM     17  C   UNL     1       2.648  15.639  19.445  0.00  0.00    +0.000 C 
ATOM     18  O   UNL     1       3.707  15.558  20.050  0.00  0.00    +0.000 OA
ATOM     19  C   UNL     1       1.671  13.044  20.502  0.00  0.00    +0.000 C 
ENDBRANCH  10  13
BRANCH   1  20
ATOM     20  C   UNL     1      -0.435  12.417  21.749  0.00  0.00    +0.000 C 
BRANCH  20  24
ATOM     21  C   UNL     1      -3.775  15.010  23.318  0.00  0.00    +0.000 A 
ATOM     22  C   UNL     1      -2.805  14.491  24.191  0.00  0.00    +0.000 A 
ATOM     23  C   UNL     1      -1.723  13.739  23.705  0.00  0.00    +0.000 A 
ATOM     24  C   UNL     1      -1.589  13.481  22.323  0.00  0.00    +0.000 A 
ATOM     25  C   UNL     1      -2.600  13.963  21.485  0.00  0.00    +0.000 A 
ATOM     26  C   UNL     1      -3.674  14.713  21.958  0.00  0.00    +0.000 A 
BRANCH  21  28
ATOM     27  C   UNL     1      -6.018  15.074  23.994  0.00  0.00    +0.000 C 
ATOM     28  O   UNL     1      -4.813  15.798  23.740  0.00  0.00    +0.000 OA
ENDBRANCH  21  28
BRANCH  26  29
ATOM     29  O   UNL     1      -4.447  15.184  20.936  0.00  0.00    +0.000 OA
ATOM     30  C   UNL     1      -5.424  14.301  20.410  0.00  0.00    +0.000 C 
ENDBRANCH  26  29
ENDBRANCH  20  24
ENDBRANCH   1  20
BRANCH   6  31
ATOM     31  C   UNL     1       3.064   5.823  19.078  0.00  0.00    +0.000 C 
BRANCH  31  32
ATOM     32  N   UNL     1       2.026   4.840  18.856  0.00  0.00    +0.000 N 
ATOM     33  C   UNL     1       1.839   3.800  19.728  0.00  0.00    +0.000 C 
ATOM     34  C   UNL     1       0.647   2.927  19.438  0.00  0.00    +0.000 C 
ATOM     35  O   UNL     1       2.566   3.593  20.698  0.00  0.00    +0.000 OA
ATOM     36  H   UNL     1       1.445   4.920  18.031  0.00  0.00    +0.000 HD
ENDBRANCH  31  32
ENDBRANCH   6  31
TORSDOF 7
ENDMDL
