MODEL 1
REMARK VINA RESULT:      -7.5      0.000      0.000
REMARK  Name = 
REMARK  4 active torsions:
REMARK  status: ('A' for Active; 'I' for Inactive)
REMARK    1  A    between atoms: C_1  and  C_2
REMARK    2  A    between atoms: C_6  and  C_7
REMARK    3  A    between atoms: N_12  and  S_13
REMARK    4  A    between atoms: S_13  and  C_14
REMARK                            x       y       z     vdW  Elec       q    Type
REMARK                         _______ _______ _______ _____ _____    ______ ____
ROOT
ATOM      1  C   UNL     1       6.321   4.716  15.969  0.00  0.00    +0.000 C 
ATOM      2  C   UNL     1       5.507   5.988  16.279  0.00  0.00    +0.000 C 
ATOM      3  C   UNL     1       4.291   5.452  17.006  0.00  0.00    +0.000 C 
ATOM      4  C   UNL     1       3.678   6.282  18.116  0.00  0.00    +0.000 C 
ATOM      5  C   UNL     1       2.498   5.513  18.722  0.00  0.00    +0.000 C 
ATOM      6  N   UNL     1       2.871   4.124  19.125  0.00  0.00    +0.000 NA
ATOM      7  C   UNL     1       3.657   3.329  18.126  0.00  0.00    +0.000 C 
ATOM      8  C   UNL     1       4.818   4.164  17.598  0.00  0.00    +0.000 C 
ATOM      9  O   UNL     1       5.554   3.600  16.510  0.00  0.00    +0.000 OA
ENDROOT
BRANCH   1  15
ATOM     10  C   UNL     1       5.454   2.524  11.703  0.00  0.00    +0.000 C 
ATOM     11  C   UNL     1       6.245   3.523  12.489  0.00  0.00    +0.000 A 
ATOM     12  N   UNL     1       7.147   4.266  11.825  0.00  0.00    +0.000 NA
ATOM     13  C   UNL     1       7.820   5.174  12.553  0.00  0.00    +0.000 A 
ATOM     14  C   UNL     1       7.630   5.364  13.903  0.00  0.00    +0.000 A 
ATOM     15  C   UNL     1       6.685   4.559  14.508  0.00  0.00    +0.000 A 
ATOM     16  N   UNL     1       5.990   3.627  13.809  0.00  0.00    +0.000 NA
ENDBRANCH   1  15
BRANCH   6  17
ATOM     17  S   UNL     1       1.665   3.262  19.968  0.00  0.00    +0.000 S 
ATOM     18  C   UNL     1       2.506   2.767  21.463  0.00  0.00    +0.000 C 
ATOM     19  O   UNL     1       0.620   4.197  20.335  0.00  0.00    +0.000 OA
ATOM     20  O   UNL     1       1.367   2.064  19.215  0.00  0.00    +0.000 OA
ENDBRANCH   6  17
TORSDOF 2
ENDMDL
MODEL 2
REMARK VINA RESULT:      -7.5      0.845      1.079
REMARK  Name = 
REMARK  4 active torsions:
REMARK  status: ('A' for Active; 'I' for Inactive)
REMARK    1  A    between atoms: C_1  and  C_2
REMARK    2  A    between atoms: C_6  and  C_7
REMARK    3  A    between atoms: N_12  and  S_13
REMARK    4  A    between atoms: S_13  and  C_14
REMARK                            x       y       z     vdW  Elec       q    Type
REMARK                         _______ _______ _______ _____ _____    ______ ____
ROOT
ATOM      1  C   UNL     1       6.347   4.785  15.947  0.00  0.00    +0.000 C 
ATOM      2  C   UNL     1       5.523   6.058  16.228  0.00  0.00    +0.000 C 
ATOM      3  C   UNL     1       4.317   5.531  16.976  0.00  0.00    +0.000 C 
ATOM      4  C   UNL     1       3.704   6.387  18.067  0.00  0.00    +0.000 C 
ATOM      5  C   UNL     1       2.534   5.624  18.701  0.00  0.00    +0.000 C 
ATOM      6  N   UNL     1       2.922   4.250  19.139  0.00  0.00    +0.000 NA
ATOM      7  C   UNL     1       3.708   3.434  18.158  0.00  0.00    +0.000 C 
ATOM      8  C   UNL     1       4.859   4.265  17.599  0.00  0.00    +0.000 C 
ATOM      9  O   UNL     1       5.593   3.678  16.523  0.00  0.00    +0.000 OA
ENDROOT
BRANCH   1  15
ATOM     10  C   UNL     1       5.453   2.493  11.740  0.00  0.00    +0.000 C 
ATOM     11  C   UNL     1       6.251   3.508  12.497  0.00  0.00    +0.000 A 
ATOM     12  N   UNL     1       7.152   4.232  11.811  0.00  0.00    +0.000 NA
ATOM     13  C   UNL     1       7.831   5.156  12.514  0.00  0.00    +0.000 A 
ATOM     14  C   UNL     1       7.648   5.379  13.859  0.00  0.00    +0.000 A 
ATOM     15  C   UNL     1       6.704   4.592  14.489  0.00  0.00    +0.000 A 
ATOM     16  N   UNL     1       6.003   3.646  13.815  0.00  0.00    +0.000 NA
ENDBRANCH   1  15
BRANCH   6  17
ATOM     17  S   UNL     1       1.727   3.401  20.013  0.00  0.00    +0.000 S 
ATOM     18  C   UNL     1       0.995   2.356  18.764  0.00  0.00    +0.000 C 
ATOM     19  O   UNL     1       2.397   2.545  20.971  0.00  0.00    +0.000 OA
ATOM     20  O   UNL     1       0.723   4.352  20.432  0.00  0.00    +0.000 OA
ENDBRANCH   6  17
TORSDOF 2
ENDMDL
MODEL 3
REMARK VINA RESULT:      -7.3      0.718      1.557
REMARK  Name = 
REMARK  4 active torsions:
REMARK  status: ('A' for Active; 'I' for Inactive)
REMARK    1  A    between atoms: C_1  and  C_2
REMARK    2  A    between atoms: C_6  and  C_7
REMARK    3  A    between atoms: N_12  and  S_13
REMARK    4  A    between atoms: S_13  and  C_14
REMARK                            x       y       z     vdW  Elec       q    Type
REMARK                         _______ _______ _______ _____ _____    ______ ____
ROOT
ATOM      1  C   UNL     1       6.227   4.660  16.035  0.00  0.00    +0.000 C 
ATOM      2  C   UNL     1       5.459   5.937  16.435  0.00  0.00    +0.000 C 
ATOM      3  C   UNL     1       4.247   5.397  17.165  0.00  0.00    +0.000 C 
ATOM      4  C   UNL     1       3.687   6.184  18.333  0.00  0.00    +0.000 C 
ATOM      5  C   UNL     1       2.500   5.417  18.928  0.00  0.00    +0.000 C 
ATOM      6  N   UNL     1       2.841   3.998  19.247  0.00  0.00    +0.000 NA
ATOM      7  C   UNL     1       3.577   3.236  18.186  0.00  0.00    +0.000 C 
ATOM      8  C   UNL     1       4.750   4.065  17.672  0.00  0.00    +0.000 C 
ATOM      9  O   UNL     1       5.441   3.539  16.536  0.00  0.00    +0.000 OA
ENDROOT
BRANCH   1  15
ATOM     10  C   UNL     1       8.942   6.209  12.296  0.00  0.00    +0.000 C 
ATOM     11  C   UNL     1       7.862   5.305  12.802  0.00  0.00    +0.000 A 
ATOM     12  N   UNL     1       7.327   4.426  11.938  0.00  0.00    +0.000 NA
ATOM     13  C   UNL     1       6.380   3.608  12.431  0.00  0.00    +0.000 A 
ATOM     14  C   UNL     1       5.950   3.638  13.737  0.00  0.00    +0.000 A 
ATOM     15  C   UNL     1       6.549   4.572  14.559  0.00  0.00    +0.000 A 
ATOM     16  N   UNL     1       7.505   5.418  14.098  0.00  0.00    +0.000 NA
ENDBRANCH   1  15
BRANCH   6  17
ATOM     17  S   UNL     1       1.631   3.127  20.074  0.00  0.00    +0.000 S 
ATOM     18  C   UNL     1       2.398   2.785  21.649  0.00  0.00    +0.000 C 
ATOM     19  O   UNL     1       0.516   4.022  20.308  0.00  0.00    +0.000 OA
ATOM     20  O   UNL     1       1.448   1.865  19.393  0.00  0.00    +0.000 OA
ENDBRANCH   6  17
TORSDOF 2
ENDMDL
MODEL 4
REMARK VINA RESULT:      -7.2      1.083      1.846
REMARK  Name = 
REMARK  4 active torsions:
REMARK  status: ('A' for Active; 'I' for Inactive)
REMARK    1  A    between atoms: C_1  and  C_2
REMARK    2  A    between atoms: C_6  and  C_7
REMARK    3  A    between atoms: N_12  and  S_13
REMARK    4  A    between atoms: S_13  and  C_14
REMARK                            x       y       z     vdW  Elec       q    Type
REMARK                         _______ _______ _______ _____ _____    ______ ____
ROOT
ATOM      1  C   UNL     1       6.204   4.912  16.252  0.00  0.00    +0.000 C 
ATOM      2  C   UNL     1       5.374   6.177  16.549  0.00  0.00    +0.000 C 
ATOM      3  C   UNL     1       4.214   5.646  17.365  0.00  0.00    +0.000 C 
ATOM      4  C   UNL     1       3.639   6.513  18.468  0.00  0.00    +0.000 C 
ATOM      5  C   UNL     1       2.515   5.744  19.172  0.00  0.00    +0.000 C 
ATOM      6  N   UNL     1       2.946   4.385  19.617  0.00  0.00    +0.000 NA
ATOM      7  C   UNL     1       3.698   3.563  18.614  0.00  0.00    +0.000 C 
ATOM      8  C   UNL     1       4.806   4.401  17.985  0.00  0.00    +0.000 C 
ATOM      9  O   UNL     1       5.497   3.804  16.885  0.00  0.00    +0.000 OA
ENDROOT
BRANCH   1  15
ATOM     10  C   UNL     1       8.861   6.098  12.343  0.00  0.00    +0.000 C 
ATOM     11  C   UNL     1       7.778   5.257  12.945  0.00  0.00    +0.000 A 
ATOM     12  N   UNL     1       7.213   4.318  12.168  0.00  0.00    +0.000 NA
ATOM     13  C   UNL     1       6.265   3.560  12.747  0.00  0.00    +0.000 A 
ATOM     14  C   UNL     1       5.863   3.706  14.054  0.00  0.00    +0.000 A 
ATOM     15  C   UNL     1       6.493   4.695  14.783  0.00  0.00    +0.000 A 
ATOM     16  N   UNL     1       7.451   5.484  14.233  0.00  0.00    +0.000 NA
ENDBRANCH   1  15
BRANCH   6  17
ATOM     17  S   UNL     1       1.809   3.534  20.563  0.00  0.00    +0.000 S 
ATOM     18  C   UNL     1       1.578   2.025  19.638  0.00  0.00    +0.000 C 
ATOM     19  O   UNL     1       2.441   3.192  21.821  0.00  0.00    +0.000 OA
ATOM     20  O   UNL     1       0.564   4.267  20.525  0.00  0.00    +0.000 OA
ENDBRANCH   6  17
TORSDOF 2
ENDMDL
MODEL 5
REMARK VINA RESULT:      -7.0      1.158      1.909
REMARK  Name = 
REMARK  4 active torsions:
REMARK  status: ('A' for Active; 'I' for Inactive)
REMARK    1  A    between atoms: C_1  and  C_2
REMARK    2  A    between atoms: C_6  and  C_7
REMARK    3  A    between atoms: N_12  and  S_13
REMARK    4  A    between atoms: S_13  and  C_14
REMARK                            x       y       z     vdW  Elec       q    Type
REMARK                         _______ _______ _______ _____ _____    ______ ____
ROOT
ATOM      1  C   UNL     1       6.368   4.757  16.121  0.00  0.00    +0.000 C 
ATOM      2  C   UNL     1       5.500   5.971  16.512  0.00  0.00    +0.000 C 
ATOM      3  C   UNL     1       4.394   5.353  17.341  0.00  0.00    +0.000 C 
ATOM      4  C   UNL     1       3.828   6.139  18.506  0.00  0.00    +0.000 C 
ATOM      5  C   UNL     1       2.761   5.291  19.210  0.00  0.00    +0.000 C 
ATOM      6  N   UNL     1       3.262   3.930  19.568  0.00  0.00    +0.000 NA
ATOM      7  C   UNL     1       4.007   3.191  18.498  0.00  0.00    +0.000 C 
ATOM      8  C   UNL     1       5.057   4.104  17.874  0.00  0.00    +0.000 C 
ATOM      9  O   UNL     1       5.729   3.592  16.721  0.00  0.00    +0.000 OA
ENDROOT
BRANCH   1  15
ATOM     10  C   UNL     1       8.840   6.232  12.188  0.00  0.00    +0.000 C 
ATOM     11  C   UNL     1       7.807   5.325  12.783  0.00  0.00    +0.000 A 
ATOM     12  N   UNL     1       7.243   4.409  11.978  0.00  0.00    +0.000 NA
ATOM     13  C   UNL     1       6.342   3.591  12.549  0.00  0.00    +0.000 A 
ATOM     14  C   UNL     1       5.984   3.656  13.875  0.00  0.00    +0.000 A 
ATOM     15  C   UNL     1       6.609   4.627  14.633  0.00  0.00    +0.000 A 
ATOM     16  N   UNL     1       7.520   5.474  14.092  0.00  0.00    +0.000 NA
ENDBRANCH   1  15
BRANCH   6  17
ATOM     17  S   UNL     1       2.196   2.987  20.510  0.00  0.00    +0.000 S 
ATOM     18  C   UNL     1       0.703   3.965  20.510  0.00  0.00    +0.000 C 
ATOM     19  O   UNL     1       1.925   1.762  19.786  0.00  0.00    +0.000 OA
ATOM     20  O   UNL     1       2.704   2.962  21.863  0.00  0.00    +0.000 OA
ENDBRANCH   6  17
TORSDOF 2
ENDMDL
MODEL 6
REMARK VINA RESULT:      -7.0      3.799      5.199
REMARK  Name = 
REMARK  4 active torsions:
REMARK  status: ('A' for Active; 'I' for Inactive)
REMARK    1  A    between atoms: C_1  and  C_2
REMARK    2  A    between atoms: C_6  and  C_7
REMARK    3  A    between atoms: N_12  and  S_13
REMARK    4  A    between atoms: S_13  and  C_14
REMARK                            x       y       z     vdW  Elec       q    Type
REMARK                         _______ _______ _______ _____ _____    ______ ____
ROOT
ATOM      1  C   UNL     1       3.663   5.692  17.650  0.00  0.00    +0.000 C 
ATOM      2  C   UNL     1       3.254   5.360  19.100  0.00  0.00    +0.000 C 
ATOM      3  C   UNL     1       2.780   6.693  19.639  0.00  0.00    +0.000 C 
ATOM      4  C   UNL     1       1.635   6.713  20.633  0.00  0.00    +0.000 C 
ATOM      5  C   UNL     1       1.312   8.168  20.993  0.00  0.00    +0.000 C 
ATOM      6  N   UNL     1       1.095   9.019  19.784  0.00  0.00    +0.000 NA
ATOM      7  C   UNL     1       2.104   8.882  18.684  0.00  0.00    +0.000 C 
ATOM      8  C   UNL     1       2.343   7.407  18.381  0.00  0.00    +0.000 C 
ATOM      9  O   UNL     1       3.408   7.117  17.473  0.00  0.00    +0.000 OA
ENDROOT
BRANCH   1  15
ATOM     10  C   UNL     1       6.944   4.740  14.175  0.00  0.00    +0.000 C 
ATOM     11  C   UNL     1       6.621   4.845  15.633  0.00  0.00    +0.000 A 
ATOM     12  N   UNL     1       7.621   4.651  16.510  0.00  0.00    +0.000 NA
ATOM     13  C   UNL     1       7.305   4.782  17.810  0.00  0.00    +0.000 A 
ATOM     14  C   UNL     1       6.043   5.091  18.262  0.00  0.00    +0.000 A 
ATOM     15  C   UNL     1       5.073   5.272  17.296  0.00  0.00    +0.000 A 
ATOM     16  N   UNL     1       5.351   5.144  15.975  0.00  0.00    +0.000 NA
ENDBRANCH   1  15
BRANCH   6  17
ATOM     17  S   UNL     1       0.558  10.607  20.099  0.00  0.00    +0.000 S 
ATOM     18  C   UNL     1       1.392  11.561  18.841  0.00  0.00    +0.000 C 
ATOM     19  O   UNL     1      -0.864  10.661  19.828  0.00  0.00    +0.000 OA
ATOM     20  O   UNL     1       1.092  11.010  21.381  0.00  0.00    +0.000 OA
ENDBRANCH   6  17
TORSDOF 2
ENDMDL
MODEL 7
REMARK VINA RESULT:      -6.8      5.162      7.423
REMARK  Name = 
REMARK  4 active torsions:
REMARK  status: ('A' for Active; 'I' for Inactive)
REMARK    1  A    between atoms: C_1  and  C_2
REMARK    2  A    between atoms: C_6  and  C_7
REMARK    3  A    between atoms: N_12  and  S_13
REMARK    4  A    between atoms: S_13  and  C_14
REMARK                            x       y       z     vdW  Elec       q    Type
REMARK                         _______ _______ _______ _____ _____    ______ ____
ROOT
ATOM      1  C   UNL     1       2.576   6.189  19.723  0.00  0.00    +0.000 C 
ATOM      2  C   UNL     1       2.567   6.940  18.376  0.00  0.00    +0.000 C 
ATOM      3  C   UNL     1       1.675   8.132  18.650  0.00  0.00    +0.000 C 
ATOM      4  C   UNL     1       1.989   9.451  17.972  0.00  0.00    +0.000 C 
ATOM      5  C   UNL     1       0.979  10.506  18.439  0.00  0.00    +0.000 C 
ATOM      6  N   UNL     1       0.887  10.585  19.928  0.00  0.00    +0.000 NA
ATOM      7  C   UNL     1       0.774   9.280  20.659  0.00  0.00    +0.000 C 
ATOM      8  C   UNL     1       1.829   8.306  20.144  0.00  0.00    +0.000 C 
ATOM      9  O   UNL     1       1.732   6.964  20.625  0.00  0.00    +0.000 OA
ENDROOT
BRANCH   1  15
ATOM     10  C   UNL     1       3.594   1.752  17.985  0.00  0.00    +0.000 C 
ATOM     11  C   UNL     1       2.697   2.629  18.801  0.00  0.00    +0.000 A 
ATOM     12  N   UNL     1       1.675   2.046  19.450  0.00  0.00    +0.000 NA
ATOM     13  C   UNL     1       0.906   2.856  20.199  0.00  0.00    +0.000 A 
ATOM     14  C   UNL     1       1.115   4.211  20.319  0.00  0.00    +0.000 A 
ATOM     15  C   UNL     1       2.186   4.731  19.618  0.00  0.00    +0.000 A 
ATOM     16  N   UNL     1       2.982   3.946  18.848  0.00  0.00    +0.000 NA
ENDBRANCH   1  15
BRANCH   6  17
ATOM     17  S   UNL     1      -0.082  11.853  20.531  0.00  0.00    +0.000 S 
ATOM     18  C   UNL     1       0.602  13.289  19.721  0.00  0.00    +0.000 C 
ATOM     19  O   UNL     1      -1.429  11.661  20.034  0.00  0.00    +0.000 OA
ATOM     20  O   UNL     1       0.184  11.980  21.947  0.00  0.00    +0.000 OA
ENDBRANCH   6  17
TORSDOF 2
ENDMDL
MODEL 8
REMARK VINA RESULT:      -6.8      4.104      5.746
REMARK  Name = 
REMARK  4 active torsions:
REMARK  status: ('A' for Active; 'I' for Inactive)
REMARK    1  A    between atoms: C_1  and  C_2
REMARK    2  A    between atoms: C_6  and  C_7
REMARK    3  A    between atoms: N_12  and  S_13
REMARK    4  A    between atoms: S_13  and  C_14
REMARK                            x       y       z     vdW  Elec       q    Type
REMARK                         _______ _______ _______ _____ _____    ______ ____
ROOT
ATOM      1  C   UNL     1       3.533   5.940  17.713  0.00  0.00    +0.000 C 
ATOM      2  C   UNL     1       3.072   5.591  19.143  0.00  0.00    +0.000 C 
ATOM      3  C   UNL     1       2.603   6.923  19.689  0.00  0.00    +0.000 C 
ATOM      4  C   UNL     1       1.427   6.947  20.646  0.00  0.00    +0.000 C 
ATOM      5  C   UNL     1       1.117   8.402  21.019  0.00  0.00    +0.000 C 
ATOM      6  N   UNL     1       0.953   9.276  19.819  0.00  0.00    +0.000 NA
ATOM      7  C   UNL     1       1.995   9.140  18.749  0.00  0.00    +0.000 C 
ATOM      8  C   UNL     1       2.219   7.665  18.429  0.00  0.00    +0.000 C 
ATOM      9  O   UNL     1       3.308   7.371  17.551  0.00  0.00    +0.000 OA
ENDROOT
BRANCH   1  15
ATOM     10  C   UNL     1       8.178   5.612  19.149  0.00  0.00    +0.000 C 
ATOM     11  C   UNL     1       7.142   5.337  18.105  0.00  0.00    +0.000 A 
ATOM     12  N   UNL     1       7.520   4.645  17.017  0.00  0.00    +0.000 NA
ATOM     13  C   UNL     1       6.558   4.388  16.112  0.00  0.00    +0.000 A 
ATOM     14  C   UNL     1       5.251   4.795  16.250  0.00  0.00    +0.000 A 
ATOM     15  C   UNL     1       4.947   5.502  17.397  0.00  0.00    +0.000 A 
ATOM     16  N   UNL     1       5.890   5.785  18.331  0.00  0.00    +0.000 NA
ENDBRANCH   1  15
BRANCH   6  17
ATOM     17  S   UNL     1       0.433  10.868  20.143  0.00  0.00    +0.000 S 
ATOM     18  C   UNL     1       1.231  11.812  18.854  0.00  0.00    +0.000 C 
ATOM     19  O   UNL     1      -0.997  10.926  19.917  0.00  0.00    +0.000 OA
ATOM     20  O   UNL     1       1.009  11.274  21.405  0.00  0.00    +0.000 OA
ENDBRANCH   6  17
TORSDOF 2
ENDMDL
MODEL 9
REMARK VINA RESULT:      -6.7      4.109      5.374
REMARK  Name = 
REMARK  4 active torsions:
REMARK  status: ('A' for Active; 'I' for Inactive)
REMARK    1  A    between atoms: C_1  and  C_2
REMARK    2  A    between atoms: C_6  and  C_7
REMARK    3  A    between atoms: N_12  and  S_13
REMARK    4  A    between atoms: S_13  and  C_14
REMARK                            x       y       z     vdW  Elec       q    Type
REMARK                         _______ _______ _______ _____ _____    ______ ____
ROOT
ATOM      1  C   UNL     1       3.612   5.814  17.767  0.00  0.00    +0.000 C 
ATOM      2  C   UNL     1       3.204   5.658  19.246  0.00  0.00    +0.000 C 
ATOM      3  C   UNL     1       2.708   7.041  19.615  0.00  0.00    +0.000 C 
ATOM      4  C   UNL     1       1.560   7.167  20.596  0.00  0.00    +0.000 C 
ATOM      5  C   UNL     1       1.214   8.651  20.772  0.00  0.00    +0.000 C 
ATOM      6  N   UNL     1       0.989   9.341  19.466  0.00  0.00    +0.000 NA
ATOM      7  C   UNL     1       2.003   9.084  18.393  0.00  0.00    +0.000 C 
ATOM      8  C   UNL     1       2.265   7.586  18.276  0.00  0.00    +0.000 C 
ATOM      9  O   UNL     1       3.337   7.201  17.413  0.00  0.00    +0.000 OA
ENDROOT
BRANCH   1  15
ATOM     10  C   UNL     1       6.939   4.557  14.435  0.00  0.00    +0.000 C 
ATOM     11  C   UNL     1       6.600   4.801  15.872  0.00  0.00    +0.000 A 
ATOM     12  N   UNL     1       7.592   4.703  16.774  0.00  0.00    +0.000 NA
ATOM     13  C   UNL     1       7.260   4.958  18.052  0.00  0.00    +0.000 A 
ATOM     14  C   UNL     1       5.991   5.298  18.459  0.00  0.00    +0.000 A 
ATOM     15  C   UNL     1       5.030   5.374  17.470  0.00  0.00    +0.000 A 
ATOM     16  N   UNL     1       5.324   5.120  16.170  0.00  0.00    +0.000 NA
ENDBRANCH   1  15
BRANCH   6  17
ATOM     17  S   UNL     1       0.428  10.948  19.581  0.00  0.00    +0.000 S 
ATOM     18  C   UNL     1       0.040  11.108  21.316  0.00  0.00    +0.000 C 
ATOM     19  O   UNL     1       1.539  11.832  19.290  0.00  0.00    +0.000 OA
ATOM     20  O   UNL     1      -0.813  11.038  18.845  0.00  0.00    +0.000 OA
ENDBRANCH   6  17
TORSDOF 2
ENDMDL
