MODEL 1
REMARK VINA RESULT:      -6.7      0.000      0.000
REMARK  Name = 
REMARK  13 active torsions:
REMARK  status: ('A' for Active; 'I' for Inactive)
REMARK    1  A    between atoms: C_2  and  C_3
REMARK    2  A    between atoms: C_2  and  C_9
REMARK    3  A    between atoms: C_3  and  C_4
REMARK    4  A    between atoms: C_4  and  C_5
REMARK    5  A    between atoms: C_6  and  C_7
REMARK    6  A    between atoms: C_6  and  C_8
REMARK    7  A    between atoms: C_12  and  C_13
REMARK    8  A    between atoms: C_15  and  O_16
REMARK    9  A    between atoms: C_19  and  C_20
REMARK   10  A    between atoms: C_23  and  O_24
REMARK   11  A    between atoms: C_25  and  C_26
REMARK   12  A    between atoms: C_25  and  C_27
REMARK   13  A    between atoms: C_31  and  C_32
REMARK                            x       y       z     vdW  Elec       q    Type
REMARK                         _______ _______ _______ _____ _____    ______ ____
ROOT
ATOM      1  C   UNL     1       9.884  14.463  19.091  0.00  0.00    +0.000 C 
ATOM      2  C   UNL     1      10.257  15.446  20.238  0.00  0.00    +0.000 C 
ATOM      3  C   UNL     1       8.974  16.200  20.611  0.00  0.00    +0.000 C 
ATOM      4  C   UNL     1       7.827  15.290  20.125  0.00  0.00    +0.000 C 
ATOM      5  C   UNL     1       7.721  14.122  21.162  0.00  0.00    +0.000 C 
ATOM      6  C   UNL     1       8.416  14.805  18.773  0.00  0.00    +0.000 C 
ATOM      7  C   UNL     1       7.528  13.748  18.116  0.00  0.00    +0.000 C 
ATOM      8  C   UNL     1       6.128  14.324  17.861  0.00  0.00    +0.000 C 
ATOM      9  C   UNL     1       5.479  14.920  19.131  0.00  0.00    +0.000 C 
ATOM     10  C   UNL     1       3.950  15.322  18.977  0.00  0.00    +0.000 C 
ATOM     11  C   UNL     1       3.741  16.395  17.885  0.00  0.00    +0.000 C 
ATOM     12  C   UNL     1       3.130  14.077  18.518  0.00  0.00    +0.000 C 
ATOM     13  C   UNL     1       1.618  14.271  18.615  0.00  0.00    +0.000 C 
ATOM     14  C   UNL     1       1.193  14.631  20.032  0.00  0.00    +0.000 C 
ATOM     15  C   UNL     1       1.906  15.884  20.619  0.00  0.00    +0.000 C 
ATOM     16  C   UNL     1       1.358  17.208  20.055  0.00  0.00    +0.000 C 
ATOM     17  C   UNL     1       1.572  15.900  22.140  0.00  0.00    +0.000 C 
ATOM     18  C   UNL     1       3.455  15.726  20.422  0.00  0.00    +0.000 C 
ATOM     19  C   UNL     1       4.297  16.882  21.000  0.00  0.00    +0.000 C 
ATOM     20  C   UNL     1       5.761  16.467  21.157  0.00  0.00    +0.000 C 
ATOM     21  C   UNL     1       6.421  15.991  19.839  0.00  0.00    +0.000 C 
ATOM     22  C   UNL     1       6.630  17.267  18.966  0.00  0.00    +0.000 C 
ENDROOT
BRANCH   1  24
ATOM     23  C   UNL     1      10.799  15.664  17.129  0.00  0.00    +0.000 C 
ATOM     24  C   UNL     1      10.814  14.567  17.889  0.00  0.00    +0.000 C 
BRANCH  24  25
ATOM     25  C   UNL     1      11.754  13.387  17.650  0.00  0.00    +0.000 C 
BRANCH  25  26
ATOM     26  C   UNL     1      11.463  12.174  18.527  0.00  0.00    +0.000 C 
BRANCH  26  27
ATOM     27  C   UNL     1      10.430  11.232  17.983  0.00  0.00    +0.000 C 
ATOM     28  C   UNL     1       9.502  10.659  18.765  0.00  0.00    +0.000 C 
ATOM     29  C   UNL     1       9.409  10.899  20.251  0.00  0.00    +0.000 C 
ATOM     30  C   UNL     1       8.475   9.714  18.210  0.00  0.00    +0.000 C 
ENDBRANCH  26  27
ENDBRANCH  25  26
ENDBRANCH  24  25
ENDBRANCH   1  24
BRANCH   7  31
ATOM     31  O   UNL     1       8.030  13.315  16.859  0.00  0.00    +0.000 OA
ATOM     32  H   UNL     1       7.516  12.546  16.564  0.00  0.00    +0.000 HD
ENDBRANCH   7  31
BRANCH  14  33
ATOM     33  O   UNL     1      -0.226  14.763  20.073  0.00  0.00    +0.000 OA
ATOM     34  H   UNL     1      -0.505  14.754  21.004  0.00  0.00    +0.000 HD
ENDBRANCH  14  33
TORSDOF 6
ENDMDL
MODEL 2
REMARK VINA RESULT:      -6.7      7.111      9.037
REMARK  Name = 
REMARK  13 active torsions:
REMARK  status: ('A' for Active; 'I' for Inactive)
REMARK    1  A    between atoms: C_2  and  C_3
REMARK    2  A    between atoms: C_2  and  C_9
REMARK    3  A    between atoms: C_3  and  C_4
REMARK    4  A    between atoms: C_4  and  C_5
REMARK    5  A    between atoms: C_6  and  C_7
REMARK    6  A    between atoms: C_6  and  C_8
REMARK    7  A    between atoms: C_12  and  C_13
REMARK    8  A    between atoms: C_15  and  O_16
REMARK    9  A    between atoms: C_19  and  C_20
REMARK   10  A    between atoms: C_23  and  O_24
REMARK   11  A    between atoms: C_25  and  C_26
REMARK   12  A    between atoms: C_25  and  C_27
REMARK   13  A    between atoms: C_31  and  C_32
REMARK                            x       y       z     vdW  Elec       q    Type
REMARK                         _______ _______ _______ _____ _____    ______ ____
ROOT
ATOM      1  C   UNL     1       1.111   8.590  19.372  0.00  0.00    +0.000 C 
ATOM      2  C   UNL     1       1.849   8.393  20.728  0.00  0.00    +0.000 C 
ATOM      3  C   UNL     1       1.289   9.444  21.695  0.00  0.00    +0.000 C 
ATOM      4  C   UNL     1      -0.089   9.820  21.113  0.00  0.00    +0.000 C 
ATOM      5  C   UNL     1      -1.054   8.640  21.468  0.00  0.00    +0.000 C 
ATOM      6  C   UNL     1       0.251   9.848  19.598  0.00  0.00    +0.000 C 
ATOM      7  C   UNL     1      -0.998  10.063  18.742  0.00  0.00    +0.000 C 
ATOM      8  C   UNL     1      -1.668  11.392  19.117  0.00  0.00    +0.000 C 
ATOM      9  C   UNL     1      -1.972  11.511  20.627  0.00  0.00    +0.000 C 
ATOM     10  C   UNL     1      -2.865  12.760  21.036  0.00  0.00    +0.000 C 
ATOM     11  C   UNL     1      -2.192  14.100  20.661  0.00  0.00    +0.000 C 
ATOM     12  C   UNL     1      -4.208  12.719  20.244  0.00  0.00    +0.000 C 
ATOM     13  C   UNL     1      -5.255  13.701  20.763  0.00  0.00    +0.000 C 
ATOM     14  C   UNL     1      -5.558  13.466  22.236  0.00  0.00    +0.000 C 
ATOM     15  C   UNL     1      -4.310  13.512  23.166  0.00  0.00    +0.000 C 
ATOM     16  C   UNL     1      -3.814  14.945  23.436  0.00  0.00    +0.000 C 
ATOM     17  C   UNL     1      -4.775  12.956  24.544  0.00  0.00    +0.000 C 
ATOM     18  C   UNL     1      -3.197  12.579  22.569  0.00  0.00    +0.000 C 
ATOM     19  C   UNL     1      -1.910  12.493  23.415  0.00  0.00    +0.000 C 
ATOM     20  C   UNL     1      -1.076  11.274  23.018  0.00  0.00    +0.000 C 
ATOM     21  C   UNL     1      -0.681  11.246  21.522  0.00  0.00    +0.000 C 
ATOM     22  C   UNL     1       0.407  12.348  21.334  0.00  0.00    +0.000 C 
ENDROOT
BRANCH   1  24
ATOM     23  C   UNL     1       2.556   9.889  17.839  0.00  0.00    +0.000 C 
ATOM     24  C   UNL     1       2.060   8.700  18.186  0.00  0.00    +0.000 C 
BRANCH  24  25
ATOM     25  C   UNL     1       2.418   7.395  17.477  0.00  0.00    +0.000 C 
BRANCH  25  26
ATOM     26  C   UNL     1       2.851   6.276  18.417  0.00  0.00    +0.000 C 
BRANCH  26  27
ATOM     27  C   UNL     1       2.241   4.936  18.131  0.00  0.00    +0.000 C 
ATOM     28  C   UNL     1       1.591   4.231  19.069  0.00  0.00    +0.000 C 
ATOM     29  C   UNL     1       1.414   4.708  20.489  0.00  0.00    +0.000 C 
ATOM     30  C   UNL     1       0.988   2.887  18.773  0.00  0.00    +0.000 C 
ENDBRANCH  26  27
ENDBRANCH  25  26
ENDBRANCH  24  25
ENDBRANCH   1  24
BRANCH   7  31
ATOM     31  O   UNL     1      -0.705  10.126  17.353  0.00  0.00    +0.000 OA
ATOM     32  H   UNL     1      -1.223  10.845  16.957  0.00  0.00    +0.000 HD
ENDBRANCH   7  31
BRANCH  14  33
ATOM     33  O   UNL     1      -6.565  14.383  22.658  0.00  0.00    +0.000 OA
ATOM     34  H   UNL     1      -6.466  15.200  22.143  0.00  0.00    +0.000 HD
ENDBRANCH  14  33
TORSDOF 6
ENDMDL
MODEL 3
REMARK VINA RESULT:      -6.4      7.043      8.936
REMARK  Name = 
REMARK  13 active torsions:
REMARK  status: ('A' for Active; 'I' for Inactive)
REMARK    1  A    between atoms: C_2  and  C_3
REMARK    2  A    between atoms: C_2  and  C_9
REMARK    3  A    between atoms: C_3  and  C_4
REMARK    4  A    between atoms: C_4  and  C_5
REMARK    5  A    between atoms: C_6  and  C_7
REMARK    6  A    between atoms: C_6  and  C_8
REMARK    7  A    between atoms: C_12  and  C_13
REMARK    8  A    between atoms: C_15  and  O_16
REMARK    9  A    between atoms: C_19  and  C_20
REMARK   10  A    between atoms: C_23  and  O_24
REMARK   11  A    between atoms: C_25  and  C_26
REMARK   12  A    between atoms: C_25  and  C_27
REMARK   13  A    between atoms: C_31  and  C_32
REMARK                            x       y       z     vdW  Elec       q    Type
REMARK                         _______ _______ _______ _____ _____    ______ ____
ROOT
ATOM      1  C   UNL     1       1.140   8.815  19.342  0.00  0.00    +0.000 C 
ATOM      2  C   UNL     1       1.885   8.628  20.696  0.00  0.00    +0.000 C 
ATOM      3  C   UNL     1       1.265   9.623  21.685  0.00  0.00    +0.000 C 
ATOM      4  C   UNL     1      -0.131   9.935  21.107  0.00  0.00    +0.000 C 
ATOM      5  C   UNL     1      -1.030   8.695  21.431  0.00  0.00    +0.000 C 
ATOM      6  C   UNL     1       0.211  10.018  19.594  0.00  0.00    +0.000 C 
ATOM      7  C   UNL     1      -1.047  10.183  18.739  0.00  0.00    +0.000 C 
ATOM      8  C   UNL     1      -1.791  11.464  19.143  0.00  0.00    +0.000 C 
ATOM      9  C   UNL     1      -2.104  11.529  20.654  0.00  0.00    +0.000 C 
ATOM     10  C   UNL     1      -3.067  12.717  21.089  0.00  0.00    +0.000 C 
ATOM     11  C   UNL     1      -2.468  14.101  20.748  0.00  0.00    +0.000 C 
ATOM     12  C   UNL     1      -4.403  12.620  20.291  0.00  0.00    +0.000 C 
ATOM     13  C   UNL     1      -5.504  13.530  20.830  0.00  0.00    +0.000 C 
ATOM     14  C   UNL     1      -5.797  13.243  22.296  0.00  0.00    +0.000 C 
ATOM     15  C   UNL     1      -4.555  13.336  23.231  0.00  0.00    +0.000 C 
ATOM     16  C   UNL     1      -4.141  14.789  23.537  0.00  0.00    +0.000 C 
ATOM     17  C   UNL     1      -4.992  12.723  24.594  0.00  0.00    +0.000 C 
ATOM     18  C   UNL     1      -3.391  12.482  22.617  0.00  0.00    +0.000 C 
ATOM     19  C   UNL     1      -2.103  12.447  23.465  0.00  0.00    +0.000 C 
ATOM     20  C   UNL     1      -1.202  11.286  23.043  0.00  0.00    +0.000 C 
ATOM     21  C   UNL     1      -0.802  11.316  21.547  0.00  0.00    +0.000 C 
ATOM     22  C   UNL     1       0.223  12.481  21.389  0.00  0.00    +0.000 C 
ENDROOT
BRANCH   1  24
ATOM     23  C   UNL     1       2.510  10.229  17.841  0.00  0.00    +0.000 C 
ATOM     24  C   UNL     1       2.084   9.006  18.162  0.00  0.00    +0.000 C 
BRANCH  24  25
ATOM     25  C   UNL     1       2.521   7.740  17.428  0.00  0.00    +0.000 C 
BRANCH  25  26
ATOM     26  C   UNL     1       3.135   6.678  18.333  0.00  0.00    +0.000 C 
BRANCH  26  27
ATOM     27  C   UNL     1       2.509   5.318  18.231  0.00  0.00    +0.000 C 
ATOM     28  C   UNL     1       3.092   4.310  17.566  0.00  0.00    +0.000 C 
ATOM     29  C   UNL     1       4.418   4.441  16.860  0.00  0.00    +0.000 C 
ATOM     30  C   UNL     1       2.453   2.954  17.467  0.00  0.00    +0.000 C 
ENDBRANCH  26  27
ENDBRANCH  25  26
ENDBRANCH  24  25
ENDBRANCH   1  24
BRANCH   7  31
ATOM     31  O   UNL     1      -0.755  10.295  17.353  0.00  0.00    +0.000 OA
ATOM     32  H   UNL     1      -1.468   9.875  16.848  0.00  0.00    +0.000 HD
ENDBRANCH   7  31
BRANCH  14  33
ATOM     33  O   UNL     1      -6.855  14.092  22.736  0.00  0.00    +0.000 OA
ATOM     34  H   UNL     1      -6.776  14.941  22.270  0.00  0.00    +0.000 HD
ENDBRANCH  14  33
TORSDOF 6
ENDMDL
MODEL 4
REMARK VINA RESULT:      -6.3      7.032      8.637
REMARK  Name = 
REMARK  13 active torsions:
REMARK  status: ('A' for Active; 'I' for Inactive)
REMARK    1  A    between atoms: C_2  and  C_3
REMARK    2  A    between atoms: C_2  and  C_9
REMARK    3  A    between atoms: C_3  and  C_4
REMARK    4  A    between atoms: C_4  and  C_5
REMARK    5  A    between atoms: C_6  and  C_7
REMARK    6  A    between atoms: C_6  and  C_8
REMARK    7  A    between atoms: C_12  and  C_13
REMARK    8  A    between atoms: C_15  and  O_16
REMARK    9  A    between atoms: C_19  and  C_20
REMARK   10  A    between atoms: C_23  and  O_24
REMARK   11  A    between atoms: C_25  and  C_26
REMARK   12  A    between atoms: C_25  and  C_27
REMARK   13  A    between atoms: C_31  and  C_32
REMARK                            x       y       z     vdW  Elec       q    Type
REMARK                         _______ _______ _______ _____ _____    ______ ____
ROOT
ATOM      1  C   UNL     1       1.158   8.569  19.338  0.00  0.00    +0.000 C 
ATOM      2  C   UNL     1       1.909   8.378  20.687  0.00  0.00    +0.000 C 
ATOM      3  C   UNL     1       1.354   9.429  21.657  0.00  0.00    +0.000 C 
ATOM      4  C   UNL     1      -0.031   9.798  21.086  0.00  0.00    +0.000 C 
ATOM      5  C   UNL     1      -0.989   8.615  21.453  0.00  0.00    +0.000 C 
ATOM      6  C   UNL     1       0.295   9.824  19.568  0.00  0.00    +0.000 C 
ATOM      7  C   UNL     1      -0.963  10.032  18.724  0.00  0.00    +0.000 C 
ATOM      8  C   UNL     1      -1.635  11.360  19.102  0.00  0.00    +0.000 C 
ATOM      9  C   UNL     1      -1.925  11.480  20.614  0.00  0.00    +0.000 C 
ATOM     10  C   UNL     1      -2.820  12.727  21.028  0.00  0.00    +0.000 C 
ATOM     11  C   UNL     1      -2.155  14.069  20.644  0.00  0.00    +0.000 C 
ATOM     12  C   UNL     1      -4.170  12.679  20.249  0.00  0.00    +0.000 C 
ATOM     13  C   UNL     1      -5.215  13.658  20.775  0.00  0.00    +0.000 C 
ATOM     14  C   UNL     1      -5.504  13.425  22.252  0.00  0.00    +0.000 C 
ATOM     15  C   UNL     1      -4.247  13.478  23.170  0.00  0.00    +0.000 C 
ATOM     16  C   UNL     1      -3.755  14.914  23.433  0.00  0.00    +0.000 C 
ATOM     17  C   UNL     1      -4.697  12.924  24.554  0.00  0.00    +0.000 C 
ATOM     18  C   UNL     1      -3.136  12.548  22.565  0.00  0.00    +0.000 C 
ATOM     19  C   UNL     1      -1.842  12.469  23.400  0.00  0.00    +0.000 C 
ATOM     20  C   UNL     1      -1.006  11.252  22.998  0.00  0.00    +0.000 C 
ATOM     21  C   UNL     1      -0.625  11.223  21.498  0.00  0.00    +0.000 C 
ATOM     22  C   UNL     1       0.457  12.329  21.297  0.00  0.00    +0.000 C 
ENDROOT
BRANCH   1  24
ATOM     23  C   UNL     1       2.554   9.875  17.765  0.00  0.00    +0.000 C 
ATOM     24  C   UNL     1       2.096   8.679  18.142  0.00  0.00    +0.000 C 
BRANCH  24  25
ATOM     25  C   UNL     1       2.487   7.370  17.460  0.00  0.00    +0.000 C 
BRANCH  25  26
ATOM     26  C   UNL     1       3.887   6.880  17.812  0.00  0.00    +0.000 C 
BRANCH  26  27
ATOM     27  C   UNL     1       4.788   6.638  16.638  0.00  0.00    +0.000 C 
ATOM     28  C   UNL     1       5.045   5.405  16.177  0.00  0.00    +0.000 C 
ATOM     29  C   UNL     1       4.464   4.154  16.788  0.00  0.00    +0.000 C 
ATOM     30  C   UNL     1       5.953   5.173  15.003  0.00  0.00    +0.000 C 
ENDBRANCH  26  27
ENDBRANCH  25  26
ENDBRANCH  24  25
ENDBRANCH   1  24
BRANCH   7  31
ATOM     31  O   UNL     1      -0.683  10.094  17.332  0.00  0.00    +0.000 OA
ATOM     32  H   UNL     1      -0.976  10.954  16.992  0.00  0.00    +0.000 HD
ENDBRANCH   7  31
BRANCH  14  33
ATOM     33  O   UNL     1      -6.510  14.339  22.681  0.00  0.00    +0.000 OA
ATOM     34  H   UNL     1      -6.089  15.015  23.237  0.00  0.00    +0.000 HD
ENDBRANCH  14  33
TORSDOF 6
ENDMDL
MODEL 5
REMARK VINA RESULT:      -5.8      6.274      8.200
REMARK  Name = 
REMARK  13 active torsions:
REMARK  status: ('A' for Active; 'I' for Inactive)
REMARK    1  A    between atoms: C_2  and  C_3
REMARK    2  A    between atoms: C_2  and  C_9
REMARK    3  A    between atoms: C_3  and  C_4
REMARK    4  A    between atoms: C_4  and  C_5
REMARK    5  A    between atoms: C_6  and  C_7
REMARK    6  A    between atoms: C_6  and  C_8
REMARK    7  A    between atoms: C_12  and  C_13
REMARK    8  A    between atoms: C_15  and  O_16
REMARK    9  A    between atoms: C_19  and  C_20
REMARK   10  A    between atoms: C_23  and  O_24
REMARK   11  A    between atoms: C_25  and  C_26
REMARK   12  A    between atoms: C_25  and  C_27
REMARK   13  A    between atoms: C_31  and  C_32
REMARK                            x       y       z     vdW  Elec       q    Type
REMARK                         _______ _______ _______ _____ _____    ______ ____
ROOT
ATOM      1  C   UNL     1       1.908  10.547  18.816  0.00  0.00    +0.000 C 
ATOM      2  C   UNL     1       2.359  11.728  17.908  0.00  0.00    +0.000 C 
ATOM      3  C   UNL     1       1.413  12.899  18.202  0.00  0.00    +0.000 C 
ATOM      4  C   UNL     1       0.843  12.602  19.605  0.00  0.00    +0.000 C 
ATOM      5  C   UNL     1       1.975  12.956  20.625  0.00  0.00    +0.000 C 
ATOM      6  C   UNL     1       0.627  11.069  19.494  0.00  0.00    +0.000 C 
ATOM      7  C   UNL     1       0.188  10.462  20.827  0.00  0.00    +0.000 C 
ATOM      8  C   UNL     1      -1.126  11.108  21.289  0.00  0.00    +0.000 C 
ATOM      9  C   UNL     1      -1.053  12.650  21.349  0.00  0.00    +0.000 C 
ATOM     10  C   UNL     1      -2.302  13.355  22.034  0.00  0.00    +0.000 C 
ATOM     11  C   UNL     1      -3.620  13.050  21.286  0.00  0.00    +0.000 C 
ATOM     12  C   UNL     1      -2.488  12.793  23.477  0.00  0.00    +0.000 C 
ATOM     13  C   UNL     1      -3.471  13.597  24.324  0.00  0.00    +0.000 C 
ATOM     14  C   UNL     1      -3.054  15.058  24.426  0.00  0.00    +0.000 C 
ATOM     15  C   UNL     1      -2.861  15.770  23.055  0.00  0.00    +0.000 C 
ATOM     16  C   UNL     1      -4.194  16.137  22.375  0.00  0.00    +0.000 C 
ATOM     17  C   UNL     1      -2.155  17.123  23.364  0.00  0.00    +0.000 C 
ATOM     18  C   UNL     1      -1.932  14.886  22.149  0.00  0.00    +0.000 C 
ATOM     19  C   UNL     1      -1.618  15.493  20.767  0.00  0.00    +0.000 C 
ATOM     20  C   UNL     1      -0.402  14.813  20.136  0.00  0.00    +0.000 C 
ATOM     21  C   UNL     1      -0.555  13.281  19.974  0.00  0.00    +0.000 C 
ATOM     22  C   UNL     1      -1.577  13.061  18.815  0.00  0.00    +0.000 C 
ENDROOT
BRANCH   1  24
ATOM     23  C   UNL     1       0.537   8.987  17.468  0.00  0.00    +0.000 C 
ATOM     24  C   UNL     1       1.711   9.245  18.048  0.00  0.00    +0.000 C 
BRANCH  24  25
ATOM     25  C   UNL     1       2.919   8.315  17.963  0.00  0.00    +0.000 C 
BRANCH  25  26
ATOM     26  C   UNL     1       2.716   6.970  18.651  0.00  0.00    +0.000 C 
BRANCH  26  27
ATOM     27  C   UNL     1       3.575   5.855  18.130  0.00  0.00    +0.000 C 
ATOM     28  C   UNL     1       3.057   4.695  17.700  0.00  0.00    +0.000 C 
ATOM     29  C   UNL     1       1.579   4.397  17.701  0.00  0.00    +0.000 C 
ATOM     30  C   UNL     1       3.927   3.584  17.185  0.00  0.00    +0.000 C 
ENDBRANCH  26  27
ENDBRANCH  25  26
ENDBRANCH  24  25
ENDBRANCH   1  24
BRANCH   7  31
ATOM     31  O   UNL     1      -0.049   9.063  20.740  0.00  0.00    +0.000 OA
ATOM     32  H   UNL     1      -0.955   8.918  20.425  0.00  0.00    +0.000 HD
ENDBRANCH   7  31
BRANCH  14  33
ATOM     33  O   UNL     1      -3.983  15.752  25.256  0.00  0.00    +0.000 OA
ATOM     34  H   UNL     1      -4.872  15.633  24.881  0.00  0.00    +0.000 HD
ENDBRANCH  14  33
TORSDOF 6
ENDMDL
MODEL 6
REMARK VINA RESULT:      -5.8      6.689      8.834
REMARK  Name = 
REMARK  13 active torsions:
REMARK  status: ('A' for Active; 'I' for Inactive)
REMARK    1  A    between atoms: C_2  and  C_3
REMARK    2  A    between atoms: C_2  and  C_9
REMARK    3  A    between atoms: C_3  and  C_4
REMARK    4  A    between atoms: C_4  and  C_5
REMARK    5  A    between atoms: C_6  and  C_7
REMARK    6  A    between atoms: C_6  and  C_8
REMARK    7  A    between atoms: C_12  and  C_13
REMARK    8  A    between atoms: C_15  and  O_16
REMARK    9  A    between atoms: C_19  and  C_20
REMARK   10  A    between atoms: C_23  and  O_24
REMARK   11  A    between atoms: C_25  and  C_26
REMARK   12  A    between atoms: C_25  and  C_27
REMARK   13  A    between atoms: C_31  and  C_32
REMARK                            x       y       z     vdW  Elec       q    Type
REMARK                         _______ _______ _______ _____ _____    ______ ____
ROOT
ATOM      1  C   UNL     1       1.662  10.350  19.580  0.00  0.00    +0.000 C 
ATOM      2  C   UNL     1       1.927  11.334  18.404  0.00  0.00    +0.000 C 
ATOM      3  C   UNL     1       0.862  12.434  18.497  0.00  0.00    +0.000 C 
ATOM      4  C   UNL     1       0.395  12.406  19.967  0.00  0.00    +0.000 C 
ATOM      5  C   UNL     1       1.523  13.102  20.801  0.00  0.00    +0.000 C 
ATOM      6  C   UNL     1       0.360  10.874  20.215  0.00  0.00    +0.000 C 
ATOM      7  C   UNL     1       0.056  10.545  21.678  0.00  0.00    +0.000 C 
ATOM      8  C   UNL     1      -1.303  11.136  22.076  0.00  0.00    +0.000 C 
ATOM      9  C   UNL     1      -1.412  12.650  21.787  0.00  0.00    +0.000 C 
ATOM     10  C   UNL     1      -2.704  13.356  22.385  0.00  0.00    +0.000 C 
ATOM     11  C   UNL     1      -4.009  12.750  21.819  0.00  0.00    +0.000 C 
ATOM     12  C   UNL     1      -2.756  13.123  23.927  0.00  0.00    +0.000 C 
ATOM     13  C   UNL     1      -3.789  13.990  24.642  0.00  0.00    +0.000 C 
ATOM     14  C   UNL     1      -3.545  15.471  24.388  0.00  0.00    +0.000 C 
ATOM     15  C   UNL     1      -3.501  15.868  22.882  0.00  0.00    +0.000 C 
ATOM     16  C   UNL     1      -4.897  15.926  22.234  0.00  0.00    +0.000 C 
ATOM     17  C   UNL     1      -2.949  17.322  22.833  0.00  0.00    +0.000 C 
ATOM     18  C   UNL     1      -2.515  14.904  22.132  0.00  0.00    +0.000 C 
ATOM     19  C   UNL     1      -2.338  15.209  20.630  0.00  0.00    +0.000 C 
ATOM     20  C   UNL     1      -1.079  14.535  20.081  0.00  0.00    +0.000 C 
ATOM     21  C   UNL     1      -1.055  12.999  20.275  0.00  0.00    +0.000 C 
ATOM     22  C   UNL     1      -2.095  12.413  19.269  0.00  0.00    +0.000 C 
ENDROOT
BRANCH   1  24
ATOM     23  C   UNL     1       1.335   8.600  17.860  0.00  0.00    +0.000 C 
ATOM     24  C   UNL     1       1.587   8.894  19.137  0.00  0.00    +0.000 C 
BRANCH  24  25
ATOM     25  C   UNL     1       1.851   7.841  20.211  0.00  0.00    +0.000 C 
BRANCH  25  26
ATOM     26  C   UNL     1       2.348   6.507  19.664  0.00  0.00    +0.000 C 
BRANCH  26  27
ATOM     27  C   UNL     1       1.949   5.304  20.466  0.00  0.00    +0.000 C 
ATOM     28  C   UNL     1       1.546   4.162  19.890  0.00  0.00    +0.000 C 
ATOM     29  C   UNL     1       1.453   3.976  18.396  0.00  0.00    +0.000 C 
ATOM     30  C   UNL     1       1.144   2.965  20.703  0.00  0.00    +0.000 C 
ENDBRANCH  26  27
ENDBRANCH  25  26
ENDBRANCH  24  25
ENDBRANCH   1  24
BRANCH   7  31
ATOM     31  O   UNL     1      -0.015   9.147  21.920  0.00  0.00    +0.000 OA
ATOM     32  H   UNL     1      -0.687   8.762  21.336  0.00  0.00    +0.000 HD
ENDBRANCH   7  31
BRANCH  14  33
ATOM     33  O   UNL     1      -4.512  16.234  25.106  0.00  0.00    +0.000 OA
ATOM     34  H   UNL     1      -5.396  15.924  24.847  0.00  0.00    +0.000 HD
ENDBRANCH  14  33
TORSDOF 6
ENDMDL
MODEL 7
REMARK VINA RESULT:      -5.6      7.275     12.560
REMARK  Name = 
REMARK  13 active torsions:
REMARK  status: ('A' for Active; 'I' for Inactive)
REMARK    1  A    between atoms: C_2  and  C_3
REMARK    2  A    between atoms: C_2  and  C_9
REMARK    3  A    between atoms: C_3  and  C_4
REMARK    4  A    between atoms: C_4  and  C_5
REMARK    5  A    between atoms: C_6  and  C_7
REMARK    6  A    between atoms: C_6  and  C_8
REMARK    7  A    between atoms: C_12  and  C_13
REMARK    8  A    between atoms: C_15  and  O_16
REMARK    9  A    between atoms: C_19  and  C_20
REMARK   10  A    between atoms: C_23  and  O_24
REMARK   11  A    between atoms: C_25  and  C_26
REMARK   12  A    between atoms: C_25  and  C_27
REMARK   13  A    between atoms: C_31  and  C_32
REMARK                            x       y       z     vdW  Elec       q    Type
REMARK                         _______ _______ _______ _____ _____    ______ ____
ROOT
ATOM      1  C   UNL     1      -6.628  14.258  22.234  0.00  0.00    +0.000 C 
ATOM      2  C   UNL     1      -6.843  14.755  20.775  0.00  0.00    +0.000 C 
ATOM      3  C   UNL     1      -5.537  14.483  20.017  0.00  0.00    +0.000 C 
ATOM      4  C   UNL     1      -4.838  13.369  20.823  0.00  0.00    +0.000 C 
ATOM      5  C   UNL     1      -5.589  12.039  20.479  0.00  0.00    +0.000 C 
ATOM      6  C   UNL     1      -5.145  13.843  22.270  0.00  0.00    +0.000 C 
ATOM      7  C   UNL     1      -4.679  12.823  23.310  0.00  0.00    +0.000 C 
ATOM      8  C   UNL     1      -3.166  12.597  23.180  0.00  0.00    +0.000 C 
ATOM      9  C   UNL     1      -2.734  12.205  21.750  0.00  0.00    +0.000 C 
ATOM     10  C   UNL     1      -1.221  11.739  21.609  0.00  0.00    +0.000 C 
ATOM     11  C   UNL     1      -0.233  12.849  22.031  0.00  0.00    +0.000 C 
ATOM     12  C   UNL     1      -0.956  10.541  22.572  0.00  0.00    +0.000 C 
ATOM     13  C   UNL     1       0.371   9.832  22.315  0.00  0.00    +0.000 C 
ATOM     14  C   UNL     1       0.465   9.327  20.881  0.00  0.00    +0.000 C 
ATOM     15  C   UNL     1       0.255  10.426  19.797  0.00  0.00    +0.000 C 
ATOM     16  C   UNL     1       1.483  11.338  19.619  0.00  0.00    +0.000 C 
ATOM     17  C   UNL     1       0.085   9.673  18.445  0.00  0.00    +0.000 C 
ATOM     18  C   UNL     1      -1.058  11.220  20.126  0.00  0.00    +0.000 C 
ATOM     19  C   UNL     1      -1.417  12.319  19.105  0.00  0.00    +0.000 C 
ATOM     20  C   UNL     1      -2.881  12.738  19.245  0.00  0.00    +0.000 C 
ATOM     21  C   UNL     1      -3.255  13.244  20.660  0.00  0.00    +0.000 C 
ATOM     22  C   UNL     1      -2.591  14.648  20.814  0.00  0.00    +0.000 C 
ENDROOT
BRANCH   1  24
ATOM     23  C   UNL     1      -7.915  15.012  24.210  0.00  0.00    +0.000 C 
ATOM     24  C   UNL     1      -7.001  15.300  23.281  0.00  0.00    +0.000 C 
BRANCH  24  25
ATOM     25  C   UNL     1      -6.252  16.629  23.216  0.00  0.00    +0.000 C 
BRANCH  25  26
ATOM     26  C   UNL     1      -5.526  16.997  24.506  0.00  0.00    +0.000 C 
BRANCH  26  27
ATOM     27  C   UNL     1      -4.209  16.308  24.710  0.00  0.00    +0.000 C 
ATOM     28  C   UNL     1      -3.132  16.588  23.960  0.00  0.00    +0.000 C 
ATOM     29  C   UNL     1      -3.139  17.607  22.849  0.00  0.00    +0.000 C 
ATOM     30  C   UNL     1      -1.819  15.888  24.170  0.00  0.00    +0.000 C 
ENDBRANCH  26  27
ENDBRANCH  25  26
ENDBRANCH  24  25
ENDBRANCH   1  24
BRANCH   7  31
ATOM     31  O   UNL     1      -4.918  13.253  24.643  0.00  0.00    +0.000 OA
ATOM     32  H   UNL     1      -5.116  12.478  25.191  0.00  0.00    +0.000 HD
ENDBRANCH   7  31
BRANCH  14  33
ATOM     33  O   UNL     1       1.704   8.644  20.707  0.00  0.00    +0.000 OA
ATOM     34  H   UNL     1       1.512   7.710  20.524  0.00  0.00    +0.000 HD
ENDBRANCH  14  33
TORSDOF 6
ENDMDL
MODEL 8
REMARK VINA RESULT:      -5.6      4.948     11.160
REMARK  Name = 
REMARK  13 active torsions:
REMARK  status: ('A' for Active; 'I' for Inactive)
REMARK    1  A    between atoms: C_2  and  C_3
REMARK    2  A    between atoms: C_2  and  C_9
REMARK    3  A    between atoms: C_3  and  C_4
REMARK    4  A    between atoms: C_4  and  C_5
REMARK    5  A    between atoms: C_6  and  C_7
REMARK    6  A    between atoms: C_6  and  C_8
REMARK    7  A    between atoms: C_12  and  C_13
REMARK    8  A    between atoms: C_15  and  O_16
REMARK    9  A    between atoms: C_19  and  C_20
REMARK   10  A    between atoms: C_23  and  O_24
REMARK   11  A    between atoms: C_25  and  C_26
REMARK   12  A    between atoms: C_25  and  C_27
REMARK   13  A    between atoms: C_31  and  C_32
REMARK                            x       y       z     vdW  Elec       q    Type
REMARK                         _______ _______ _______ _____ _____    ______ ____
ROOT
ATOM      1  C   UNL     1      -4.318  13.795  23.340  0.00  0.00    +0.000 C 
ATOM      2  C   UNL     1      -3.780  12.419  23.827  0.00  0.00    +0.000 C 
ATOM      3  C   UNL     1      -2.490  12.145  23.044  0.00  0.00    +0.000 C 
ATOM      4  C   UNL     1      -2.008  13.535  22.580  0.00  0.00    +0.000 C 
ATOM      5  C   UNL     1      -1.377  14.224  23.836  0.00  0.00    +0.000 C 
ATOM      6  C   UNL     1      -3.365  14.180  22.192  0.00  0.00    +0.000 C 
ATOM      7  C   UNL     1      -3.204  15.655  21.818  0.00  0.00    +0.000 C 
ATOM      8  C   UNL     1      -2.240  15.791  20.630  0.00  0.00    +0.000 C 
ATOM      9  C   UNL     1      -0.879  15.102  20.874  0.00  0.00    +0.000 C 
ATOM     10  C   UNL     1       0.232  15.403  19.778  0.00  0.00    +0.000 C 
ATOM     11  C   UNL     1      -0.202  14.936  18.371  0.00  0.00    +0.000 C 
ATOM     12  C   UNL     1       0.449  16.944  19.670  0.00  0.00    +0.000 C 
ATOM     13  C   UNL     1       1.685  17.332  18.864  0.00  0.00    +0.000 C 
ATOM     14  C   UNL     1       2.947  16.708  19.444  0.00  0.00    +0.000 C 
ATOM     15  C   UNL     1       2.894  15.158  19.582  0.00  0.00    +0.000 C 
ATOM     16  C   UNL     1       3.080  14.428  18.238  0.00  0.00    +0.000 C 
ATOM     17  C   UNL     1       4.120  14.758  20.455  0.00  0.00    +0.000 C 
ATOM     18  C   UNL     1       1.568  14.759  20.320  0.00  0.00    +0.000 C 
ATOM     19  C   UNL     1       1.401  13.245  20.566  0.00  0.00    +0.000 C 
ATOM     20  C   UNL     1       0.342  12.979  21.637  0.00  0.00    +0.000 C 
ATOM     21  C   UNL     1      -1.047  13.577  21.305  0.00  0.00    +0.000 C 
ATOM     22  C   UNL     1      -1.642  12.699  20.161  0.00  0.00    +0.000 C 
ENDROOT
BRANCH   1  24
ATOM     23  C   UNL     1      -6.642  14.642  23.439  0.00  0.00    +0.000 C 
ATOM     24  C   UNL     1      -5.786  13.753  22.932  0.00  0.00    +0.000 C 
BRANCH  24  25
ATOM     25  C   UNL     1      -6.179  12.687  21.912  0.00  0.00    +0.000 C 
BRANCH  25  26
ATOM     26  C   UNL     1      -6.308  13.209  20.485  0.00  0.00    +0.000 C 
BRANCH  26  27
ATOM     27  C   UNL     1      -5.392  12.562  19.489  0.00  0.00    +0.000 C 
ATOM     28  C   UNL     1      -5.757  12.349  18.215  0.00  0.00    +0.000 C 
ATOM     29  C   UNL     1      -7.108  12.732  17.666  0.00  0.00    +0.000 C 
ATOM     30  C   UNL     1      -4.833  11.697  17.227  0.00  0.00    +0.000 C 
ENDBRANCH  26  27
ENDBRANCH  25  26
ENDBRANCH  24  25
ENDBRANCH   1  24
BRANCH   7  31
ATOM     31  O   UNL     1      -4.430  16.257  21.425  0.00  0.00    +0.000 OA
ATOM     32  H   UNL     1      -4.508  16.205  20.459  0.00  0.00    +0.000 HD
ENDBRANCH   7  31
BRANCH  14  33
ATOM     33  O   UNL     1       4.072  17.132  18.677  0.00  0.00    +0.000 OA
ATOM     34  H   UNL     1       3.965  16.798  17.771  0.00  0.00    +0.000 HD
ENDBRANCH  14  33
TORSDOF 6
ENDMDL
MODEL 9
REMARK VINA RESULT:      -5.4      5.871      7.710
REMARK  Name = 
REMARK  13 active torsions:
REMARK  status: ('A' for Active; 'I' for Inactive)
REMARK    1  A    between atoms: C_2  and  C_3
REMARK    2  A    between atoms: C_2  and  C_9
REMARK    3  A    between atoms: C_3  and  C_4
REMARK    4  A    between atoms: C_4  and  C_5
REMARK    5  A    between atoms: C_6  and  C_7
REMARK    6  A    between atoms: C_6  and  C_8
REMARK    7  A    between atoms: C_12  and  C_13
REMARK    8  A    between atoms: C_15  and  O_16
REMARK    9  A    between atoms: C_19  and  C_20
REMARK   10  A    between atoms: C_23  and  O_24
REMARK   11  A    between atoms: C_25  and  C_26
REMARK   12  A    between atoms: C_25  and  C_27
REMARK   13  A    between atoms: C_31  and  C_32
REMARK                            x       y       z     vdW  Elec       q    Type
REMARK                         _______ _______ _______ _____ _____    ______ ____
ROOT
ATOM      1  C   UNL     1       1.796  10.999  18.885  0.00  0.00    +0.000 C 
ATOM      2  C   UNL     1       2.436  12.039  17.920  0.00  0.00    +0.000 C 
ATOM      3  C   UNL     1       1.869  13.411  18.307  0.00  0.00    +0.000 C 
ATOM      4  C   UNL     1       1.402  13.245  19.769  0.00  0.00    +0.000 C 
ATOM      5  C   UNL     1       2.694  13.270  20.651  0.00  0.00    +0.000 C 
ATOM      6  C   UNL     1       0.780  11.824  19.698  0.00  0.00    +0.000 C 
ATOM      7  C   UNL     1       0.349  11.327  21.079  0.00  0.00    +0.000 C 
ATOM      8  C   UNL     1      -0.689  12.285  21.680  0.00  0.00    +0.000 C 
ATOM      9  C   UNL     1      -0.208  13.752  21.716  0.00  0.00    +0.000 C 
ATOM     10  C   UNL     1      -1.144  14.746  22.530  0.00  0.00    +0.000 C 
ATOM     11  C   UNL     1      -2.570  14.812  21.940  0.00  0.00    +0.000 C 
ATOM     12  C   UNL     1      -1.308  14.224  23.991  0.00  0.00    +0.000 C 
ATOM     13  C   UNL     1      -1.944  15.240  24.935  0.00  0.00    +0.000 C 
ATOM     14  C   UNL     1      -1.150  16.538  24.975  0.00  0.00    +0.000 C 
ATOM     15  C   UNL     1      -0.931  17.202  23.584  0.00  0.00    +0.000 C 
ATOM     16  C   UNL     1      -2.189  17.919  23.056  0.00  0.00    +0.000 C 
ATOM     17  C   UNL     1       0.134  18.317  23.798  0.00  0.00    +0.000 C 
ATOM     18  C   UNL     1      -0.375  16.124  22.588  0.00  0.00    +0.000 C 
ATOM     19  C   UNL     1      -0.068  16.656  21.173  0.00  0.00    +0.000 C 
ATOM     20  C   UNL     1       0.848  15.694  20.415  0.00  0.00    +0.000 C 
ATOM     21  C   UNL     1       0.281  14.259  20.287  0.00  0.00    +0.000 C 
ATOM     22  C   UNL     1      -0.885  14.337  19.254  0.00  0.00    +0.000 C 
ENDROOT
BRANCH   1  24
ATOM     23  C   UNL     1      -0.138   9.771  17.946  0.00  0.00    +0.000 C 
ATOM     24  C   UNL     1       1.179   9.810  18.158  0.00  0.00    +0.000 C 
BRANCH  24  25
ATOM     25  C   UNL     1       2.146   8.731  17.676  0.00  0.00    +0.000 C 
BRANCH  25  26
ATOM     26  C   UNL     1       2.410   7.632  18.699  0.00  0.00    +0.000 C 
BRANCH  26  27
ATOM     27  C   UNL     1       3.445   6.624  18.294  0.00  0.00    +0.000 C 
ATOM     28  C   UNL     1       3.120   5.378  17.915  0.00  0.00    +0.000 C 
ATOM     29  C   UNL     1       1.700   4.873  17.863  0.00  0.00    +0.000 C 
ATOM     30  C   UNL     1       4.165   4.376  17.516  0.00  0.00    +0.000 C 
ENDBRANCH  26  27
ENDBRANCH  25  26
ENDBRANCH  24  25
ENDBRANCH   1  24
BRANCH   7  31
ATOM     31  O   UNL     1      -0.254  10.041  21.034  0.00  0.00    +0.000 OA
ATOM     32  H   UNL     1      -1.139  10.124  20.645  0.00  0.00    +0.000 HD
ENDBRANCH   7  31
BRANCH  14  33
ATOM     33  O   UNL     1      -1.766  17.434  25.897  0.00  0.00    +0.000 OA
ATOM     34  H   UNL     1      -1.603  17.104  26.796  0.00  0.00    +0.000 HD
ENDBRANCH  14  33
TORSDOF 6
ENDMDL
