MODEL 1
REMARK VINA RESULT:      -7.4      0.000      0.000
REMARK  Name = 
REMARK  10 active torsions:
REMARK  status: ('A' for Active; 'I' for Inactive)
REMARK    1  A    between atoms: C_1  and  C_2
REMARK    2  A    between atoms: C_2  and  O_3
REMARK    3  A    between atoms: O_3  and  C_4
REMARK    4  A    between atoms: C_4  and  C_6
REMARK    5  A    between atoms: C_6  and  O_7
REMARK    6  A    between atoms: O_7  and  C_8
REMARK    7  A    between atoms: C_12  and  C_13
REMARK    8  A    between atoms: C_16  and  O_17
REMARK    9  A    between atoms: C_18  and  C_19
REMARK   10  A    between atoms: C_19  and  N_20
REMARK                            x       y       z     vdW  Elec       q    Type
REMARK                         _______ _______ _______ _____ _____    ______ ____
ROOT
ATOM      1  C   UNL     1       0.963  10.242  19.153  0.00  0.00    +0.000 A 
ATOM      2  C   UNL     1       1.709   9.885  17.997  0.00  0.00    +0.000 A 
ATOM      3  C   UNL     1       2.352   8.648  17.917  0.00  0.00    +0.000 A 
ATOM      4  C   UNL     1       2.234   7.776  18.995  0.00  0.00    +0.000 A 
ATOM      5  C   UNL     1       2.677   6.492  19.226  0.00  0.00    +0.000 A 
ATOM      6  N   UNL     1       2.188   6.090  20.424  0.00  0.00    +0.000 NA
ATOM      7  O   UNL     1       1.510   7.090  20.934  0.00  0.00    +0.000 OA
ATOM      8  C   UNL     1       1.513   8.108  20.107  0.00  0.00    +0.000 A 
ATOM      9  C   UNL     1       0.878   9.341  20.237  0.00  0.00    +0.000 A 
ATOM     10 CL   UNL     1      -0.047   9.726  21.680  0.00  0.00    +0.000 Cl
ENDROOT
BRANCH   5  11
ATOM     11  C   UNL     1       3.509   5.650  18.338  0.00  0.00    +0.000 A 
ATOM     12  C   UNL     1       2.961   4.532  17.690  0.00  0.00    +0.000 A 
ATOM     13  C   UNL     1       3.743   3.732  16.865  0.00  0.00    +0.000 A 
ATOM     14  C   UNL     1       5.098   4.025  16.676  0.00  0.00    +0.000 A 
ATOM     15  C   UNL     1       5.668   5.144  17.315  0.00  0.00    +0.000 A 
ATOM     16  C   UNL     1       4.862   5.962  18.131  0.00  0.00    +0.000 A 
BRANCH  14  17
ATOM     17  O   UNL     1       5.850   3.240  15.878  0.00  0.00    +0.000 OA
ATOM     18  H   UNL     1       5.454   2.629  15.239  0.00  0.00    +0.000 HD
ENDBRANCH  14  17
BRANCH  15  19
ATOM     19  C   UNL     1       7.129   5.460  17.133  0.00  0.00    +0.000 C 
BRANCH  19  20
ATOM     20  N   UNL     1       7.940   4.280  17.422  0.00  0.00    +0.000 NA
ATOM     21  H   UNL     1       7.371   3.420  17.238  0.00  0.00    +0.000 HD
ATOM     22  H   UNL     1       8.197   4.289  18.435  0.00  0.00    +0.000 HD
ENDBRANCH  19  20
ENDBRANCH  15  19
ENDBRANCH   5  11
BRANCH   1  23
ATOM     23  O   UNL     1       0.293  11.419  19.228  0.00  0.00    +0.000 OA
BRANCH  23  24
ATOM     24  C   UNL     1      -0.592  11.862  18.265  0.00  0.00    +0.000 C 
BRANCH  24  25
ATOM     25  C   UNL     1      -1.954  11.351  18.567  0.00  0.00    +0.000 C 
ATOM     26  O   UNL     1      -2.658  11.936  19.378  0.00  0.00    +0.000 OA
BRANCH  25  27
ATOM     27  O   UNL     1      -2.383  10.232  17.933  0.00  0.00    +0.000 OA
BRANCH  27  29
ATOM     28  C   UNL     1      -3.011  10.801  15.733  0.00  0.00    +0.000 C 
ATOM     29  C   UNL     1      -2.145   9.917  16.613  0.00  0.00    +0.000 C 
ENDBRANCH  27  29
ENDBRANCH  25  27
ENDBRANCH  24  25
ENDBRANCH  23  24
ENDBRANCH   1  23
TORSDOF 9
ENDMDL
MODEL 2
REMARK VINA RESULT:      -7.4      2.796      3.630
REMARK  Name = 
REMARK  10 active torsions:
REMARK  status: ('A' for Active; 'I' for Inactive)
REMARK    1  A    between atoms: C_1  and  C_2
REMARK    2  A    between atoms: C_2  and  O_3
REMARK    3  A    between atoms: O_3  and  C_4
REMARK    4  A    between atoms: C_4  and  C_6
REMARK    5  A    between atoms: C_6  and  O_7
REMARK    6  A    between atoms: O_7  and  C_8
REMARK    7  A    between atoms: C_12  and  C_13
REMARK    8  A    between atoms: C_16  and  O_17
REMARK    9  A    between atoms: C_18  and  C_19
REMARK   10  A    between atoms: C_19  and  N_20
REMARK                            x       y       z     vdW  Elec       q    Type
REMARK                         _______ _______ _______ _____ _____    ______ ____
ROOT
ATOM      1  C   UNL     1       0.677   9.953  21.492  0.00  0.00    +0.000 A 
ATOM      2  C   UNL     1       1.119   8.631  21.769  0.00  0.00    +0.000 A 
ATOM      3  C   UNL     1       1.654   7.830  20.759  0.00  0.00    +0.000 A 
ATOM      4  C   UNL     1       1.748   8.366  19.478  0.00  0.00    +0.000 A 
ATOM      5  C   UNL     1       2.261   7.892  18.290  0.00  0.00    +0.000 A 
ATOM      6  N   UNL     1       2.172   8.885  17.371  0.00  0.00    +0.000 NA
ATOM      7  O   UNL     1       1.595   9.911  17.947  0.00  0.00    +0.000 OA
ATOM      8  C   UNL     1       1.333   9.638  19.204  0.00  0.00    +0.000 A 
ATOM      9  C   UNL     1       0.772  10.460  20.177  0.00  0.00    +0.000 A 
ATOM     10 CL   UNL     1       0.258  12.094  19.785  0.00  0.00    +0.000 Cl
ENDROOT
BRANCH   5  11
ATOM     11  C   UNL     1       2.844   6.558  18.026  0.00  0.00    +0.000 A 
ATOM     12  C   UNL     1       2.046   5.405  18.077  0.00  0.00    +0.000 A 
ATOM     13  C   UNL     1       2.594   4.149  17.841  0.00  0.00    +0.000 A 
ATOM     14  C   UNL     1       3.957   4.015  17.559  0.00  0.00    +0.000 A 
ATOM     15  C   UNL     1       4.776   5.160  17.501  0.00  0.00    +0.000 A 
ATOM     16  C   UNL     1       4.208   6.430  17.719  0.00  0.00    +0.000 A 
BRANCH  14  17
ATOM     17  O   UNL     1       4.480   2.791  17.337  0.00  0.00    +0.000 OA
ATOM     18  H   UNL     1       4.839   2.536  16.475  0.00  0.00    +0.000 HD
ENDBRANCH  14  17
BRANCH  15  19
ATOM     19  C   UNL     1       6.249   5.027  17.215  0.00  0.00    +0.000 C 
BRANCH  19  20
ATOM     20  N   UNL     1       6.907   4.292  18.293  0.00  0.00    +0.000 NA
ATOM     21  H   UNL     1       7.641   3.668  17.884  0.00  0.00    +0.000 HD
ATOM     22  H   UNL     1       6.198   3.690  18.770  0.00  0.00    +0.000 HD
ENDBRANCH  19  20
ENDBRANCH  15  19
ENDBRANCH   5  11
BRANCH   1  23
ATOM     23  O   UNL     1       0.201  10.761  22.471  0.00  0.00    +0.000 OA
BRANCH  23  24
ATOM     24  C   UNL     1      -1.032  10.598  23.070  0.00  0.00    +0.000 C 
BRANCH  24  25
ATOM     25  C   UNL     1      -1.762  11.892  23.069  0.00  0.00    +0.000 C 
ATOM     26  O   UNL     1      -1.141  12.941  22.975  0.00  0.00    +0.000 OA
BRANCH  25  27
ATOM     27  O   UNL     1      -3.113  11.875  23.182  0.00  0.00    +0.000 OA
BRANCH  27  29
ATOM     28  C   UNL     1      -4.872  13.365  23.677  0.00  0.00    +0.000 C 
ATOM     29  C   UNL     1      -3.837  12.402  24.230  0.00  0.00    +0.000 C 
ENDBRANCH  27  29
ENDBRANCH  25  27
ENDBRANCH  24  25
ENDBRANCH  23  24
ENDBRANCH   1  23
TORSDOF 9
ENDMDL
MODEL 3
REMARK VINA RESULT:      -7.3      3.017      4.127
REMARK  Name = 
REMARK  10 active torsions:
REMARK  status: ('A' for Active; 'I' for Inactive)
REMARK    1  A    between atoms: C_1  and  C_2
REMARK    2  A    between atoms: C_2  and  O_3
REMARK    3  A    between atoms: O_3  and  C_4
REMARK    4  A    between atoms: C_4  and  C_6
REMARK    5  A    between atoms: C_6  and  O_7
REMARK    6  A    between atoms: O_7  and  C_8
REMARK    7  A    between atoms: C_12  and  C_13
REMARK    8  A    between atoms: C_16  and  O_17
REMARK    9  A    between atoms: C_18  and  C_19
REMARK   10  A    between atoms: C_19  and  N_20
REMARK                            x       y       z     vdW  Elec       q    Type
REMARK                         _______ _______ _______ _____ _____    ______ ____
ROOT
ATOM      1  C   UNL     1       0.660  10.034  21.441  0.00  0.00    +0.000 A 
ATOM      2  C   UNL     1       1.161   8.743  21.762  0.00  0.00    +0.000 A 
ATOM      3  C   UNL     1       1.715   7.926  20.775  0.00  0.00    +0.000 A 
ATOM      4  C   UNL     1       1.770   8.416  19.473  0.00  0.00    +0.000 A 
ATOM      5  C   UNL     1       2.286   7.918  18.296  0.00  0.00    +0.000 A 
ATOM      6  N   UNL     1       2.143   8.870  17.342  0.00  0.00    +0.000 NA
ATOM      7  O   UNL     1       1.531   9.893  17.887  0.00  0.00    +0.000 OA
ATOM      8  C   UNL     1       1.298   9.658  19.157  0.00  0.00    +0.000 A 
ATOM      9  C   UNL     1       0.715  10.494  20.107  0.00  0.00    +0.000 A 
ATOM     10 CL   UNL     1       0.128  12.088  19.660  0.00  0.00    +0.000 Cl
ENDROOT
BRANCH   5  11
ATOM     11  C   UNL     1       2.922   6.600  18.074  0.00  0.00    +0.000 A 
ATOM     12  C   UNL     1       4.178   6.507  17.455  0.00  0.00    +0.000 A 
ATOM     13  C   UNL     1       4.772   5.270  17.234  0.00  0.00    +0.000 A 
ATOM     14  C   UNL     1       4.120   4.094  17.618  0.00  0.00    +0.000 A 
ATOM     15  C   UNL     1       2.859   4.165  18.243  0.00  0.00    +0.000 A 
ATOM     16  C   UNL     1       2.274   5.424  18.483  0.00  0.00    +0.000 A 
BRANCH  14  17
ATOM     17  O   UNL     1       4.703   2.898  17.395  0.00  0.00    +0.000 OA
ATOM     18  H   UNL     1       4.407   2.308  16.686  0.00  0.00    +0.000 HD
ENDBRANCH  14  17
BRANCH  15  19
ATOM     19  C   UNL     1       2.138   2.905  18.646  0.00  0.00    +0.000 C 
BRANCH  19  20
ATOM     20  N   UNL     1       2.048   1.992  17.510  0.00  0.00    +0.000 NA
ATOM     21  H   UNL     1       1.396   2.394  16.796  0.00  0.00    +0.000 HD
ATOM     22  H   UNL     1       1.650   1.084  17.839  0.00  0.00    +0.000 HD
ENDBRANCH  19  20
ENDBRANCH  15  19
ENDBRANCH   5  11
BRANCH   1  23
ATOM     23  O   UNL     1       0.164  10.859  22.396  0.00  0.00    +0.000 OA
BRANCH  23  24
ATOM     24  C   UNL     1      -1.032  10.643  23.051  0.00  0.00    +0.000 C 
BRANCH  24  25
ATOM     25  C   UNL     1      -1.791  11.917  23.135  0.00  0.00    +0.000 C 
ATOM     26  O   UNL     1      -1.192  12.979  23.223  0.00  0.00    +0.000 OA
BRANCH  25  27
ATOM     27  O   UNL     1      -3.147  11.867  23.120  0.00  0.00    +0.000 OA
BRANCH  27  29
ATOM     28  C   UNL     1      -4.636  12.385  24.872  0.00  0.00    +0.000 C 
ATOM     29  C   UNL     1      -3.990  12.854  23.580  0.00  0.00    +0.000 C 
ENDBRANCH  27  29
ENDBRANCH  25  27
ENDBRANCH  24  25
ENDBRANCH  23  24
ENDBRANCH   1  23
TORSDOF 9
ENDMDL
MODEL 4
REMARK VINA RESULT:      -7.2      1.788      2.547
REMARK  Name = 
REMARK  10 active torsions:
REMARK  status: ('A' for Active; 'I' for Inactive)
REMARK    1  A    between atoms: C_1  and  C_2
REMARK    2  A    between atoms: C_2  and  O_3
REMARK    3  A    between atoms: O_3  and  C_4
REMARK    4  A    between atoms: C_4  and  C_6
REMARK    5  A    between atoms: C_6  and  O_7
REMARK    6  A    between atoms: O_7  and  C_8
REMARK    7  A    between atoms: C_12  and  C_13
REMARK    8  A    between atoms: C_16  and  O_17
REMARK    9  A    between atoms: C_18  and  C_19
REMARK   10  A    between atoms: C_19  and  N_20
REMARK                            x       y       z     vdW  Elec       q    Type
REMARK                         _______ _______ _______ _____ _____    ______ ____
ROOT
ATOM      1  C   UNL     1       0.989   9.958  19.375  0.00  0.00    +0.000 A 
ATOM      2  C   UNL     1       1.736   9.670  18.200  0.00  0.00    +0.000 A 
ATOM      3  C   UNL     1       2.400   8.450  18.058  0.00  0.00    +0.000 A 
ATOM      4  C   UNL     1       2.303   7.525  19.094  0.00  0.00    +0.000 A 
ATOM      5  C   UNL     1       2.770   6.240  19.261  0.00  0.00    +0.000 A 
ATOM      6  N   UNL     1       2.293   5.773  20.440  0.00  0.00    +0.000 NA
ATOM      7  O   UNL     1       1.600   6.734  21.000  0.00  0.00    +0.000 OA
ATOM      8  C   UNL     1       1.581   7.791  20.223  0.00  0.00    +0.000 A 
ATOM      9  C   UNL     1       0.925   9.004  20.414  0.00  0.00    +0.000 A 
ATOM     10 CL   UNL     1      -0.000   9.303  21.878  0.00  0.00    +0.000 Cl
ENDROOT
BRANCH   5  11
ATOM     11  C   UNL     1       3.613   5.457  18.330  0.00  0.00    +0.000 A 
ATOM     12  C   UNL     1       3.067   4.399  17.587  0.00  0.00    +0.000 A 
ATOM     13  C   UNL     1       3.860   3.653  16.722  0.00  0.00    +0.000 A 
ATOM     14  C   UNL     1       5.221   3.942  16.586  0.00  0.00    +0.000 A 
ATOM     15  C   UNL     1       5.789   5.001  17.321  0.00  0.00    +0.000 A 
ATOM     16  C   UNL     1       4.974   5.765  18.179  0.00  0.00    +0.000 A 
BRANCH  14  17
ATOM     17  O   UNL     1       5.983   3.209  15.747  0.00  0.00    +0.000 OA
ATOM     18  H   UNL     1       6.220   3.524  14.863  0.00  0.00    +0.000 HD
ENDBRANCH  14  17
BRANCH  15  19
ATOM     19  C   UNL     1       7.258   5.311  17.197  0.00  0.00    +0.000 C 
BRANCH  19  20
ATOM     20  N   UNL     1       8.053   4.166  17.636  0.00  0.00    +0.000 NA
ATOM     21  H   UNL     1       7.519   3.286  17.449  0.00  0.00    +0.000 HD
ATOM     22  H   UNL     1       8.207   4.240  18.666  0.00  0.00    +0.000 HD
ENDBRANCH  19  20
ENDBRANCH  15  19
ENDBRANCH   5  11
BRANCH   1  23
ATOM     23  O   UNL     1       0.298  11.117  19.508  0.00  0.00    +0.000 OA
BRANCH  23  24
ATOM     24  C   UNL     1       0.893  12.351  19.677  0.00  0.00    +0.000 C 
BRANCH  24  25
ATOM     25  C   UNL     1       0.521  12.906  21.004  0.00  0.00    +0.000 C 
ATOM     26  O   UNL     1       1.315  13.607  21.616  0.00  0.00    +0.000 OA
BRANCH  25  27
ATOM     27  O   UNL     1      -0.702  12.612  21.511  0.00  0.00    +0.000 OA
BRANCH  27  29
ATOM     28  C   UNL     1      -2.356  11.954  23.056  0.00  0.00    +0.000 C 
ATOM     29  C   UNL     1      -1.072  12.732  22.833  0.00  0.00    +0.000 C 
ENDBRANCH  27  29
ENDBRANCH  25  27
ENDBRANCH  24  25
ENDBRANCH  23  24
ENDBRANCH   1  23
TORSDOF 9
ENDMDL
MODEL 5
REMARK VINA RESULT:      -7.2      3.136      8.138
REMARK  Name = 
REMARK  10 active torsions:
REMARK  status: ('A' for Active; 'I' for Inactive)
REMARK    1  A    between atoms: C_1  and  C_2
REMARK    2  A    between atoms: C_2  and  O_3
REMARK    3  A    between atoms: O_3  and  C_4
REMARK    4  A    between atoms: C_4  and  C_6
REMARK    5  A    between atoms: C_6  and  O_7
REMARK    6  A    between atoms: O_7  and  C_8
REMARK    7  A    between atoms: C_12  and  C_13
REMARK    8  A    between atoms: C_16  and  O_17
REMARK    9  A    between atoms: C_18  and  C_19
REMARK   10  A    between atoms: C_19  and  N_20
REMARK                            x       y       z     vdW  Elec       q    Type
REMARK                         _______ _______ _______ _____ _____    ______ ____
ROOT
ATOM      1  C   UNL     1       4.343   4.746  17.160  0.00  0.00    +0.000 A 
ATOM      2  C   UNL     1       4.274   6.164  17.080  0.00  0.00    +0.000 A 
ATOM      3  C   UNL     1       3.494   6.893  17.980  0.00  0.00    +0.000 A 
ATOM      4  C   UNL     1       2.795   6.192  18.959  0.00  0.00    +0.000 A 
ATOM      5  C   UNL     1       1.998   6.582  20.013  0.00  0.00    +0.000 A 
ATOM      6  N   UNL     1       1.650   5.470  20.706  0.00  0.00    +0.000 NA
ATOM      7  O   UNL     1       2.169   4.436  20.090  0.00  0.00    +0.000 OA
ATOM      8  C   UNL     1       2.862   4.831  19.048  0.00  0.00    +0.000 A 
ATOM      9  C   UNL     1       3.608   4.065  18.155  0.00  0.00    +0.000 A 
ATOM     10 CL   UNL     1       3.673   2.317  18.308  0.00  0.00    +0.000 Cl
ENDROOT
BRANCH   5  11
ATOM     11  C   UNL     1       1.596   7.957  20.382  0.00  0.00    +0.000 A 
ATOM     12  C   UNL     1       1.304   8.285  21.715  0.00  0.00    +0.000 A 
ATOM     13  C   UNL     1       0.914   9.573  22.063  0.00  0.00    +0.000 A 
ATOM     14  C   UNL     1       0.796  10.564  21.083  0.00  0.00    +0.000 A 
ATOM     15  C   UNL     1       1.086  10.257  19.739  0.00  0.00    +0.000 A 
ATOM     16  C   UNL     1       1.502   8.955  19.399  0.00  0.00    +0.000 A 
BRANCH  14  17
ATOM     17  O   UNL     1       0.412  11.810  21.430  0.00  0.00    +0.000 OA
ATOM     18  H   UNL     1       0.494  12.138  22.337  0.00  0.00    +0.000 HD
ENDBRANCH  14  17
BRANCH  15  19
ATOM     19  C   UNL     1       0.947  11.311  18.671  0.00  0.00    +0.000 C 
BRANCH  19  20
ATOM     20  N   UNL     1      -0.464  11.533  18.365  0.00  0.00    +0.000 NA
ATOM     21  H   UNL     1      -0.649  11.252  17.374  0.00  0.00    +0.000 HD
ATOM     22  H   UNL     1      -0.671  12.554  18.458  0.00  0.00    +0.000 HD
ENDBRANCH  19  20
ENDBRANCH  15  19
ENDBRANCH   5  11
BRANCH   1  23
ATOM     23  O   UNL     1       5.133   4.028  16.325  0.00  0.00    +0.000 OA
BRANCH  23  24
ATOM     24  C   UNL     1       6.480   4.269  16.144  0.00  0.00    +0.000 C 
BRANCH  24  25
ATOM     25  C   UNL     1       6.739   4.614  14.723  0.00  0.00    +0.000 C 
ATOM     26  O   UNL     1       7.681   5.338  14.433  0.00  0.00    +0.000 OA
BRANCH  25  27
ATOM     27  O   UNL     1       5.909   4.117  13.772  0.00  0.00    +0.000 OA
BRANCH  27  29
ATOM     28  C   UNL     1       5.069   3.108  11.814  0.00  0.00    +0.000 C 
ATOM     29  C   UNL     1       6.303   3.552  12.579  0.00  0.00    +0.000 C 
ENDBRANCH  27  29
ENDBRANCH  25  27
ENDBRANCH  24  25
ENDBRANCH  23  24
ENDBRANCH   1  23
TORSDOF 9
ENDMDL
MODEL 6
REMARK VINA RESULT:      -7.2      3.254      8.292
REMARK  Name = 
REMARK  10 active torsions:
REMARK  status: ('A' for Active; 'I' for Inactive)
REMARK    1  A    between atoms: C_1  and  C_2
REMARK    2  A    between atoms: C_2  and  O_3
REMARK    3  A    between atoms: O_3  and  C_4
REMARK    4  A    between atoms: C_4  and  C_6
REMARK    5  A    between atoms: C_6  and  O_7
REMARK    6  A    between atoms: O_7  and  C_8
REMARK    7  A    between atoms: C_12  and  C_13
REMARK    8  A    between atoms: C_16  and  O_17
REMARK    9  A    between atoms: C_18  and  C_19
REMARK   10  A    between atoms: C_19  and  N_20
REMARK                            x       y       z     vdW  Elec       q    Type
REMARK                         _______ _______ _______ _____ _____    ______ ____
ROOT
ATOM      1  C   UNL     1       4.626   4.566  17.120  0.00  0.00    +0.000 A 
ATOM      2  C   UNL     1       4.545   5.984  17.059  0.00  0.00    +0.000 A 
ATOM      3  C   UNL     1       3.687   6.687  17.907  0.00  0.00    +0.000 A 
ATOM      4  C   UNL     1       2.922   5.961  18.815  0.00  0.00    +0.000 A 
ATOM      5  C   UNL     1       2.038   6.322  19.809  0.00  0.00    +0.000 A 
ATOM      6  N   UNL     1       1.650   5.194  20.452  0.00  0.00    +0.000 NA
ATOM      7  O   UNL     1       2.229   4.178  19.861  0.00  0.00    +0.000 OA
ATOM      8  C   UNL     1       2.998   4.599  18.885  0.00  0.00    +0.000 A 
ATOM      9  C   UNL     1       3.822   3.858  18.040  0.00  0.00    +0.000 A 
ATOM     10 CL   UNL     1       3.897   2.108  18.168  0.00  0.00    +0.000 Cl
ENDROOT
BRANCH   5  11
ATOM     11  C   UNL     1       1.591   7.686  20.168  0.00  0.00    +0.000 A 
ATOM     12  C   UNL     1       1.595   8.715  19.214  0.00  0.00    +0.000 A 
ATOM     13  C   UNL     1       1.187  10.001  19.552  0.00  0.00    +0.000 A 
ATOM     14  C   UNL     1       0.774  10.291  20.856  0.00  0.00    +0.000 A 
ATOM     15  C   UNL     1       0.761   9.271  21.829  0.00  0.00    +0.000 A 
ATOM     16  C   UNL     1       1.154   7.967  21.472  0.00  0.00    +0.000 A 
BRANCH  14  17
ATOM     17  O   UNL     1       0.385  11.542  21.175  0.00  0.00    +0.000 OA
ATOM     18  H   UNL     1      -0.455  11.720  21.621  0.00  0.00    +0.000 HD
ENDBRANCH  14  17
BRANCH  15  19
ATOM     19  C   UNL     1       0.335   9.575  23.242  0.00  0.00    +0.000 C 
BRANCH  19  20
ATOM     20  N   UNL     1      -1.057  10.016  23.264  0.00  0.00    +0.000 NA
ATOM     21  H   UNL     1      -1.428  10.032  22.285  0.00  0.00    +0.000 HD
ATOM     22  H   UNL     1      -1.095  10.990  23.641  0.00  0.00    +0.000 HD
ENDBRANCH  19  20
ENDBRANCH  15  19
ENDBRANCH   5  11
BRANCH   1  23
ATOM     23  O   UNL     1       5.489   3.872  16.338  0.00  0.00    +0.000 OA
BRANCH  23  24
ATOM     24  C   UNL     1       6.730   4.342  15.958  0.00  0.00    +0.000 C 
BRANCH  24  25
ATOM     25  C   UNL     1       6.776   4.491  14.481  0.00  0.00    +0.000 C 
ATOM     26  O   UNL     1       7.306   5.475  13.984  0.00  0.00    +0.000 OA
BRANCH  25  27
ATOM     27  O   UNL     1       6.216   3.524  13.712  0.00  0.00    +0.000 OA
BRANCH  27  29
ATOM     28  C   UNL     1       4.869   3.270  11.795  0.00  0.00    +0.000 C 
ATOM     29  C   UNL     1       6.274   3.458  12.338  0.00  0.00    +0.000 C 
ENDBRANCH  27  29
ENDBRANCH  25  27
ENDBRANCH  24  25
ENDBRANCH  23  24
ENDBRANCH   1  23
TORSDOF 9
ENDMDL
MODEL 7
REMARK VINA RESULT:      -7.1      2.766      3.690
REMARK  Name = 
REMARK  10 active torsions:
REMARK  status: ('A' for Active; 'I' for Inactive)
REMARK    1  A    between atoms: C_1  and  C_2
REMARK    2  A    between atoms: C_2  and  O_3
REMARK    3  A    between atoms: O_3  and  C_4
REMARK    4  A    between atoms: C_4  and  C_6
REMARK    5  A    between atoms: C_6  and  O_7
REMARK    6  A    between atoms: O_7  and  C_8
REMARK    7  A    between atoms: C_12  and  C_13
REMARK    8  A    between atoms: C_16  and  O_17
REMARK    9  A    between atoms: C_18  and  C_19
REMARK   10  A    between atoms: C_19  and  N_20
REMARK                            x       y       z     vdW  Elec       q    Type
REMARK                         _______ _______ _______ _____ _____    ______ ____
ROOT
ATOM      1  C   UNL     1       0.710   9.925  21.460  0.00  0.00    +0.000 A 
ATOM      2  C   UNL     1       1.171   8.610  21.743  0.00  0.00    +0.000 A 
ATOM      3  C   UNL     1       1.706   7.808  20.733  0.00  0.00    +0.000 A 
ATOM      4  C   UNL     1       1.781   8.336  19.447  0.00  0.00    +0.000 A 
ATOM      5  C   UNL     1       2.287   7.859  18.258  0.00  0.00    +0.000 A 
ATOM      6  N   UNL     1       2.177   8.844  17.333  0.00  0.00    +0.000 NA
ATOM      7  O   UNL     1       1.592   9.867  17.907  0.00  0.00    +0.000 OA
ATOM      8  C   UNL     1       1.347   9.600  19.168  0.00  0.00    +0.000 A 
ATOM      9  C   UNL     1       0.785  10.423  20.141  0.00  0.00    +0.000 A 
ATOM     10 CL   UNL     1       0.247  12.047  19.742  0.00  0.00    +0.000 Cl
ENDROOT
BRANCH   5  11
ATOM     11  C   UNL     1       2.885   6.531  17.998  0.00  0.00    +0.000 A 
ATOM     12  C   UNL     1       2.100   5.368  18.057  0.00  0.00    +0.000 A 
ATOM     13  C   UNL     1       2.661   4.118  17.826  0.00  0.00    +0.000 A 
ATOM     14  C   UNL     1       4.025   3.998  17.539  0.00  0.00    +0.000 A 
ATOM     15  C   UNL     1       4.831   5.152  17.473  0.00  0.00    +0.000 A 
ATOM     16  C   UNL     1       4.249   6.417  17.687  0.00  0.00    +0.000 A 
BRANCH  14  17
ATOM     17  O   UNL     1       4.561   2.779  17.321  0.00  0.00    +0.000 OA
ATOM     18  H   UNL     1       5.509   2.612  17.420  0.00  0.00    +0.000 HD
ENDBRANCH  14  17
BRANCH  15  19
ATOM     19  C   UNL     1       6.304   5.035  17.182  0.00  0.00    +0.000 C 
BRANCH  19  20
ATOM     20  N   UNL     1       6.971   4.295  18.251  0.00  0.00    +0.000 NA
ATOM     21  H   UNL     1       6.765   3.274  18.142  0.00  0.00    +0.000 HD
ATOM     22  H   UNL     1       6.582   4.608  19.169  0.00  0.00    +0.000 HD
ENDBRANCH  19  20
ENDBRANCH  15  19
ENDBRANCH   5  11
BRANCH   1  23
ATOM     23  O   UNL     1       0.234  10.734  22.438  0.00  0.00    +0.000 OA
BRANCH  23  24
ATOM     24  C   UNL     1      -1.088  10.762  22.837  0.00  0.00    +0.000 C 
BRANCH  24  25
ATOM     25  C   UNL     1      -1.467  12.149  23.210  0.00  0.00    +0.000 C 
ATOM     26  O   UNL     1      -2.632  12.412  23.472  0.00  0.00    +0.000 OA
BRANCH  25  27
ATOM     27  O   UNL     1      -0.500  13.099  23.244  0.00  0.00    +0.000 OA
BRANCH  27  29
ATOM     28  C   UNL     1      -0.781  15.418  23.563  0.00  0.00    +0.000 C 
ATOM     29  C   UNL     1      -0.532  14.299  22.567  0.00  0.00    +0.000 C 
ENDBRANCH  27  29
ENDBRANCH  25  27
ENDBRANCH  24  25
ENDBRANCH  23  24
ENDBRANCH   1  23
TORSDOF 9
ENDMDL
MODEL 8
REMARK VINA RESULT:      -7.1      2.922      8.119
REMARK  Name = 
REMARK  10 active torsions:
REMARK  status: ('A' for Active; 'I' for Inactive)
REMARK    1  A    between atoms: C_1  and  C_2
REMARK    2  A    between atoms: C_2  and  O_3
REMARK    3  A    between atoms: O_3  and  C_4
REMARK    4  A    between atoms: C_4  and  C_6
REMARK    5  A    between atoms: C_6  and  O_7
REMARK    6  A    between atoms: O_7  and  C_8
REMARK    7  A    between atoms: C_12  and  C_13
REMARK    8  A    between atoms: C_16  and  O_17
REMARK    9  A    between atoms: C_18  and  C_19
REMARK   10  A    between atoms: C_19  and  N_20
REMARK                            x       y       z     vdW  Elec       q    Type
REMARK                         _______ _______ _______ _____ _____    ______ ____
ROOT
ATOM      1  C   UNL     1       4.562   5.296  17.371  0.00  0.00    +0.000 A 
ATOM      2  C   UNL     1       4.205   6.629  17.031  0.00  0.00    +0.000 A 
ATOM      3  C   UNL     1       3.307   7.351  17.820  0.00  0.00    +0.000 A 
ATOM      4  C   UNL     1       2.779   6.729  18.948  0.00  0.00    +0.000 A 
ATOM      5  C   UNL     1       1.935   7.152  19.952  0.00  0.00    +0.000 A 
ATOM      6  N   UNL     1       1.830   6.149  20.858  0.00  0.00    +0.000 NA
ATOM      7  O   UNL     1       2.539   5.138  20.419  0.00  0.00    +0.000 OA
ATOM      8  C   UNL     1       3.122   5.451  19.286  0.00  0.00    +0.000 A 
ATOM      9  C   UNL     1       3.995   4.689  18.513  0.00  0.00    +0.000 A 
ATOM     10 CL   UNL     1       4.417   3.051  18.987  0.00  0.00    +0.000 Cl
ENDROOT
BRANCH   5  11
ATOM     11  C   UNL     1       1.267   8.466  20.078  0.00  0.00    +0.000 A 
ATOM     12  C   UNL     1       1.207   9.346  18.986  0.00  0.00    +0.000 A 
ATOM     13  C   UNL     1       0.592  10.587  19.105  0.00  0.00    +0.000 A 
ATOM     14  C   UNL     1       0.029  10.982  20.322  0.00  0.00    +0.000 A 
ATOM     15  C   UNL     1       0.076  10.113  21.431  0.00  0.00    +0.000 A 
ATOM     16  C   UNL     1       0.682   8.849  21.295  0.00  0.00    +0.000 A 
BRANCH  14  17
ATOM     17  O   UNL     1      -0.562  12.191  20.429  0.00  0.00    +0.000 OA
ATOM     18  H   UNL     1      -0.089  13.012  20.231  0.00  0.00    +0.000 HD
ENDBRANCH  14  17
BRANCH  15  19
ATOM     19  C   UNL     1      -0.511  10.534  22.753  0.00  0.00    +0.000 C 
BRANCH  19  20
ATOM     20  N   UNL     1      -0.011   9.675  23.823  0.00  0.00    +0.000 NA
ATOM     21  H   UNL     1      -0.436   9.976  24.731  0.00  0.00    +0.000 HD
ATOM     22  H   UNL     1       1.025   9.795  23.893  0.00  0.00    +0.000 HD
ENDBRANCH  19  20
ENDBRANCH  15  19
ENDBRANCH   5  11
BRANCH   1  23
ATOM     23  O   UNL     1       5.469   4.599  16.643  0.00  0.00    +0.000 OA
BRANCH  23  24
ATOM     24  C   UNL     1       6.750   5.043  16.382  0.00  0.00    +0.000 C 
BRANCH  24  25
ATOM     25  C   UNL     1       7.471   5.266  17.661  0.00  0.00    +0.000 C 
ATOM     26  O   UNL     1       7.988   4.322  18.242  0.00  0.00    +0.000 OA
BRANCH  25  27
ATOM     27  O   UNL     1       7.532   6.525  18.162  0.00  0.00    +0.000 OA
BRANCH  27  29
ATOM     28  C   UNL     1       8.372   8.727  18.168  0.00  0.00    +0.000 C 
ATOM     29  C   UNL     1       7.565   7.683  17.417  0.00  0.00    +0.000 C 
ENDBRANCH  27  29
ENDBRANCH  25  27
ENDBRANCH  24  25
ENDBRANCH  23  24
ENDBRANCH   1  23
TORSDOF 9
ENDMDL
MODEL 9
REMARK VINA RESULT:      -7.1      1.192      2.020
REMARK  Name = 
REMARK  10 active torsions:
REMARK  status: ('A' for Active; 'I' for Inactive)
REMARK    1  A    between atoms: C_1  and  C_2
REMARK    2  A    between atoms: C_2  and  O_3
REMARK    3  A    between atoms: O_3  and  C_4
REMARK    4  A    between atoms: C_4  and  C_6
REMARK    5  A    between atoms: C_6  and  O_7
REMARK    6  A    between atoms: O_7  and  C_8
REMARK    7  A    between atoms: C_12  and  C_13
REMARK    8  A    between atoms: C_16  and  O_17
REMARK    9  A    between atoms: C_18  and  C_19
REMARK   10  A    between atoms: C_19  and  N_20
REMARK                            x       y       z     vdW  Elec       q    Type
REMARK                         _______ _______ _______ _____ _____    ______ ____
ROOT
ATOM      1  C   UNL     1       0.977  10.087  19.282  0.00  0.00    +0.000 A 
ATOM      2  C   UNL     1       1.736   9.771  18.122  0.00  0.00    +0.000 A 
ATOM      3  C   UNL     1       2.393   8.544  18.011  0.00  0.00    +0.000 A 
ATOM      4  C   UNL     1       2.277   7.640  19.063  0.00  0.00    +0.000 A 
ATOM      5  C   UNL     1       2.732   6.354  19.260  0.00  0.00    +0.000 A 
ATOM      6  N   UNL     1       2.238   5.913  20.442  0.00  0.00    +0.000 NA
ATOM      7  O   UNL     1       1.546   6.890  20.975  0.00  0.00    +0.000 OA
ATOM      8  C   UNL     1       1.543   7.932  20.178  0.00  0.00    +0.000 A 
ATOM      9  C   UNL     1       0.893   9.153  20.338  0.00  0.00    +0.000 A 
ATOM     10 CL   UNL     1      -0.047   9.486  21.785  0.00  0.00    +0.000 Cl
ENDROOT
BRANCH   5  11
ATOM     11  C   UNL     1       3.581   5.548  18.355  0.00  0.00    +0.000 A 
ATOM     12  C   UNL     1       3.036   4.480  17.625  0.00  0.00    +0.000 A 
ATOM     13  C   UNL     1       3.833   3.713  16.783  0.00  0.00    +0.000 A 
ATOM     14  C   UNL     1       5.199   3.989  16.659  0.00  0.00    +0.000 A 
ATOM     15  C   UNL     1       5.766   5.058  17.382  0.00  0.00    +0.000 A 
ATOM     16  C   UNL     1       4.946   5.843  18.215  0.00  0.00    +0.000 A 
BRANCH  14  17
ATOM     17  O   UNL     1       5.965   3.235  15.844  0.00  0.00    +0.000 OA
ATOM     18  H   UNL     1       6.388   2.419  16.147  0.00  0.00    +0.000 HD
ENDBRANCH  14  17
BRANCH  15  19
ATOM     19  C   UNL     1       7.239   5.354  17.270  0.00  0.00    +0.000 C 
BRANCH  19  20
ATOM     20  N   UNL     1       8.018   4.175  17.637  0.00  0.00    +0.000 NA
ATOM     21  H   UNL     1       8.786   4.039  16.938  0.00  0.00    +0.000 HD
ATOM     22  H   UNL     1       7.396   3.336  17.602  0.00  0.00    +0.000 HD
ENDBRANCH  19  20
ENDBRANCH  15  19
ENDBRANCH   5  11
BRANCH   1  23
ATOM     23  O   UNL     1       0.293  11.253  19.385  0.00  0.00    +0.000 OA
BRANCH  23  24
ATOM     24  C   UNL     1      -0.747  11.611  18.551  0.00  0.00    +0.000 C 
BRANCH  24  25
ATOM     25  C   UNL     1      -1.896  12.087  19.363  0.00  0.00    +0.000 C 
ATOM     26  O   UNL     1      -3.034  11.756  19.061  0.00  0.00    +0.000 OA
BRANCH  25  27
ATOM     27  O   UNL     1      -1.651  12.892  20.426  0.00  0.00    +0.000 OA
BRANCH  27  29
ATOM     28  C   UNL     1      -1.099  12.762  22.714  0.00  0.00    +0.000 C 
ATOM     29  C   UNL     1      -2.209  12.758  21.678  0.00  0.00    +0.000 C 
ENDBRANCH  27  29
ENDBRANCH  25  27
ENDBRANCH  24  25
ENDBRANCH  23  24
ENDBRANCH   1  23
TORSDOF 9
ENDMDL
