MODEL 1
REMARK VINA RESULT:      -6.7      0.000      0.000
REMARK  Name = 
REMARK  7 active torsions:
REMARK  status: ('A' for Active; 'I' for Inactive)
REMARK    1  A    between atoms: C_1  and  N_2
REMARK    2  A    between atoms: N_2  and  C_3
REMARK    3  A    between atoms: C_3  and  C_4
REMARK    4  A    between atoms: C_4  and  O_5
REMARK    5  A    between atoms: O_5  and  C_6
REMARK    6  A    between atoms: C_16  and  C_17
REMARK    7  A    between atoms: C_18  and  N_19
REMARK                            x       y       z     vdW  Elec       q    Type
REMARK                         _______ _______ _______ _____ _____    ______ ____
ROOT
ATOM      1  C   UNL     1       3.465   4.807  18.306  0.00  0.00    +0.000 A 
ATOM      2  N   UNL     1       3.038   6.083  18.327  0.00  0.00    +0.000 NA
ATOM      3  C   UNL     1       2.387   6.526  19.408  0.00  0.00    +0.000 A 
ATOM      4  N   UNL     1       1.896   7.803  19.386  0.00  0.00    +0.000 N 
ATOM      5  C   UNL     1       1.387   8.423  20.606  0.00  0.00    +0.000 C 
ATOM      6  C   UNL     1       0.287   9.423  20.210  0.00  0.00    +0.000 C 
ATOM      7  O   UNL     1       0.767  10.391  19.257  0.00  0.00    +0.000 OA
ATOM      8  C   UNL     1       1.241   9.739  18.065  0.00  0.00    +0.000 C 
ATOM      9  C   UNL     1       2.377   8.753  18.380  0.00  0.00    +0.000 C 
ATOM     10  N   UNL     1       2.138   5.734  20.465  0.00  0.00    +0.000 NA
ATOM     11  C   UNL     1       2.557   4.445  20.435  0.00  0.00    +0.000 A 
ATOM     12  C   UNL     1       2.245   3.633  21.658  0.00  0.00    +0.000 C 
ATOM     13  C   UNL     1       3.227   3.944  19.342  0.00  0.00    +0.000 A 
ENDROOT
BRANCH  13  14
ATOM     14  N   UNL     1       3.718   2.600  19.302  0.00  0.00    +0.000 N 
ATOM     15  O   UNL     1       2.992   1.747  18.777  0.00  0.00    +0.000 OA
ATOM     16  O   UNL     1       4.855   2.401  19.748  0.00  0.00    +0.000 OA
ENDBRANCH  13  14
BRANCH   1  17
ATOM     17  O   UNL     1       4.100   4.373  17.160  0.00  0.00    +0.000 OA
BRANCH  17  18
ATOM     18  C   UNL     1       5.191   5.237  16.807  0.00  0.00    +0.000 C 
BRANCH  18  19
ATOM     19  C   UNL     1       6.510   4.467  16.892  0.00  0.00    +0.000 C 
BRANCH  19  21
ATOM     20  C   UNL     1       7.016   5.548  18.987  0.00  0.00    +0.000 C 
ATOM     21  N   UNL     1       6.899   4.274  18.294  0.00  0.00    +0.000 NA
ATOM     22  H   UNL     1       6.201   3.698  18.768  0.00  0.00    +0.000 HD
ENDBRANCH  19  21
ENDBRANCH  18  19
ENDBRANCH  17  18
ENDBRANCH   1  17
TORSDOF 5
ENDMDL
MODEL 2
REMARK VINA RESULT:      -6.4      0.849      1.083
REMARK  Name = 
REMARK  7 active torsions:
REMARK  status: ('A' for Active; 'I' for Inactive)
REMARK    1  A    between atoms: C_1  and  N_2
REMARK    2  A    between atoms: N_2  and  C_3
REMARK    3  A    between atoms: C_3  and  C_4
REMARK    4  A    between atoms: C_4  and  O_5
REMARK    5  A    between atoms: O_5  and  C_6
REMARK    6  A    between atoms: C_16  and  C_17
REMARK    7  A    between atoms: C_18  and  N_19
REMARK                            x       y       z     vdW  Elec       q    Type
REMARK                         _______ _______ _______ _____ _____    ______ ____
ROOT
ATOM      1  C   UNL     1       3.812   4.478  18.315  0.00  0.00    +0.000 A 
ATOM      2  N   UNL     1       3.420   5.766  18.276  0.00  0.00    +0.000 NA
ATOM      3  C   UNL     1       2.679   6.243  19.282  0.00  0.00    +0.000 A 
ATOM      4  N   UNL     1       2.228   7.532  19.194  0.00  0.00    +0.000 N 
ATOM      5  C   UNL     1       1.619   8.185  20.349  0.00  0.00    +0.000 C 
ATOM      6  C   UNL     1       0.591   9.206  19.834  0.00  0.00    +0.000 C 
ATOM      7  O   UNL     1       1.187  10.145  18.919  0.00  0.00    +0.000 OA
ATOM      8  C   UNL     1       1.758   9.462  17.788  0.00  0.00    +0.000 C 
ATOM      9  C   UNL     1       2.830   8.452  18.227  0.00  0.00    +0.000 C 
ATOM     10  N   UNL     1       2.307   5.476  20.320  0.00  0.00    +0.000 NA
ATOM     11  C   UNL     1       2.692   4.175  20.350  0.00  0.00    +0.000 A 
ATOM     12  C   UNL     1       2.240   3.392  21.547  0.00  0.00    +0.000 C 
ATOM     13  C   UNL     1       3.451   3.639  19.335  0.00  0.00    +0.000 A 
ENDROOT
BRANCH  13  14
ATOM     14  N   UNL     1       3.907   2.283  19.362  0.00  0.00    +0.000 N 
ATOM     15  O   UNL     1       4.901   2.033  20.055  0.00  0.00    +0.000 OA
ATOM     16  O   UNL     1       3.243   1.451  18.731  0.00  0.00    +0.000 OA
ENDBRANCH  13  14
BRANCH   1  17
ATOM     17  O   UNL     1       4.544   4.009  17.242  0.00  0.00    +0.000 OA
BRANCH  17  18
ATOM     18  C   UNL     1       5.023   5.087  16.425  0.00  0.00    +0.000 C 
BRANCH  18  19
ATOM     19  C   UNL     1       6.453   4.794  15.966  0.00  0.00    +0.000 C 
BRANCH  19  21
ATOM     20  C   UNL     1       7.285   6.385  17.577  0.00  0.00    +0.000 C 
ATOM     21  N   UNL     1       7.308   5.967  16.183  0.00  0.00    +0.000 NA
ATOM     22  H   UNL     1       8.268   5.746  15.915  0.00  0.00    +0.000 HD
ENDBRANCH  19  21
ENDBRANCH  18  19
ENDBRANCH  17  18
ENDBRANCH   1  17
TORSDOF 5
ENDMDL
MODEL 3
REMARK VINA RESULT:      -6.3      1.591      3.775
REMARK  Name = 
REMARK  7 active torsions:
REMARK  status: ('A' for Active; 'I' for Inactive)
REMARK    1  A    between atoms: C_1  and  N_2
REMARK    2  A    between atoms: N_2  and  C_3
REMARK    3  A    between atoms: C_3  and  C_4
REMARK    4  A    between atoms: C_4  and  O_5
REMARK    5  A    between atoms: O_5  and  C_6
REMARK    6  A    between atoms: C_16  and  C_17
REMARK    7  A    between atoms: C_18  and  N_19
REMARK                            x       y       z     vdW  Elec       q    Type
REMARK                         _______ _______ _______ _____ _____    ______ ____
ROOT
ATOM      1  C   UNL     1       3.076   5.580  19.679  0.00  0.00    +0.000 A 
ATOM      2  N   UNL     1       2.375   6.722  19.800  0.00  0.00    +0.000 NA
ATOM      3  C   UNL     1       2.495   7.654  18.849  0.00  0.00    +0.000 A 
ATOM      4  N   UNL     1       1.832   8.839  19.022  0.00  0.00    +0.000 N 
ATOM      5  C   UNL     1       1.731   9.799  17.926  0.00  0.00    +0.000 C 
ATOM      6  C   UNL     1       1.658  11.210  18.532  0.00  0.00    +0.000 C 
ATOM      7  O   UNL     1       0.574  11.330  19.473  0.00  0.00    +0.000 OA
ATOM      8  C   UNL     1       0.723  10.380  20.544  0.00  0.00    +0.000 C 
ATOM      9  C   UNL     1       0.759   8.939  20.013  0.00  0.00    +0.000 C 
ATOM     10  N   UNL     1       3.299   7.489  17.786  0.00  0.00    +0.000 NA
ATOM     11  C   UNL     1       4.016   6.343  17.673  0.00  0.00    +0.000 A 
ATOM     12  C   UNL     1       4.883   6.237  16.453  0.00  0.00    +0.000 C 
ATOM     13  C   UNL     1       3.927   5.358  18.630  0.00  0.00    +0.000 A 
ENDROOT
BRANCH  13  14
ATOM     14  N   UNL     1       4.638   4.121  18.514  0.00  0.00    +0.000 N 
ATOM     15  O   UNL     1       5.746   4.051  19.059  0.00  0.00    +0.000 OA
ATOM     16  O   UNL     1       4.068   3.195  17.923  0.00  0.00    +0.000 OA
ENDBRANCH  13  14
BRANCH   1  17
ATOM     17  O   UNL     1       2.957   4.656  20.697  0.00  0.00    +0.000 OA
BRANCH  17  18
ATOM     18  C   UNL     1       1.591   4.259  20.887  0.00  0.00    +0.000 C 
BRANCH  18  19
ATOM     19  C   UNL     1       1.505   2.737  21.011  0.00  0.00    +0.000 C 
BRANCH  19  21
ATOM     20  C   UNL     1       0.797   2.483  18.719  0.00  0.00    +0.000 C 
ATOM     21  N   UNL     1       1.786   2.103  19.717  0.00  0.00    +0.000 NA
ATOM     22  H   UNL     1       2.713   2.381  19.393  0.00  0.00    +0.000 HD
ENDBRANCH  19  21
ENDBRANCH  18  19
ENDBRANCH  17  18
ENDBRANCH   1  17
TORSDOF 5
ENDMDL
MODEL 4
REMARK VINA RESULT:      -6.3      3.388      5.042
REMARK  Name = 
REMARK  7 active torsions:
REMARK  status: ('A' for Active; 'I' for Inactive)
REMARK    1  A    between atoms: C_1  and  N_2
REMARK    2  A    between atoms: N_2  and  C_3
REMARK    3  A    between atoms: C_3  and  C_4
REMARK    4  A    between atoms: C_4  and  O_5
REMARK    5  A    between atoms: O_5  and  C_6
REMARK    6  A    between atoms: C_16  and  C_17
REMARK    7  A    between atoms: C_18  and  N_19
REMARK                            x       y       z     vdW  Elec       q    Type
REMARK                         _______ _______ _______ _____ _____    ______ ____
ROOT
ATOM      1  C   UNL     1       5.045   4.880  16.617  0.00  0.00    +0.000 A 
ATOM      2  N   UNL     1       3.915   4.510  17.248  0.00  0.00    +0.000 NA
ATOM      3  C   UNL     1       3.901   4.495  18.585  0.00  0.00    +0.000 A 
ATOM      4  N   UNL     1       2.769   4.048  19.212  0.00  0.00    +0.000 N 
ATOM      5  C   UNL     1       2.601   4.223  20.652  0.00  0.00    +0.000 C 
ATOM      6  C   UNL     1       1.736   3.064  21.176  0.00  0.00    +0.000 C 
ATOM      7  O   UNL     1       0.478   2.982  20.478  0.00  0.00    +0.000 OA
ATOM      8  C   UNL     1       0.690   2.792  19.068  0.00  0.00    +0.000 C 
ATOM      9  C   UNL     1       1.515   3.940  18.465  0.00  0.00    +0.000 C 
ATOM     10  N   UNL     1       4.980   4.826  19.314  0.00  0.00    +0.000 NA
ATOM     11  C   UNL     1       6.121   5.185  18.675  0.00  0.00    +0.000 A 
ATOM     12  C   UNL     1       7.276   5.547  19.563  0.00  0.00    +0.000 C 
ATOM     13  C   UNL     1       6.184   5.211  17.300  0.00  0.00    +0.000 A 
ENDROOT
BRANCH  13  14
ATOM     14  N   UNL     1       7.361   5.628  16.601  0.00  0.00    +0.000 N 
ATOM     15  O   UNL     1       7.520   6.843  16.434  0.00  0.00    +0.000 OA
ATOM     16  O   UNL     1       8.158   4.744  16.261  0.00  0.00    +0.000 OA
ENDBRANCH  13  14
BRANCH   1  17
ATOM     17  O   UNL     1       5.035   4.848  15.237  0.00  0.00    +0.000 OA
BRANCH  17  18
ATOM     18  C   UNL     1       5.600   3.626  14.738  0.00  0.00    +0.000 C 
BRANCH  18  19
ATOM     19  C   UNL     1       6.330   3.892  13.421  0.00  0.00    +0.000 C 
BRANCH  19  21
ATOM     20  C   UNL     1       4.781   3.163  11.723  0.00  0.00    +0.000 C 
ATOM     21  N   UNL     1       6.008   2.849  12.439  0.00  0.00    +0.000 NA
ATOM     22  H   UNL     1       6.774   2.760  11.770  0.00  0.00    +0.000 HD
ENDBRANCH  19  21
ENDBRANCH  18  19
ENDBRANCH  17  18
ENDBRANCH   1  17
TORSDOF 5
ENDMDL
MODEL 5
REMARK VINA RESULT:      -6.2      1.727      3.783
REMARK  Name = 
REMARK  7 active torsions:
REMARK  status: ('A' for Active; 'I' for Inactive)
REMARK    1  A    between atoms: C_1  and  N_2
REMARK    2  A    between atoms: N_2  and  C_3
REMARK    3  A    between atoms: C_3  and  C_4
REMARK    4  A    between atoms: C_4  and  O_5
REMARK    5  A    between atoms: O_5  and  C_6
REMARK    6  A    between atoms: C_16  and  C_17
REMARK    7  A    between atoms: C_18  and  N_19
REMARK                            x       y       z     vdW  Elec       q    Type
REMARK                         _______ _______ _______ _____ _____    ______ ____
ROOT
ATOM      1  C   UNL     1       4.801   4.758  18.545  0.00  0.00    +0.000 A 
ATOM      2  N   UNL     1       3.840   5.509  19.114  0.00  0.00    +0.000 NA
ATOM      3  C   UNL     1       3.390   6.583  18.457  0.00  0.00    +0.000 A 
ATOM      4  N   UNL     1       2.465   7.377  19.080  0.00  0.00    +0.000 N 
ATOM      5  C   UNL     1       1.765   8.422  18.338  0.00  0.00    +0.000 C 
ATOM      6  C   UNL     1       1.426   9.558  19.317  0.00  0.00    +0.000 C 
ATOM      7  O   UNL     1       0.669   9.080  20.444  0.00  0.00    +0.000 OA
ATOM      8  C   UNL     1       1.402   8.067  21.157  0.00  0.00    +0.000 C 
ATOM      9  C   UNL     1       1.738   6.875  20.247  0.00  0.00    +0.000 C 
ATOM     10  N   UNL     1       3.874   6.940  17.256  0.00  0.00    +0.000 NA
ATOM     11  C   UNL     1       4.852   6.189  16.690  0.00  0.00    +0.000 A 
ATOM     12  C   UNL     1       5.330   6.652  15.346  0.00  0.00    +0.000 C 
ATOM     13  C   UNL     1       5.349   5.077  17.331  0.00  0.00    +0.000 A 
ENDROOT
BRANCH  13  14
ATOM     14  N   UNL     1       6.350   4.243  16.739  0.00  0.00    +0.000 N 
ATOM     15  O   UNL     1       5.966   3.371  15.950  0.00  0.00    +0.000 OA
ATOM     16  O   UNL     1       7.529   4.489  17.020  0.00  0.00    +0.000 OA
ENDBRANCH  13  14
BRANCH   1  17
ATOM     17  O   UNL     1       5.268   3.678  19.266  0.00  0.00    +0.000 OA
BRANCH  17  18
ATOM     18  C   UNL     1       4.194   2.822  19.682  0.00  0.00    +0.000 C 
BRANCH  18  19
ATOM     19  C   UNL     1       3.769   1.922  18.521  0.00  0.00    +0.000 C 
BRANCH  19  21
ATOM     20  C   UNL     1       1.704   2.375  19.681  0.00  0.00    +0.000 C 
ATOM     21  N   UNL     1       2.311   1.748  18.517  0.00  0.00    +0.000 NA
ATOM     22  H   UNL     1       1.919   2.162  17.669  0.00  0.00    +0.000 HD
ENDBRANCH  19  21
ENDBRANCH  18  19
ENDBRANCH  17  18
ENDBRANCH   1  17
TORSDOF 5
ENDMDL
MODEL 6
REMARK VINA RESULT:      -6.1      2.408      5.410
REMARK  Name = 
REMARK  7 active torsions:
REMARK  status: ('A' for Active; 'I' for Inactive)
REMARK    1  A    between atoms: C_1  and  N_2
REMARK    2  A    between atoms: N_2  and  C_3
REMARK    3  A    between atoms: C_3  and  C_4
REMARK    4  A    between atoms: C_4  and  O_5
REMARK    5  A    between atoms: O_5  and  C_6
REMARK    6  A    between atoms: C_16  and  C_17
REMARK    7  A    between atoms: C_18  and  N_19
REMARK                            x       y       z     vdW  Elec       q    Type
REMARK                         _______ _______ _______ _____ _____    ______ ____
ROOT
ATOM      1  C   UNL     1       2.825   5.043  19.897  0.00  0.00    +0.000 A 
ATOM      2  N   UNL     1       3.774   5.541  19.083  0.00  0.00    +0.000 NA
ATOM      3  C   UNL     1       4.405   4.711  18.247  0.00  0.00    +0.000 A 
ATOM      4  N   UNL     1       5.416   5.218  17.477  0.00  0.00    +0.000 N 
ATOM      5  C   UNL     1       5.984   4.431  16.386  0.00  0.00    +0.000 C 
ATOM      6  C   UNL     1       7.458   4.839  16.219  0.00  0.00    +0.000 C 
ATOM      7  O   UNL     1       7.596   6.257  16.008  0.00  0.00    +0.000 OA
ATOM      8  C   UNL     1       7.041   6.993  17.113  0.00  0.00    +0.000 C 
ATOM      9  C   UNL     1       5.553   6.666  17.312  0.00  0.00    +0.000 C 
ATOM     10  N   UNL     1       4.129   3.397  18.203  0.00  0.00    +0.000 NA
ATOM     11  C   UNL     1       3.182   2.894  19.035  0.00  0.00    +0.000 A 
ATOM     12  C   UNL     1       2.931   1.420  18.916  0.00  0.00    +0.000 C 
ATOM     13  C   UNL     1       2.510   3.711  19.915  0.00  0.00    +0.000 A 
ENDROOT
BRANCH  13  14
ATOM     14  N   UNL     1       1.476   3.215  20.772  0.00  0.00    +0.000 N 
ATOM     15  O   UNL     1       0.332   3.156  20.305  0.00  0.00    +0.000 OA
ATOM     16  O   UNL     1       1.813   2.834  21.901  0.00  0.00    +0.000 OA
ENDBRANCH  13  14
BRANCH   1  17
ATOM     17  O   UNL     1       2.220   5.922  20.774  0.00  0.00    +0.000 OA
BRANCH  17  18
ATOM     18  C   UNL     1       2.085   7.228  20.194  0.00  0.00    +0.000 C 
BRANCH  18  19
ATOM     19  C   UNL     1       1.001   8.013  20.934  0.00  0.00    +0.000 C 
BRANCH  19  21
ATOM     20  C   UNL     1       0.552   9.418  22.842  0.00  0.00    +0.000 C 
ATOM     21  N   UNL     1       1.580   8.728  22.078  0.00  0.00    +0.000 NA
ATOM     22  H   UNL     1       2.063   8.066  22.687  0.00  0.00    +0.000 HD
ENDBRANCH  19  21
ENDBRANCH  18  19
ENDBRANCH  17  18
ENDBRANCH   1  17
TORSDOF 5
ENDMDL
MODEL 7
REMARK VINA RESULT:      -6.1      0.896      1.396
REMARK  Name = 
REMARK  7 active torsions:
REMARK  status: ('A' for Active; 'I' for Inactive)
REMARK    1  A    between atoms: C_1  and  N_2
REMARK    2  A    between atoms: N_2  and  C_3
REMARK    3  A    between atoms: C_3  and  C_4
REMARK    4  A    between atoms: C_4  and  O_5
REMARK    5  A    between atoms: O_5  and  C_6
REMARK    6  A    between atoms: C_16  and  C_17
REMARK    7  A    between atoms: C_18  and  N_19
REMARK                            x       y       z     vdW  Elec       q    Type
REMARK                         _______ _______ _______ _____ _____    ______ ____
ROOT
ATOM      1  C   UNL     1       3.262   5.364  18.407  0.00  0.00    +0.000 A 
ATOM      2  N   UNL     1       2.738   6.588  18.605  0.00  0.00    +0.000 NA
ATOM      3  C   UNL     1       2.100   6.837  19.753  0.00  0.00    +0.000 A 
ATOM      4  N   UNL     1       1.511   8.062  19.909  0.00  0.00    +0.000 N 
ATOM      5  C   UNL     1       1.005   8.481  21.213  0.00  0.00    +0.000 C 
ATOM      6  C   UNL     1      -0.184   9.429  20.983  0.00  0.00    +0.000 C 
ATOM      7  O   UNL     1       0.179  10.544  20.148  0.00  0.00    +0.000 OA
ATOM      8  C   UNL     1       0.655  10.089  18.868  0.00  0.00    +0.000 C 
ATOM      9  C   UNL     1       1.875   9.167  19.020  0.00  0.00    +0.000 C 
ATOM     10  N   UNL     1       1.956   5.902  20.706  0.00  0.00    +0.000 NA
ATOM     11  C   UNL     1       2.472   4.664  20.499  0.00  0.00    +0.000 A 
ATOM     12  C   UNL     1       2.274   3.683  21.616  0.00  0.00    +0.000 C 
ATOM     13  C   UNL     1       3.134   4.362  19.331  0.00  0.00    +0.000 A 
ENDROOT
BRANCH  13  14
ATOM     14  N   UNL     1       3.726   3.078  19.103  0.00  0.00    +0.000 N 
ATOM     15  O   UNL     1       4.899   2.924  19.464  0.00  0.00    +0.000 OA
ATOM     16  O   UNL     1       3.003   2.203  18.611  0.00  0.00    +0.000 OA
ENDBRANCH  13  14
BRANCH   1  17
ATOM     17  O   UNL     1       3.881   5.131  17.196  0.00  0.00    +0.000 OA
BRANCH  17  18
ATOM     18  C   UNL     1       5.036   5.967  17.030  0.00  0.00    +0.000 C 
BRANCH  18  19
ATOM     19  C   UNL     1       6.308   5.127  17.162  0.00  0.00    +0.000 C 
BRANCH  19  21
ATOM     20  C   UNL     1       6.240   3.836  15.126  0.00  0.00    +0.000 C 
ATOM     21  N   UNL     1       6.104   3.797  16.574  0.00  0.00    +0.000 NA
ATOM     22  H   UNL     1       6.789   3.144  16.959  0.00  0.00    +0.000 HD
ENDBRANCH  19  21
ENDBRANCH  18  19
ENDBRANCH  17  18
ENDBRANCH   1  17
TORSDOF 5
ENDMDL
MODEL 8
REMARK VINA RESULT:      -6.0      1.673      3.817
REMARK  Name = 
REMARK  7 active torsions:
REMARK  status: ('A' for Active; 'I' for Inactive)
REMARK    1  A    between atoms: C_1  and  N_2
REMARK    2  A    between atoms: N_2  and  C_3
REMARK    3  A    between atoms: C_3  and  C_4
REMARK    4  A    between atoms: C_4  and  O_5
REMARK    5  A    between atoms: O_5  and  C_6
REMARK    6  A    between atoms: C_16  and  C_17
REMARK    7  A    between atoms: C_18  and  N_19
REMARK                            x       y       z     vdW  Elec       q    Type
REMARK                         _______ _______ _______ _____ _____    ______ ____
ROOT
ATOM      1  C   UNL     1       3.236   5.222  19.774  0.00  0.00    +0.000 A 
ATOM      2  N   UNL     1       2.431   6.229  20.161  0.00  0.00    +0.000 NA
ATOM      3  C   UNL     1       2.344   7.317  19.389  0.00  0.00    +0.000 A 
ATOM      4  N   UNL     1       1.578   8.361  19.832  0.00  0.00    +0.000 N 
ATOM      5  C   UNL     1       1.255   9.473  18.942  0.00  0.00    +0.000 C 
ATOM      6  C   UNL     1       1.093  10.740  19.799  0.00  0.00    +0.000 C 
ATOM      7  O   UNL     1       0.111  10.558  20.837  0.00  0.00    +0.000 OA
ATOM      8  C   UNL     1       0.478   9.467  21.700  0.00  0.00    +0.000 C 
ATOM      9  C   UNL     1       0.614   8.153  20.914  0.00  0.00    +0.000 C 
ATOM     10  N   UNL     1       3.043   7.439  18.248  0.00  0.00    +0.000 NA
ATOM     11  C   UNL     1       3.864   6.430  17.867  0.00  0.00    +0.000 A 
ATOM     12  C   UNL     1       4.601   6.644  16.577  0.00  0.00    +0.000 C 
ATOM     13  C   UNL     1       3.988   5.293  18.632  0.00  0.00    +0.000 A 
ENDROOT
BRANCH  13  14
ATOM     14  N   UNL     1       4.813   4.194  18.232  0.00  0.00    +0.000 N 
ATOM     15  O   UNL     1       4.312   3.355  17.474  0.00  0.00    +0.000 OA
ATOM     16  O   UNL     1       5.985   4.193  18.632  0.00  0.00    +0.000 OA
ENDBRANCH  13  14
BRANCH   1  17
ATOM     17  O   UNL     1       3.330   4.131  20.613  0.00  0.00    +0.000 OA
BRANCH  17  18
ATOM     18  C   UNL     1       2.170   4.014  21.451  0.00  0.00    +0.000 C 
BRANCH  18  19
ATOM     19  C   UNL     1       1.381   2.760  21.073  0.00  0.00    +0.000 C 
BRANCH  19  21
ATOM     20  C   UNL     1       0.893   2.447  18.732  0.00  0.00    +0.000 C 
ATOM     21  N   UNL     1       0.449   3.054  19.978  0.00  0.00    +0.000 NA
ATOM     22  H   UNL     1      -0.479   2.699  20.212  0.00  0.00    +0.000 HD
ENDBRANCH  19  21
ENDBRANCH  18  19
ENDBRANCH  17  18
ENDBRANCH   1  17
TORSDOF 5
ENDMDL
MODEL 9
REMARK VINA RESULT:      -6.0      3.388      4.819
REMARK  Name = 
REMARK  7 active torsions:
REMARK  status: ('A' for Active; 'I' for Inactive)
REMARK    1  A    between atoms: C_1  and  N_2
REMARK    2  A    between atoms: N_2  and  C_3
REMARK    3  A    between atoms: C_3  and  C_4
REMARK    4  A    between atoms: C_4  and  O_5
REMARK    5  A    between atoms: O_5  and  C_6
REMARK    6  A    between atoms: C_16  and  C_17
REMARK    7  A    between atoms: C_18  and  N_19
REMARK                            x       y       z     vdW  Elec       q    Type
REMARK                         _______ _______ _______ _____ _____    ______ ____
ROOT
ATOM      1  C   UNL     1       5.012   4.863  16.817  0.00  0.00    +0.000 A 
ATOM      2  N   UNL     1       3.904   4.504  17.491  0.00  0.00    +0.000 NA
ATOM      3  C   UNL     1       3.936   4.501  18.828  0.00  0.00    +0.000 A 
ATOM      4  N   UNL     1       2.825   4.065  19.498  0.00  0.00    +0.000 N 
ATOM      5  C   UNL     1       2.708   4.254  20.941  0.00  0.00    +0.000 C 
ATOM      6  C   UNL     1       1.856   3.105  21.505  0.00  0.00    +0.000 C 
ATOM      7  O   UNL     1       0.575   3.022  20.853  0.00  0.00    +0.000 OA
ATOM      8  C   UNL     1       0.737   2.818  19.438  0.00  0.00    +0.000 C 
ATOM      9  C   UNL     1       1.545   3.956  18.796  0.00  0.00    +0.000 C 
ATOM     10  N   UNL     1       5.041   4.834  19.515  0.00  0.00    +0.000 NA
ATOM     11  C   UNL     1       6.162   5.182  18.834  0.00  0.00    +0.000 A 
ATOM     12  C   UNL     1       7.348   5.546  19.678  0.00  0.00    +0.000 C 
ATOM     13  C   UNL     1       6.176   5.195  17.458  0.00  0.00    +0.000 A 
ENDROOT
BRANCH  13  14
ATOM     14  N   UNL     1       7.330   5.600  16.714  0.00  0.00    +0.000 N 
ATOM     15  O   UNL     1       7.449   6.805  16.463  0.00  0.00    +0.000 OA
ATOM     16  O   UNL     1       8.150   4.720  16.422  0.00  0.00    +0.000 OA
ENDBRANCH  13  14
BRANCH   1  17
ATOM     17  O   UNL     1       4.955   4.818  15.439  0.00  0.00    +0.000 OA
BRANCH  17  18
ATOM     18  C   UNL     1       5.537   3.609  14.930  0.00  0.00    +0.000 C 
BRANCH  18  19
ATOM     19  C   UNL     1       6.283   3.901  13.627  0.00  0.00    +0.000 C 
BRANCH  19  21
ATOM     20  C   UNL     1       8.066   5.295  12.794  0.00  0.00    +0.000 C 
ATOM     21  N   UNL     1       6.920   5.221  13.688  0.00  0.00    +0.000 NA
ATOM     22  H   UNL     1       6.244   5.941  13.427  0.00  0.00    +0.000 HD
ENDBRANCH  19  21
ENDBRANCH  18  19
ENDBRANCH  17  18
ENDBRANCH   1  17
TORSDOF 5
ENDMDL
