MODEL 1
REMARK VINA RESULT:      -6.9      0.000      0.000
REMARK  Name = 
REMARK  4 active torsions:
REMARK  status: ('A' for Active; 'I' for Inactive)
REMARK    1  A    between atoms: C_2  and  C_3
REMARK    2  A    between atoms: C_3  and  N_4
REMARK    3  A    between atoms: C_8  and  C_9
REMARK    4  A    between atoms: C_12  and  C_13
REMARK                            x       y       z     vdW  Elec       q    Type
REMARK                         _______ _______ _______ _____ _____    ______ ____
ROOT
ATOM      1  N   UNL     1       6.969   6.398  16.477  0.00  0.00    +0.000 NA
ATOM      2  C   UNL     1       7.243   5.145  15.755  0.00  0.00    +0.000 C 
ATOM      3  C   UNL     1       6.174   4.129  16.199  0.00  0.00    +0.000 C 
ATOM      4  C   UNL     1       4.900   4.217  15.345  0.00  0.00    +0.000 C 
ATOM      5  C   UNL     1       4.994   5.034  16.604  0.00  0.00    +0.000 C 
ATOM      6  C   UNL     1       5.498   6.466  16.485  0.00  0.00    +0.000 C 
ENDROOT
BRANCH   5   7
ATOM      7  C   UNL     1       3.968   4.660  17.639  0.00  0.00    +0.000 A 
ATOM      8  C   UNL     1       4.044   5.125  18.961  0.00  0.00    +0.000 A 
ATOM      9  C   UNL     1       3.058   4.772  19.890  0.00  0.00    +0.000 A 
ATOM     10  C   UNL     1       1.986   3.950  19.504  0.00  0.00    +0.000 A 
ATOM     11  C   UNL     1       0.928   3.548  20.490  0.00  0.00    +0.000 C 
ATOM     12  C   UNL     1       1.904   3.502  18.180  0.00  0.00    +0.000 A 
ATOM     13  C   UNL     1       2.889   3.851  17.255  0.00  0.00    +0.000 A 
ENDBRANCH   5   7
BRANCH   1  14
ATOM     14  C   UNL     1       7.518   6.277  17.853  0.00  0.00    +0.000 C 
BRANCH  14  16
ATOM     15  C   UNL     1       8.024   8.700  17.687  0.00  0.00    +0.000 C 
ATOM     16  C   UNL     1       8.121   7.554  18.363  0.00  0.00    +0.000 C 
ENDBRANCH  14  16
ENDBRANCH   1  14
TORSDOF 3
ENDMDL
MODEL 2
REMARK VINA RESULT:      -6.8      0.595      1.339
REMARK  Name = 
REMARK  4 active torsions:
REMARK  status: ('A' for Active; 'I' for Inactive)
REMARK    1  A    between atoms: C_2  and  C_3
REMARK    2  A    between atoms: C_3  and  N_4
REMARK    3  A    between atoms: C_8  and  C_9
REMARK    4  A    between atoms: C_12  and  C_13
REMARK                            x       y       z     vdW  Elec       q    Type
REMARK                         _______ _______ _______ _____ _____    ______ ____
ROOT
ATOM      1  N   UNL     1       6.462   6.691  16.214  0.00  0.00    +0.000 NA
ATOM      2  C   UNL     1       7.266   5.460  16.136  0.00  0.00    +0.000 C 
ATOM      3  C   UNL     1       6.442   4.345  16.808  0.00  0.00    +0.000 C 
ATOM      4  C   UNL     1       5.486   3.656  15.823  0.00  0.00    +0.000 C 
ATOM      5  C   UNL     1       4.993   4.832  16.618  0.00  0.00    +0.000 C 
ATOM      6  C   UNL     1       5.090   6.211  15.980  0.00  0.00    +0.000 C 
ENDROOT
BRANCH   5   7
ATOM      7  C   UNL     1       3.865   4.491  17.554  0.00  0.00    +0.000 A 
ATOM      8  C   UNL     1       2.905   3.519  17.237  0.00  0.00    +0.000 A 
ATOM      9  C   UNL     1       1.883   3.216  18.144  0.00  0.00    +0.000 A 
ATOM     10  C   UNL     1       1.813   3.883  19.378  0.00  0.00    +0.000 A 
ATOM     11  C   UNL     1       0.715   3.582  20.357  0.00  0.00    +0.000 C 
ATOM     12  C   UNL     1       2.782   4.840  19.699  0.00  0.00    +0.000 A 
ATOM     13  C   UNL     1       3.800   5.145  18.793  0.00  0.00    +0.000 A 
ENDBRANCH   5   7
BRANCH   1  14
ATOM     14  C   UNL     1       6.615   7.266  17.577  0.00  0.00    +0.000 C 
BRANCH  14  16
ATOM     15  C   UNL     1       8.231   9.092  18.036  0.00  0.00    +0.000 C 
ATOM     16  C   UNL     1       7.996   7.794  17.843  0.00  0.00    +0.000 C 
ENDBRANCH  14  16
ENDBRANCH   1  14
TORSDOF 3
ENDMDL
MODEL 3
REMARK VINA RESULT:      -6.7      2.335      5.503
REMARK  Name = 
REMARK  4 active torsions:
REMARK  status: ('A' for Active; 'I' for Inactive)
REMARK    1  A    between atoms: C_2  and  C_3
REMARK    2  A    between atoms: C_3  and  N_4
REMARK    3  A    between atoms: C_8  and  C_9
REMARK    4  A    between atoms: C_12  and  C_13
REMARK                            x       y       z     vdW  Elec       q    Type
REMARK                         _______ _______ _______ _____ _____    ______ ____
ROOT
ATOM      1  N   UNL     1       1.544   2.815  20.191  0.00  0.00    +0.000 NA
ATOM      2  C   UNL     1       1.205   2.131  18.932  0.00  0.00    +0.000 C 
ATOM      3  C   UNL     1       2.216   2.611  17.874  0.00  0.00    +0.000 C 
ATOM      4  C   UNL     1       3.495   1.761  17.866  0.00  0.00    +0.000 C 
ATOM      5  C   UNL     1       3.442   2.993  18.726  0.00  0.00    +0.000 C 
ATOM      6  C   UNL     1       3.017   2.828  20.179  0.00  0.00    +0.000 C 
ENDROOT
BRANCH   5   7
ATOM      7  C   UNL     1       4.443   4.044  18.330  0.00  0.00    +0.000 A 
ATOM      8  C   UNL     1       4.459   4.607  17.045  0.00  0.00    +0.000 A 
ATOM      9  C   UNL     1       5.393   5.598  16.721  0.00  0.00    +0.000 A 
ATOM     10  C   UNL     1       6.320   6.036  17.682  0.00  0.00    +0.000 A 
ATOM     11  C   UNL     1       7.340   7.087  17.349  0.00  0.00    +0.000 C 
ATOM     12  C   UNL     1       6.290   5.484  18.968  0.00  0.00    +0.000 A 
ATOM     13  C   UNL     1       5.361   4.494  19.290  0.00  0.00    +0.000 A 
ENDBRANCH   5   7
BRANCH   1  14
ATOM     14  C   UNL     1       0.986   4.192  20.142  0.00  0.00    +0.000 C 
BRANCH  14  16
ATOM     15  C   UNL     1       2.179   6.368  20.138  0.00  0.00    +0.000 C 
ATOM     16  C   UNL     1       1.896   5.219  20.754  0.00  0.00    +0.000 C 
ENDBRANCH  14  16
ENDBRANCH   1  14
TORSDOF 3
ENDMDL
MODEL 4
REMARK VINA RESULT:      -6.7      1.457      3.025
REMARK  Name = 
REMARK  4 active torsions:
REMARK  status: ('A' for Active; 'I' for Inactive)
REMARK    1  A    between atoms: C_2  and  C_3
REMARK    2  A    between atoms: C_3  and  N_4
REMARK    3  A    between atoms: C_8  and  C_9
REMARK    4  A    between atoms: C_12  and  C_13
REMARK                            x       y       z     vdW  Elec       q    Type
REMARK                         _______ _______ _______ _____ _____    ______ ____
ROOT
ATOM      1  N   UNL     1       7.275   5.185  16.051  0.00  0.00    +0.000 NA
ATOM      2  C   UNL     1       7.256   6.417  16.856  0.00  0.00    +0.000 C 
ATOM      3  C   UNL     1       6.039   6.321  17.794  0.00  0.00    +0.000 C 
ATOM      4  C   UNL     1       6.373   5.596  19.107  0.00  0.00    +0.000 C 
ATOM      5  C   UNL     1       5.846   4.800  17.946  0.00  0.00    +0.000 C 
ATOM      6  C   UNL     1       6.858   4.150  17.013  0.00  0.00    +0.000 C 
ENDROOT
BRANCH   5   7
ATOM      7  C   UNL     1       4.518   4.147  18.221  0.00  0.00    +0.000 A 
ATOM      8  C   UNL     1       4.044   3.951  19.526  0.00  0.00    +0.000 A 
ATOM      9  C   UNL     1       2.794   3.358  19.740  0.00  0.00    +0.000 A 
ATOM     10  C   UNL     1       2.007   2.957  18.648  0.00  0.00    +0.000 A 
ATOM     11  C   UNL     1       0.670   2.306  18.857  0.00  0.00    +0.000 C 
ATOM     12  C   UNL     1       2.475   3.170  17.346  0.00  0.00    +0.000 A 
ATOM     13  C   UNL     1       3.723   3.758  17.133  0.00  0.00    +0.000 A 
ENDBRANCH   5   7
BRANCH   1  14
ATOM     14  C   UNL     1       6.290   5.331  14.946  0.00  0.00    +0.000 C 
BRANCH  14  16
ATOM     15  C   UNL     1       6.342   3.756  13.030  0.00  0.00    +0.000 C 
ATOM     16  C   UNL     1       5.957   4.028  14.277  0.00  0.00    +0.000 C 
ENDBRANCH  14  16
ENDBRANCH   1  14
TORSDOF 3
ENDMDL
MODEL 5
REMARK VINA RESULT:      -6.6      2.469      5.708
REMARK  Name = 
REMARK  4 active torsions:
REMARK  status: ('A' for Active; 'I' for Inactive)
REMARK    1  A    between atoms: C_2  and  C_3
REMARK    2  A    between atoms: C_3  and  N_4
REMARK    3  A    between atoms: C_8  and  C_9
REMARK    4  A    between atoms: C_12  and  C_13
REMARK                            x       y       z     vdW  Elec       q    Type
REMARK                         _______ _______ _______ _____ _____    ______ ____
ROOT
ATOM      1  N   UNL     1       1.460   4.121  19.670  0.00  0.00    +0.000 NA
ATOM      2  C   UNL     1       1.822   5.296  20.480  0.00  0.00    +0.000 C 
ATOM      3  C   UNL     1       2.995   5.991  19.762  0.00  0.00    +0.000 C 
ATOM      4  C   UNL     1       2.514   7.000  18.708  0.00  0.00    +0.000 C 
ATOM      5  C   UNL     1       2.783   5.581  18.292  0.00  0.00    +0.000 C 
ATOM      6  C   UNL     1       1.613   4.607  18.288  0.00  0.00    +0.000 C 
ENDROOT
BRANCH   5   7
ATOM      7  C   UNL     1       3.898   5.452  17.289  0.00  0.00    +0.000 A 
ATOM      8  C   UNL     1       4.599   6.569  16.811  0.00  0.00    +0.000 A 
ATOM      9  C   UNL     1       5.644   6.405  15.894  0.00  0.00    +0.000 A 
ATOM     10  C   UNL     1       5.999   5.121  15.449  0.00  0.00    +0.000 A 
ATOM     11  C   UNL     1       7.108   4.927  14.455  0.00  0.00    +0.000 C 
ATOM     12  C   UNL     1       5.310   4.007  15.943  0.00  0.00    +0.000 A 
ATOM     13  C   UNL     1       4.265   4.170  16.854  0.00  0.00    +0.000 A 
ENDBRANCH   5   7
BRANCH   1  14
ATOM     14  C   UNL     1       2.421   3.027  19.973  0.00  0.00    +0.000 C 
BRANCH  14  16
ATOM     15  C   UNL     1       3.544   1.334  18.549  0.00  0.00    +0.000 C 
ATOM     16  C   UNL     1       2.421   1.939  18.938  0.00  0.00    +0.000 C 
ENDBRANCH  14  16
ENDBRANCH   1  14
TORSDOF 3
ENDMDL
MODEL 6
REMARK VINA RESULT:      -6.6      1.493      3.215
REMARK  Name = 
REMARK  4 active torsions:
REMARK  status: ('A' for Active; 'I' for Inactive)
REMARK    1  A    between atoms: C_2  and  C_3
REMARK    2  A    between atoms: C_3  and  N_4
REMARK    3  A    between atoms: C_8  and  C_9
REMARK    4  A    between atoms: C_12  and  C_13
REMARK                            x       y       z     vdW  Elec       q    Type
REMARK                         _______ _______ _______ _____ _____    ______ ____
ROOT
ATOM      1  N   UNL     1       7.428   5.186  16.155  0.00  0.00    +0.000 NA
ATOM      2  C   UNL     1       7.344   6.427  16.943  0.00  0.00    +0.000 C 
ATOM      3  C   UNL     1       6.064   6.332  17.794  0.00  0.00    +0.000 C 
ATOM      4  C   UNL     1       6.310   5.623  19.135  0.00  0.00    +0.000 C 
ATOM      5  C   UNL     1       5.872   4.811  17.949  0.00  0.00    +0.000 C 
ATOM      6  C   UNL     1       6.952   4.158  17.097  0.00  0.00    +0.000 C 
ENDROOT
BRANCH   5   7
ATOM      7  C   UNL     1       4.532   4.150  18.137  0.00  0.00    +0.000 A 
ATOM      8  C   UNL     1       3.686   3.870  17.054  0.00  0.00    +0.000 A 
ATOM      9  C   UNL     1       2.456   3.235  17.267  0.00  0.00    +0.000 A 
ATOM     10  C   UNL     1       2.064   2.874  18.567  0.00  0.00    +0.000 A 
ATOM     11  C   UNL     1       0.743   2.206  18.817  0.00  0.00    +0.000 C 
ATOM     12  C   UNL     1       2.919   3.139  19.643  0.00  0.00    +0.000 A 
ATOM     13  C   UNL     1       4.143   3.776  19.431  0.00  0.00    +0.000 A 
ENDBRANCH   5   7
BRANCH   1  14
ATOM     14  C   UNL     1       6.523   5.312  14.982  0.00  0.00    +0.000 C 
BRANCH  14  16
ATOM     15  C   UNL     1       5.325   3.839  13.385  0.00  0.00    +0.000 C 
ATOM     16  C   UNL     1       6.330   4.019  14.244  0.00  0.00    +0.000 C 
ENDBRANCH  14  16
ENDBRANCH   1  14
TORSDOF 3
ENDMDL
MODEL 7
REMARK VINA RESULT:      -6.5      2.397      5.422
REMARK  Name = 
REMARK  4 active torsions:
REMARK  status: ('A' for Active; 'I' for Inactive)
REMARK    1  A    between atoms: C_2  and  C_3
REMARK    2  A    between atoms: C_3  and  N_4
REMARK    3  A    between atoms: C_8  and  C_9
REMARK    4  A    between atoms: C_12  and  C_13
REMARK                            x       y       z     vdW  Elec       q    Type
REMARK                         _______ _______ _______ _____ _____    ______ ____
ROOT
ATOM      1  N   UNL     1       1.453   2.802  20.133  0.00  0.00    +0.000 NA
ATOM      2  C   UNL     1       1.148   2.192  18.827  0.00  0.00    +0.000 C 
ATOM      3  C   UNL     1       2.174   2.749  17.823  0.00  0.00    +0.000 C 
ATOM      4  C   UNL     1       3.465   1.917  17.789  0.00  0.00    +0.000 C 
ATOM      5  C   UNL     1       3.377   3.093  18.721  0.00  0.00    +0.000 C 
ATOM      6  C   UNL     1       2.925   2.834  20.152  0.00  0.00    +0.000 C 
ENDROOT
BRANCH   5   7
ATOM      7  C   UNL     1       4.372   4.179  18.411  0.00  0.00    +0.000 A 
ATOM      8  C   UNL     1       5.593   4.283  19.094  0.00  0.00    +0.000 A 
ATOM      9  C   UNL     1       6.502   5.295  18.761  0.00  0.00    +0.000 A 
ATOM     10  C   UNL     1       6.196   6.211  17.741  0.00  0.00    +0.000 A 
ATOM     11  C   UNL     1       7.152   7.313  17.381  0.00  0.00    +0.000 C 
ATOM     12  C   UNL     1       4.985   6.093  17.050  0.00  0.00    +0.000 A 
ATOM     13  C   UNL     1       4.077   5.086  17.383  0.00  0.00    +0.000 A 
ENDBRANCH   5   7
BRANCH   1  14
ATOM     14  C   UNL     1       0.877   4.173  20.157  0.00  0.00    +0.000 C 
BRANCH  14  16
ATOM     15  C   UNL     1       1.990   6.388  20.265  0.00  0.00    +0.000 C 
ATOM     16  C   UNL     1       1.785   5.182  20.799  0.00  0.00    +0.000 C 
ENDBRANCH  14  16
ENDBRANCH   1  14
TORSDOF 3
ENDMDL
MODEL 8
REMARK VINA RESULT:      -6.5      2.489      5.841
REMARK  Name = 
REMARK  4 active torsions:
REMARK  status: ('A' for Active; 'I' for Inactive)
REMARK    1  A    between atoms: C_2  and  C_3
REMARK    2  A    between atoms: C_3  and  N_4
REMARK    3  A    between atoms: C_8  and  C_9
REMARK    4  A    between atoms: C_12  and  C_13
REMARK                            x       y       z     vdW  Elec       q    Type
REMARK                         _______ _______ _______ _____ _____    ______ ____
ROOT
ATOM      1  N   UNL     1       1.004   3.086  19.310  0.00  0.00    +0.000 NA
ATOM      2  C   UNL     1       0.992   3.560  20.704  0.00  0.00    +0.000 C 
ATOM      3  C   UNL     1       2.189   4.516  20.862  0.00  0.00    +0.000 C 
ATOM      4  C   UNL     1       1.832   5.961  20.480  0.00  0.00    +0.000 C 
ATOM      5  C   UNL     1       2.392   5.045  19.429  0.00  0.00    +0.000 C 
ATOM      6  C   UNL     1       1.408   4.282  18.553  0.00  0.00    +0.000 C 
ENDROOT
BRANCH   5   7
ATOM      7  C   UNL     1       3.720   5.499  18.884  0.00  0.00    +0.000 A 
ATOM      8  C   UNL     1       4.935   5.010  19.388  0.00  0.00    +0.000 A 
ATOM      9  C   UNL     1       6.149   5.442  18.839  0.00  0.00    +0.000 A 
ATOM     10  C   UNL     1       6.157   6.365  17.781  0.00  0.00    +0.000 A 
ATOM     11  C   UNL     1       7.450   6.850  17.190  0.00  0.00    +0.000 C 
ATOM     12  C   UNL     1       4.943   6.836  17.269  0.00  0.00    +0.000 A 
ATOM     13  C   UNL     1       3.732   6.409  17.818  0.00  0.00    +0.000 A 
ENDBRANCH   5   7
BRANCH   1  14
ATOM     14  C   UNL     1       2.012   1.999  19.193  0.00  0.00    +0.000 C 
BRANCH  14  16
ATOM     15  C   UNL     1       4.022   1.833  17.749  0.00  0.00    +0.000 C 
ATOM     16  C   UNL     1       2.701   1.976  17.858  0.00  0.00    +0.000 C 
ENDBRANCH  14  16
ENDBRANCH   1  14
TORSDOF 3
ENDMDL
MODEL 9
REMARK VINA RESULT:      -6.5      2.858      4.883
REMARK  Name = 
REMARK  4 active torsions:
REMARK  status: ('A' for Active; 'I' for Inactive)
REMARK    1  A    between atoms: C_2  and  C_3
REMARK    2  A    between atoms: C_3  and  N_4
REMARK    3  A    between atoms: C_8  and  C_9
REMARK    4  A    between atoms: C_12  and  C_13
REMARK                            x       y       z     vdW  Elec       q    Type
REMARK                         _______ _______ _______ _____ _____    ______ ____
ROOT
ATOM      1  N   UNL     1       4.194   3.003  18.974  0.00  0.00    +0.000 NA
ATOM      2  C   UNL     1       4.121   2.996  17.503  0.00  0.00    +0.000 C 
ATOM      3  C   UNL     1       3.490   4.336  17.080  0.00  0.00    +0.000 C 
ATOM      4  C   UNL     1       4.539   5.446  16.916  0.00  0.00    +0.000 C 
ATOM      5  C   UNL     1       3.863   5.270  18.247  0.00  0.00    +0.000 C 
ATOM      6  C   UNL     1       4.554   4.397  19.285  0.00  0.00    +0.000 C 
ENDROOT
BRANCH   5   7
ATOM      7  C   UNL     1       3.042   6.461  18.663  0.00  0.00    +0.000 A 
ATOM      8  C   UNL     1       2.409   6.525  19.914  0.00  0.00    +0.000 A 
ATOM      9  C   UNL     1       1.671   7.659  20.272  0.00  0.00    +0.000 A 
ATOM     10  C   UNL     1       1.560   8.740  19.382  0.00  0.00    +0.000 A 
ATOM     11  C   UNL     1       0.760   9.959  19.744  0.00  0.00    +0.000 C 
ATOM     12  C   UNL     1       2.207   8.680  18.142  0.00  0.00    +0.000 A 
ATOM     13  C   UNL     1       2.940   7.548  17.783  0.00  0.00    +0.000 A 
ENDBRANCH   5   7
BRANCH   1  14
ATOM     14  C   UNL     1       2.853   2.652  19.512  0.00  0.00    +0.000 C 
BRANCH  14  16
ATOM     15  C   UNL     1       1.551   3.179  21.557  0.00  0.00    +0.000 C 
ATOM     16  C   UNL     1       2.725   2.906  20.987  0.00  0.00    +0.000 C 
ENDBRANCH  14  16
ENDBRANCH   1  14
TORSDOF 3
ENDMDL
