MODEL 1
REMARK VINA RESULT:      -6.9      0.000      0.000
REMARK  Name = 
REMARK  2 active torsions:
REMARK  status: ('A' for Active; 'I' for Inactive)
REMARK    1  A    between atoms: C_1  and  C_2
REMARK    2  A    between atoms: C_2  and  C_3
REMARK                            x       y       z     vdW  Elec       q    Type
REMARK                         _______ _______ _______ _____ _____    ______ ____
ROOT
ATOM      1  C   UNL     1       6.387   7.034  17.085  0.00  0.00    +0.000 C 
ATOM      2  O   UNL     1       5.949   7.553  16.075  0.00  0.00    +0.000 OA
ATOM      3  N   UNL     1       5.706   6.014  17.793  0.00  0.00    +0.000 N 
ATOM      4  C   UNL     1       6.375   5.478  18.967  0.00  0.00    +0.000 C 
ATOM      5  C   UNL     1       6.214   3.998  19.115  0.00  0.00    +0.000 C 
ATOM      6  N   UNL     1       4.850   3.628  19.126  0.00  0.00    +0.000 N 
ATOM      7  C   UNL     1       4.504   2.727  20.080  0.00  0.00    +0.000 C 
ATOM      8  O   UNL     1       5.220   1.976  20.698  0.00  0.00    +0.000 OA
ATOM      9  C   UNL     1       3.111   2.914  20.326  0.00  0.00    +0.000 A 
ATOM     10  C   UNL     1       2.507   2.391  21.462  0.00  0.00    +0.000 A 
ATOM     11  C   UNL     1       1.153   2.577  21.555  0.00  0.00    +0.000 A 
ATOM     12  C   UNL     1       0.492   3.206  20.487  0.00  0.00    +0.000 A 
ATOM     13  C   UNL     1       1.184   3.825  19.382  0.00  0.00    +0.000 A 
ATOM     14  C   UNL     1       2.564   3.754  19.332  0.00  0.00    +0.000 A 
ATOM     15  C   UNL     1       3.760   4.548  18.749  0.00  0.00    +0.000 C 
ATOM     16  C   UNL     1       4.289   5.395  17.478  0.00  0.00    +0.000 C 
ENDROOT
BRANCH   1  18
ATOM     17  C   UNL     1       8.112   8.912  17.942  0.00  0.00    +0.000 C 
ATOM     18  C   UNL     1       7.769   7.455  17.716  0.00  0.00    +0.000 C 
ENDBRANCH   1  18
TORSDOF 1
ENDMDL
MODEL 2
REMARK VINA RESULT:      -6.8      2.421      3.245
REMARK  Name = 
REMARK  2 active torsions:
REMARK  status: ('A' for Active; 'I' for Inactive)
REMARK    1  A    between atoms: C_1  and  C_2
REMARK    2  A    between atoms: C_2  and  C_3
REMARK                            x       y       z     vdW  Elec       q    Type
REMARK                         _______ _______ _______ _____ _____    ______ ____
ROOT
ATOM      1  C   UNL     1       7.058   4.618  16.126  0.00  0.00    +0.000 C 
ATOM      2  O   UNL     1       8.143   4.153  16.425  0.00  0.00    +0.000 OA
ATOM      3  N   UNL     1       5.969   4.695  17.028  0.00  0.00    +0.000 N 
ATOM      4  C   UNL     1       4.748   5.303  16.526  0.00  0.00    +0.000 C 
ATOM      5  C   UNL     1       4.062   6.170  17.533  0.00  0.00    +0.000 C 
ATOM      6  N   UNL     1       3.792   5.459  18.724  0.00  0.00    +0.000 N 
ATOM      7  C   UNL     1       2.549   5.643  19.237  0.00  0.00    +0.000 C 
ATOM      8  O   UNL     1       1.771   6.539  19.015  0.00  0.00    +0.000 OA
ATOM      9  C   UNL     1       2.259   4.485  20.020  0.00  0.00    +0.000 A 
ATOM     10  C   UNL     1       0.961   4.194  20.417  0.00  0.00    +0.000 A 
ATOM     11  C   UNL     1       0.817   3.095  21.221  0.00  0.00    +0.000 A 
ATOM     12  C   UNL     1       1.974   2.409  21.625  0.00  0.00    +0.000 A 
ATOM     13  C   UNL     1       3.287   2.690  21.096  0.00  0.00    +0.000 A 
ATOM     14  C   UNL     1       3.435   3.721  20.186  0.00  0.00    +0.000 A 
ATOM     15  C   UNL     1       4.373   4.137  19.025  0.00  0.00    +0.000 C 
ATOM     16  C   UNL     1       5.907   4.180  18.519  0.00  0.00    +0.000 C 
ENDROOT
BRANCH   1  18
ATOM     17  C   UNL     1       6.591   4.252  13.502  0.00  0.00    +0.000 C 
ATOM     18  C   UNL     1       6.752   5.181  14.686  0.00  0.00    +0.000 C 
ENDBRANCH   1  18
TORSDOF 1
ENDMDL
MODEL 3
REMARK VINA RESULT:      -6.7      2.433      6.410
REMARK  Name = 
REMARK  2 active torsions:
REMARK  status: ('A' for Active; 'I' for Inactive)
REMARK    1  A    between atoms: C_1  and  C_2
REMARK    2  A    between atoms: C_2  and  C_3
REMARK                            x       y       z     vdW  Elec       q    Type
REMARK                         _______ _______ _______ _____ _____    ______ ____
ROOT
ATOM      1  C   UNL     1       1.063   2.952  19.424  0.00  0.00    +0.000 C 
ATOM      2  O   UNL     1       0.256   2.190  18.924  0.00  0.00    +0.000 OA
ATOM      3  N   UNL     1       2.056   3.633  18.677  0.00  0.00    +0.000 N 
ATOM      4  C   UNL     1       2.927   4.530  19.418  0.00  0.00    +0.000 C 
ATOM      5  C   UNL     1       3.243   5.791  18.679  0.00  0.00    +0.000 C 
ATOM      6  N   UNL     1       3.799   5.518  17.409  0.00  0.00    +0.000 N 
ATOM      7  C   UNL     1       4.882   6.267  17.080  0.00  0.00    +0.000 C 
ATOM      8  O   UNL     1       5.240   7.317  17.556  0.00  0.00    +0.000 OA
ATOM      9  C   UNL     1       5.622   5.509  16.123  0.00  0.00    +0.000 A 
ATOM     10  C   UNL     1       6.939   5.826  15.821  0.00  0.00    +0.000 A 
ATOM     11  C   UNL     1       7.523   5.071  14.840  0.00  0.00    +0.000 A 
ATOM     12  C   UNL     1       6.738   4.106  14.186  0.00  0.00    +0.000 A 
ATOM     13  C   UNL     1       5.408   3.745  14.613  0.00  0.00    +0.000 A 
ATOM     14  C   UNL     1       4.845   4.415  15.685  0.00  0.00    +0.000 A 
ATOM     15  C   UNL     1       3.791   4.176  16.795  0.00  0.00    +0.000 C 
ATOM     16  C   UNL     1       2.351   3.523  17.131  0.00  0.00    +0.000 C 
ENDROOT
BRANCH   1  18
ATOM     17  C   UNL     1       1.851   2.365  21.928  0.00  0.00    +0.000 C 
ATOM     18  C   UNL     1       1.088   3.255  20.970  0.00  0.00    +0.000 C 
ENDBRANCH   1  18
TORSDOF 1
ENDMDL
MODEL 4
REMARK VINA RESULT:      -6.6      2.698      6.526
REMARK  Name = 
REMARK  2 active torsions:
REMARK  status: ('A' for Active; 'I' for Inactive)
REMARK    1  A    between atoms: C_1  and  C_2
REMARK    2  A    between atoms: C_2  and  C_3
REMARK                            x       y       z     vdW  Elec       q    Type
REMARK                         _______ _______ _______ _____ _____    ______ ____
ROOT
ATOM      1  C   UNL     1       2.445   2.727  19.343  0.00  0.00    +0.000 C 
ATOM      2  O   UNL     1       1.432   2.133  19.020  0.00  0.00    +0.000 OA
ATOM      3  N   UNL     1       3.280   3.400  18.419  0.00  0.00    +0.000 N 
ATOM      4  C   UNL     1       4.439   4.085  18.966  0.00  0.00    +0.000 C 
ATOM      5  C   UNL     1       4.714   5.400  18.308  0.00  0.00    +0.000 C 
ATOM      6  N   UNL     1       4.856   5.255  16.910  0.00  0.00    +0.000 N 
ATOM      7  C   UNL     1       5.902   5.926  16.363  0.00  0.00    +0.000 C 
ATOM      8  O   UNL     1       6.521   6.854  16.825  0.00  0.00    +0.000 OA
ATOM      9  C   UNL     1       6.235   5.241  15.156  0.00  0.00    +0.000 A 
ATOM     10  C   UNL     1       7.450   5.458  14.521  0.00  0.00    +0.000 A 
ATOM     11  C   UNL     1       7.629   4.795  13.336  0.00  0.00    +0.000 A 
ATOM     12  C   UNL     1       6.567   4.022  12.839  0.00  0.00    +0.000 A 
ATOM     13  C   UNL     1       5.368   3.744  13.593  0.00  0.00    +0.000 A 
ATOM     14  C   UNL     1       5.221   4.308  14.847  0.00  0.00    +0.000 A 
ATOM     15  C   UNL     1       4.491   4.024  16.184  0.00  0.00    +0.000 C 
ATOM     16  C   UNL     1       3.121   3.484  16.850  0.00  0.00    +0.000 C 
ENDROOT
BRANCH   1  18
ATOM     17  C   UNL     1       1.948   2.876  21.983  0.00  0.00    +0.000 C 
ATOM     18  C   UNL     1       2.936   2.800  20.838  0.00  0.00    +0.000 C 
ENDBRANCH   1  18
TORSDOF 1
ENDMDL
MODEL 5
REMARK VINA RESULT:      -6.5      2.934      3.438
REMARK  Name = 
REMARK  2 active torsions:
REMARK  status: ('A' for Active; 'I' for Inactive)
REMARK    1  A    between atoms: C_1  and  C_2
REMARK    2  A    between atoms: C_2  and  C_3
REMARK                            x       y       z     vdW  Elec       q    Type
REMARK                         _______ _______ _______ _____ _____    ______ ____
ROOT
ATOM      1  C   UNL     1       6.680   4.293  13.529  0.00  0.00    +0.000 C 
ATOM      2  O   UNL     1       6.317   3.500  12.680  0.00  0.00    +0.000 OA
ATOM      3  N   UNL     1       6.148   4.326  14.841  0.00  0.00    +0.000 N 
ATOM      4  C   UNL     1       6.706   5.317  15.746  0.00  0.00    +0.000 C 
ATOM      5  C   UNL     1       6.879   4.810  17.143  0.00  0.00    +0.000 C 
ATOM      6  N   UNL     1       5.664   4.312  17.663  0.00  0.00    +0.000 N 
ATOM      7  C   UNL     1       5.379   4.696  18.934  0.00  0.00    +0.000 C 
ATOM      8  O   UNL     1       6.133   5.126  19.774  0.00  0.00    +0.000 OA
ATOM      9  C   UNL     1       3.961   4.620  19.071  0.00  0.00    +0.000 A 
ATOM     10  C   UNL     1       3.307   5.247  20.123  0.00  0.00    +0.000 A 
ATOM     11  C   UNL     1       1.954   5.047  20.188  0.00  0.00    +0.000 A 
ATOM     12  C   UNL     1       1.363   4.188  19.246  0.00  0.00    +0.000 A 
ATOM     13  C   UNL     1       2.071   3.649  18.111  0.00  0.00    +0.000 A 
ATOM     14  C   UNL     1       3.415   3.940  17.960  0.00  0.00    +0.000 A 
ATOM     15  C   UNL     1       4.471   4.063  16.833  0.00  0.00    +0.000 C 
ATOM     16  C   UNL     1       4.999   3.428  15.444  0.00  0.00    +0.000 C 
ENDROOT
BRANCH   1  18
ATOM     17  C   UNL     1       8.049   5.881  11.843  0.00  0.00    +0.000 C 
ATOM     18  C   UNL     1       7.786   5.380  13.247  0.00  0.00    +0.000 C 
ENDBRANCH   1  18
TORSDOF 1
ENDMDL
MODEL 6
REMARK VINA RESULT:      -6.5      4.074      6.351
REMARK  Name = 
REMARK  2 active torsions:
REMARK  status: ('A' for Active; 'I' for Inactive)
REMARK    1  A    between atoms: C_1  and  C_2
REMARK    2  A    between atoms: C_2  and  C_3
REMARK                            x       y       z     vdW  Elec       q    Type
REMARK                         _______ _______ _______ _____ _____    ______ ____
ROOT
ATOM      1  C   UNL     1       2.524   2.933  20.131  0.00  0.00    +0.000 C 
ATOM      2  O   UNL     1       2.774   2.455  21.223  0.00  0.00    +0.000 OA
ATOM      3  N   UNL     1       2.348   4.320  19.911  0.00  0.00    +0.000 N 
ATOM      4  C   UNL     1       2.081   4.735  18.544  0.00  0.00    +0.000 C 
ATOM      5  C   UNL     1       2.775   6.004  18.164  0.00  0.00    +0.000 C 
ATOM      6  N   UNL     1       2.454   7.052  19.057  0.00  0.00    +0.000 N 
ATOM      7  C   UNL     1       2.163   8.241  18.470  0.00  0.00    +0.000 C 
ATOM      8  O   UNL     1       2.436   8.614  17.356  0.00  0.00    +0.000 OA
ATOM      9  C   UNL     1       1.338   8.954  19.391  0.00  0.00    +0.000 A 
ATOM     10  C   UNL     1       0.597  10.056  18.986  0.00  0.00    +0.000 A 
ATOM     11  C   UNL     1      -0.103  10.699  19.972  0.00  0.00    +0.000 A 
ATOM     12  C   UNL     1       0.038  10.243  21.293  0.00  0.00    +0.000 A 
ATOM     13  C   UNL     1       0.735   9.029  21.643  0.00  0.00    +0.000 A 
ATOM     14  C   UNL     1       1.347   8.297  20.641  0.00  0.00    +0.000 A 
ATOM     15  C   UNL     1       1.765   6.835  20.343  0.00  0.00    +0.000 C 
ATOM     16  C   UNL     1       2.384   5.483  20.977  0.00  0.00    +0.000 C 
ENDROOT
BRANCH   1  18
ATOM     17  C   UNL     1       3.572   1.482  18.122  0.00  0.00    +0.000 C 
ATOM     18  C   UNL     1       2.363   2.042  18.840  0.00  0.00    +0.000 C 
ENDBRANCH   1  18
TORSDOF 1
ENDMDL
MODEL 7
REMARK VINA RESULT:      -6.2      3.465      4.346
REMARK  Name = 
REMARK  2 active torsions:
REMARK  status: ('A' for Active; 'I' for Inactive)
REMARK    1  A    between atoms: C_1  and  C_2
REMARK    2  A    between atoms: C_2  and  C_3
REMARK                            x       y       z     vdW  Elec       q    Type
REMARK                         _______ _______ _______ _____ _____    ______ ____
ROOT
ATOM      1  C   UNL     1       6.836   5.433  16.912  0.00  0.00    +0.000 C 
ATOM      2  O   UNL     1       7.114   5.629  15.743  0.00  0.00    +0.000 OA
ATOM      3  N   UNL     1       5.640   5.894  17.514  0.00  0.00    +0.000 N 
ATOM      4  C   UNL     1       5.442   5.555  18.914  0.00  0.00    +0.000 C 
ATOM      5  C   UNL     1       4.028   5.197  19.241  0.00  0.00    +0.000 C 
ATOM      6  N   UNL     1       3.136   6.226  18.864  0.00  0.00    +0.000 N 
ATOM      7  C   UNL     1       2.189   6.536  19.786  0.00  0.00    +0.000 C 
ATOM      8  O   UNL     1       1.805   5.873  20.718  0.00  0.00    +0.000 OA
ATOM      9  C   UNL     1       1.799   7.884  19.526  0.00  0.00    +0.000 A 
ATOM     10  C   UNL     1       1.096   8.622  20.470  0.00  0.00    +0.000 A 
ATOM     11  C   UNL     1       0.718   9.879  20.082  0.00  0.00    +0.000 A 
ATOM     12  C   UNL     1       1.006  10.285  18.768  0.00  0.00    +0.000 A 
ATOM     13  C   UNL     1       1.832   9.520  17.865  0.00  0.00    +0.000 A 
ATOM     14  C   UNL     1       2.327   8.298  18.284  0.00  0.00    +0.000 A 
ATOM     15  C   UNL     1       3.528   7.360  18.005  0.00  0.00    +0.000 C 
ATOM     16  C   UNL     1       4.494   6.758  16.857  0.00  0.00    +0.000 C 
ENDROOT
BRANCH   1  18
ATOM     17  C   UNL     1       8.306   5.276  19.160  0.00  0.00    +0.000 C 
ATOM     18  C   UNL     1       7.793   4.643  17.884  0.00  0.00    +0.000 C 
ENDBRANCH   1  18
TORSDOF 1
ENDMDL
MODEL 8
REMARK VINA RESULT:      -6.1      2.086      2.618
REMARK  Name = 
REMARK  2 active torsions:
REMARK  status: ('A' for Active; 'I' for Inactive)
REMARK    1  A    between atoms: C_1  and  C_2
REMARK    2  A    between atoms: C_2  and  C_3
REMARK                            x       y       z     vdW  Elec       q    Type
REMARK                         _______ _______ _______ _____ _____    ______ ____
ROOT
ATOM      1  C   UNL     1       6.858   5.963  16.340  0.00  0.00    +0.000 C 
ATOM      2  O   UNL     1       7.192   7.109  16.581  0.00  0.00    +0.000 OA
ATOM      3  N   UNL     1       5.739   5.336  16.940  0.00  0.00    +0.000 N 
ATOM      4  C   UNL     1       5.456   3.972  16.526  0.00  0.00    +0.000 C 
ATOM      5  C   UNL     1       3.995   3.690  16.378  0.00  0.00    +0.000 C 
ATOM      6  N   UNL     1       3.291   3.989  17.566  0.00  0.00    +0.000 N 
ATOM      7  C   UNL     1       2.386   3.053  17.952  0.00  0.00    +0.000 C 
ATOM      8  O   UNL     1       1.877   2.183  17.287  0.00  0.00    +0.000 OA
ATOM      9  C   UNL     1       2.225   3.203  19.362  0.00  0.00    +0.000 A 
ATOM     10  C   UNL     1       1.629   2.209  20.126  0.00  0.00    +0.000 A 
ATOM     11  C   UNL     1       1.470   2.494  21.455  0.00  0.00    +0.000 A 
ATOM     12  C   UNL     1       1.850   3.767  21.914  0.00  0.00    +0.000 A 
ATOM     13  C   UNL     1       2.563   4.722  21.099  0.00  0.00    +0.000 A 
ATOM     14  C   UNL     1       2.843   4.402  19.783  0.00  0.00    +0.000 A 
ATOM     15  C   UNL     1       3.882   4.746  18.686  0.00  0.00    +0.000 C 
ATOM     16  C   UNL     1       4.764   5.930  18.029  0.00  0.00    +0.000 C 
ENDROOT
BRANCH   1  18
ATOM     17  C   UNL     1       7.320   5.052  13.851  0.00  0.00    +0.000 C 
ATOM     18  C   UNL     1       7.651   5.051  15.328  0.00  0.00    +0.000 C 
ENDBRANCH   1  18
TORSDOF 1
ENDMDL
MODEL 9
REMARK VINA RESULT:      -6.0      1.407      6.442
REMARK  Name = 
REMARK  2 active torsions:
REMARK  status: ('A' for Active; 'I' for Inactive)
REMARK    1  A    between atoms: C_1  and  C_2
REMARK    2  A    between atoms: C_2  and  C_3
REMARK                            x       y       z     vdW  Elec       q    Type
REMARK                         _______ _______ _______ _____ _____    ______ ____
ROOT
ATOM      1  C   UNL     1       2.255   2.867  20.681  0.00  0.00    +0.000 C 
ATOM      2  O   UNL     1       2.569   2.230  21.670  0.00  0.00    +0.000 OA
ATOM      3  N   UNL     1       3.192   3.537  19.858  0.00  0.00    +0.000 N 
ATOM      4  C   UNL     1       2.661   4.232  18.698  0.00  0.00    +0.000 C 
ATOM      5  C   UNL     1       3.525   4.103  17.484  0.00  0.00    +0.000 C 
ATOM      6  N   UNL     1       4.844   4.538  17.744  0.00  0.00    +0.000 N 
ATOM      7  C   UNL     1       5.389   5.332  16.787  0.00  0.00    +0.000 C 
ATOM      8  O   UNL     1       5.049   5.460  15.636  0.00  0.00    +0.000 OA
ATOM      9  C   UNL     1       6.395   6.111  17.433  0.00  0.00    +0.000 A 
ATOM     10  C   UNL     1       6.920   7.246  16.831  0.00  0.00    +0.000 A 
ATOM     11  C   UNL     1       7.926   7.873  17.517  0.00  0.00    +0.000 A 
ATOM     12  C   UNL     1       8.381   7.290  18.712  0.00  0.00    +0.000 A 
ATOM     13  C   UNL     1       7.727   6.171  19.346  0.00  0.00    +0.000 A 
ATOM     14  C   UNL     1       6.630   5.599  18.728  0.00  0.00    +0.000 A 
ATOM     15  C   UNL     1       5.355   4.802  19.102  0.00  0.00    +0.000 C 
ATOM     16  C   UNL     1       4.755   3.643  20.055  0.00  0.00    +0.000 C 
ENDROOT
BRANCH   1  18
ATOM     17  C   UNL     1       0.271   2.392  18.927  0.00  0.00    +0.000 C 
ATOM     18  C   UNL     1       0.756   3.017  20.218  0.00  0.00    +0.000 C 
ENDBRANCH   1  18
TORSDOF 1
ENDMDL
