MODEL 1
REMARK VINA RESULT:      -7.4      0.000      0.000
REMARK  Name = 
REMARK  4 active torsions:
REMARK  status: ('A' for Active; 'I' for Inactive)
REMARK    1  A    between atoms: C_1  and  C_2
REMARK    2  A    between atoms: C_2  and  C_3
REMARK    3  A    between atoms: C_2  and  N_4
REMARK    4  A    between atoms: C_8  and  C_9
REMARK                            x       y       z     vdW  Elec       q    Type
REMARK                         _______ _______ _______ _____ _____    ______ ____
ROOT
ATOM      1  N   UNL     1      -1.892  13.222  19.504  0.00  0.00    +0.000 N 
ATOM      2  C   UNL     1      -3.178  12.939  19.911  0.00  0.00    +0.000 A 
ATOM      3  N   UNL     1      -3.658  13.530  20.976  0.00  0.00    +0.000 NA
ATOM      4  C   UNL     1      -4.936  13.181  21.459  0.00  0.00    +0.000 A 
ATOM      5  C   UNL     1      -5.391  13.612  22.726  0.00  0.00    +0.000 A 
ATOM      6  C   UNL     1      -6.641  13.163  23.206  0.00  0.00    +0.000 A 
ATOM      7  C   UNL     1      -7.456  12.328  22.450  0.00  0.00    +0.000 A 
ATOM      8  C   UNL     1      -7.023  11.925  21.198  0.00  0.00    +0.000 A 
ATOM      9  C   UNL     1      -5.775  12.347  20.722  0.00  0.00    +0.000 A 
ATOM     10  C   UNL     1      -5.307  11.860  19.429  0.00  0.00    +0.000 A 
ATOM     11  O   UNL     1      -6.111  11.259  18.715  0.00  0.00    +0.000 OA
ATOM     12  N   UNL     1      -3.959  12.086  19.139  0.00  0.00    +0.000 N 
ATOM     13  C   UNL     1      -3.440  11.417  17.987  0.00  0.00    +0.000 A 
ATOM     14  C   UNL     1      -4.126  11.506  16.770  0.00  0.00    +0.000 A 
ATOM     15  C   UNL     1      -3.794  10.648  15.726  0.00  0.00    +0.000 A 
ATOM     16  C   UNL     1      -2.793   9.711  15.923  0.00  0.00    +0.000 A 
ATOM     17  C   UNL     1      -2.122   9.720  17.136  0.00  0.00    +0.000 A 
ATOM     18  N   UNL     1      -2.389  10.576  18.155  0.00  0.00    +0.000 NA
ATOM     19  H   UNL     1      -1.346  12.374  19.358  0.00  0.00    +0.000 HD
ENDROOT
BRANCH   5  20
ATOM     20  C   UNL     1      -4.630  14.532  23.583  0.00  0.00    +0.000 A 
ATOM     21  C   UNL     1      -4.827  15.879  23.856  0.00  0.00    +0.000 A 
ATOM     22  C   UNL     1      -3.775  16.320  24.690  0.00  0.00    +0.000 A 
ATOM     23  C   UNL     1      -2.942  15.236  24.883  0.00  0.00    +0.000 A 
ATOM     24  N   UNL     1      -3.487  14.150  24.258  0.00  0.00    +0.000 N 
ATOM     25  C   UNL     1      -1.702  15.255  25.697  0.00  0.00    +0.000 C 
ATOM     26  C   UNL     1      -1.277  16.722  25.935  0.00  0.00    +0.000 C 
ATOM     27  N   UNL     1      -2.381  17.668  26.082  0.00  0.00    +0.000 N 
ATOM     28  C   UNL     1      -3.522  17.613  25.303  0.00  0.00    +0.000 C 
ATOM     29  O   UNL     1      -4.257  18.585  25.176  0.00  0.00    +0.000 OA
ATOM     30  H   UNL     1      -3.138  13.199  24.273  0.00  0.00    +0.000 HD
ATOM     31  H   UNL     1      -2.188  18.598  26.427  0.00  0.00    +0.000 HD
ENDBRANCH   5  20
BRANCH   1  33
ATOM     32  C   UNL     1      -0.182  13.991  21.073  0.00  0.00    +0.000 C 
ATOM     33  C   UNL     1      -1.135  14.388  19.944  0.00  0.00    +0.000 C 
ATOM     34  C   UNL     1      -0.315  14.932  18.770  0.00  0.00    +0.000 C 
ENDBRANCH   1  33
TORSDOF 2
ENDMDL
MODEL 2
REMARK VINA RESULT:      -7.0      2.709      4.199
REMARK  Name = 
REMARK  4 active torsions:
REMARK  status: ('A' for Active; 'I' for Inactive)
REMARK    1  A    between atoms: C_1  and  C_2
REMARK    2  A    between atoms: C_2  and  C_3
REMARK    3  A    between atoms: C_2  and  N_4
REMARK    4  A    between atoms: C_8  and  C_9
REMARK                            x       y       z     vdW  Elec       q    Type
REMARK                         _______ _______ _______ _____ _____    ______ ____
ROOT
ATOM      1  N   UNL     1      -0.383  12.293  20.936  0.00  0.00    +0.000 N 
ATOM      2  C   UNL     1      -1.394  11.914  20.080  0.00  0.00    +0.000 A 
ATOM      3  N   UNL     1      -2.524  12.575  20.090  0.00  0.00    +0.000 NA
ATOM      4  C   UNL     1      -3.600  12.141  19.289  0.00  0.00    +0.000 A 
ATOM      5  C   UNL     1      -4.901  12.673  19.445  0.00  0.00    +0.000 A 
ATOM      6  C   UNL     1      -5.966  12.144  18.683  0.00  0.00    +0.000 A 
ATOM      7  C   UNL     1      -5.765  11.129  17.755  0.00  0.00    +0.000 A 
ATOM      8  C   UNL     1      -4.487  10.624  17.582  0.00  0.00    +0.000 A 
ATOM      9  C   UNL     1      -3.428  11.127  18.349  0.00  0.00    +0.000 A 
ATOM     10  C   UNL     1      -2.102  10.538  18.200  0.00  0.00    +0.000 A 
ATOM     11  O   UNL     1      -1.919   9.759  17.263  0.00  0.00    +0.000 OA
ATOM     12  N   UNL     1      -1.164  10.883  19.176  0.00  0.00    +0.000 N 
ATOM     13  C   UNL     1       0.057  10.139  19.170  0.00  0.00    +0.000 A 
ATOM     14  C   UNL     1       0.768   9.989  17.974  0.00  0.00    +0.000 A 
ATOM     15  C   UNL     1       1.792   9.051  17.891  0.00  0.00    +0.000 A 
ATOM     16  C   UNL     1       2.075   8.271  19.001  0.00  0.00    +0.000 A 
ATOM     17  C   UNL     1       1.365   8.515  20.167  0.00  0.00    +0.000 A 
ATOM     18  N   UNL     1       0.396   9.456  20.293  0.00  0.00    +0.000 NA
ATOM     19  H   UNL     1      -0.026  11.504  21.474  0.00  0.00    +0.000 HD
ENDROOT
BRANCH   5  20
ATOM     20  C   UNL     1      -5.211  13.779  20.363  0.00  0.00    +0.000 A 
ATOM     21  C   UNL     1      -5.997  13.806  21.507  0.00  0.00    +0.000 A 
ATOM     22  C   UNL     1      -6.029  15.133  21.992  0.00  0.00    +0.000 A 
ATOM     23  C   UNL     1      -5.283  15.892  21.113  0.00  0.00    +0.000 A 
ATOM     24  N   UNL     1      -4.751  15.066  20.163  0.00  0.00    +0.000 N 
ATOM     25  C   UNL     1      -5.054  17.353  21.239  0.00  0.00    +0.000 C 
ATOM     26  C   UNL     1      -6.087  17.942  22.225  0.00  0.00    +0.000 C 
ATOM     27  N   UNL     1      -6.457  17.062  23.331  0.00  0.00    +0.000 N 
ATOM     28  C   UNL     1      -6.659  15.703  23.171  0.00  0.00    +0.000 C 
ATOM     29  O   UNL     1      -7.301  15.051  23.985  0.00  0.00    +0.000 OA
ATOM     30  H   UNL     1      -4.110  15.321  19.422  0.00  0.00    +0.000 HD
ATOM     31  H   UNL     1      -6.973  17.443  24.112  0.00  0.00    +0.000 HD
ENDBRANCH   5  20
BRANCH   1  33
ATOM     32  C   UNL     1      -0.820  13.449  23.046  0.00  0.00    +0.000 C 
ATOM     33  C   UNL     1      -0.324  13.587  21.605  0.00  0.00    +0.000 C 
ATOM     34  C   UNL     1       1.127  14.080  21.625  0.00  0.00    +0.000 C 
ENDBRANCH   1  33
TORSDOF 2
ENDMDL
MODEL 3
REMARK VINA RESULT:      -7.0      3.746      7.820
REMARK  Name = 
REMARK  4 active torsions:
REMARK  status: ('A' for Active; 'I' for Inactive)
REMARK    1  A    between atoms: C_1  and  C_2
REMARK    2  A    between atoms: C_2  and  C_3
REMARK    3  A    between atoms: C_2  and  N_4
REMARK    4  A    between atoms: C_8  and  C_9
REMARK                            x       y       z     vdW  Elec       q    Type
REMARK                         _______ _______ _______ _____ _____    ______ ____
ROOT
ATOM      1  N   UNL     1       0.188  16.334  19.368  0.00  0.00    +0.000 N 
ATOM      2  C   UNL     1       0.602  15.052  19.073  0.00  0.00    +0.000 A 
ATOM      3  N   UNL     1      -0.293  14.126  18.842  0.00  0.00    +0.000 NA
ATOM      4  C   UNL     1       0.113  12.792  18.633  0.00  0.00    +0.000 A 
ATOM      5  C   UNL     1      -0.818  11.728  18.619  0.00  0.00    +0.000 A 
ATOM      6  C   UNL     1      -0.356  10.399  18.496  0.00  0.00    +0.000 A 
ATOM      7  C   UNL     1       0.996  10.108  18.357  0.00  0.00    +0.000 A 
ATOM      8  C   UNL     1       1.908  11.150  18.345  0.00  0.00    +0.000 A 
ATOM      9  C   UNL     1       1.462  12.470  18.488  0.00  0.00    +0.000 A 
ATOM     10  C   UNL     1       2.441  13.549  18.538  0.00  0.00    +0.000 A 
ATOM     11  O   UNL     1       3.609  13.280  18.252  0.00  0.00    +0.000 OA
ATOM     12  N   UNL     1       1.964  14.792  18.959  0.00  0.00    +0.000 N 
ATOM     13  C   UNL     1       2.952  15.790  19.229  0.00  0.00    +0.000 A 
ATOM     14  C   UNL     1       3.949  16.048  18.283  0.00  0.00    +0.000 A 
ATOM     15  C   UNL     1       5.063  16.803  18.641  0.00  0.00    +0.000 A 
ATOM     16  C   UNL     1       5.163  17.271  19.940  0.00  0.00    +0.000 A 
ATOM     17  C   UNL     1       4.109  17.021  20.806  0.00  0.00    +0.000 A 
ATOM     18  N   UNL     1       2.988  16.332  20.473  0.00  0.00    +0.000 NA
ATOM     19  H   UNL     1       0.628  16.688  20.216  0.00  0.00    +0.000 HD
ENDROOT
BRANCH   5  20
ATOM     20  C   UNL     1      -2.271  11.932  18.710  0.00  0.00    +0.000 A 
ATOM     21  C   UNL     1      -3.079  12.167  19.815  0.00  0.00    +0.000 A 
ATOM     22  C   UNL     1      -4.422  12.224  19.377  0.00  0.00    +0.000 A 
ATOM     23  C   UNL     1      -4.404  11.993  18.016  0.00  0.00    +0.000 A 
ATOM     24  N   UNL     1      -3.105  11.869  17.611  0.00  0.00    +0.000 N 
ATOM     25  C   UNL     1      -5.606  11.960  17.147  0.00  0.00    +0.000 C 
ATOM     26  C   UNL     1      -6.864  11.806  18.031  0.00  0.00    +0.000 C 
ATOM     27  N   UNL     1      -6.794  12.478  19.326  0.00  0.00    +0.000 N 
ATOM     28  C   UNL     1      -5.652  12.488  20.105  0.00  0.00    +0.000 C 
ATOM     29  O   UNL     1      -5.698  12.726  21.305  0.00  0.00    +0.000 OA
ATOM     30  H   UNL     1      -2.770  11.756  16.662  0.00  0.00    +0.000 HD
ATOM     31  H   UNL     1      -7.639  12.583  19.871  0.00  0.00    +0.000 HD
ENDBRANCH   5  20
BRANCH   1  33
ATOM     32  C   UNL     1      -1.738  17.462  20.367  0.00  0.00    +0.000 C 
ATOM     33  C   UNL     1      -1.153  16.838  19.098  0.00  0.00    +0.000 C 
ATOM     34  C   UNL     1      -1.080  17.911  18.006  0.00  0.00    +0.000 C 
ENDBRANCH   1  33
TORSDOF 2
ENDMDL
MODEL 4
REMARK VINA RESULT:      -6.9      2.656      4.006
REMARK  Name = 
REMARK  4 active torsions:
REMARK  status: ('A' for Active; 'I' for Inactive)
REMARK    1  A    between atoms: C_1  and  C_2
REMARK    2  A    between atoms: C_2  and  C_3
REMARK    3  A    between atoms: C_2  and  N_4
REMARK    4  A    between atoms: C_8  and  C_9
REMARK                            x       y       z     vdW  Elec       q    Type
REMARK                         _______ _______ _______ _____ _____    ______ ____
ROOT
ATOM      1  N   UNL     1      -0.414  12.311  20.950  0.00  0.00    +0.000 N 
ATOM      2  C   UNL     1      -1.426  11.930  20.095  0.00  0.00    +0.000 A 
ATOM      3  N   UNL     1      -2.557  12.589  20.107  0.00  0.00    +0.000 NA
ATOM      4  C   UNL     1      -3.633  12.153  19.306  0.00  0.00    +0.000 A 
ATOM      5  C   UNL     1      -4.935  12.681  19.465  0.00  0.00    +0.000 A 
ATOM      6  C   UNL     1      -5.999  12.150  18.703  0.00  0.00    +0.000 A 
ATOM      7  C   UNL     1      -5.796  11.137  17.774  0.00  0.00    +0.000 A 
ATOM      8  C   UNL     1      -4.517  10.636  17.598  0.00  0.00    +0.000 A 
ATOM      9  C   UNL     1      -3.459  11.140  18.365  0.00  0.00    +0.000 A 
ATOM     10  C   UNL     1      -2.131  10.555  18.213  0.00  0.00    +0.000 A 
ATOM     11  O   UNL     1      -1.948   9.778  17.275  0.00  0.00    +0.000 OA
ATOM     12  N   UNL     1      -1.194  10.901  19.189  0.00  0.00    +0.000 N 
ATOM     13  C   UNL     1       0.030  10.161  19.180  0.00  0.00    +0.000 A 
ATOM     14  C   UNL     1       0.740  10.015  17.983  0.00  0.00    +0.000 A 
ATOM     15  C   UNL     1       1.766   9.079  17.898  0.00  0.00    +0.000 A 
ATOM     16  C   UNL     1       2.053   8.299  19.006  0.00  0.00    +0.000 A 
ATOM     17  C   UNL     1       1.344   8.539  20.173  0.00  0.00    +0.000 A 
ATOM     18  N   UNL     1       0.372   9.478  20.301  0.00  0.00    +0.000 NA
ATOM     19  H   UNL     1      -0.055  11.522  21.486  0.00  0.00    +0.000 HD
ENDROOT
BRANCH   5  20
ATOM     20  C   UNL     1      -5.247  13.784  20.384  0.00  0.00    +0.000 A 
ATOM     21  C   UNL     1      -5.691  15.074  20.125  0.00  0.00    +0.000 A 
ATOM     22  C   UNL     1      -5.776  15.769  21.353  0.00  0.00    +0.000 A 
ATOM     23  C   UNL     1      -5.351  14.893  22.332  0.00  0.00    +0.000 A 
ATOM     24  N   UNL     1      -5.084  13.685  21.752  0.00  0.00    +0.000 N 
ATOM     25  C   UNL     1      -5.275  15.214  23.779  0.00  0.00    +0.000 C 
ATOM     26  C   UNL     1      -5.333  16.747  23.960  0.00  0.00    +0.000 C 
ATOM     27  N   UNL     1      -6.178  17.450  22.998  0.00  0.00    +0.000 N 
ATOM     28  C   UNL     1      -6.223  17.118  21.657  0.00  0.00    +0.000 C 
ATOM     29  O   UNL     1      -6.633  17.908  20.815  0.00  0.00    +0.000 OA
ATOM     30  H   UNL     1      -4.814  12.830  22.222  0.00  0.00    +0.000 HD
ATOM     31  H   UNL     1      -6.417  18.418  23.168  0.00  0.00    +0.000 HD
ENDBRANCH   5  20
BRANCH   1  33
ATOM     32  C   UNL     1      -0.859  13.464  23.060  0.00  0.00    +0.000 C 
ATOM     33  C   UNL     1      -0.358  13.604  21.621  0.00  0.00    +0.000 C 
ATOM     34  C   UNL     1       1.092  14.098  21.647  0.00  0.00    +0.000 C 
ENDBRANCH   1  33
TORSDOF 2
ENDMDL
MODEL 5
REMARK VINA RESULT:      -6.8      3.687      7.388
REMARK  Name = 
REMARK  4 active torsions:
REMARK  status: ('A' for Active; 'I' for Inactive)
REMARK    1  A    between atoms: C_1  and  C_2
REMARK    2  A    between atoms: C_2  and  C_3
REMARK    3  A    between atoms: C_2  and  N_4
REMARK    4  A    between atoms: C_8  and  C_9
REMARK                            x       y       z     vdW  Elec       q    Type
REMARK                         _______ _______ _______ _____ _____    ______ ____
ROOT
ATOM      1  N   UNL     1      -0.036  16.325  19.490  0.00  0.00    +0.000 N 
ATOM      2  C   UNL     1       0.276  15.010  19.218  0.00  0.00    +0.000 A 
ATOM      3  N   UNL     1      -0.689  14.133  19.099  0.00  0.00    +0.000 NA
ATOM      4  C   UNL     1      -0.381  12.770  18.915  0.00  0.00    +0.000 A 
ATOM      5  C   UNL     1      -1.372  11.767  19.022  0.00  0.00    +0.000 A 
ATOM      6  C   UNL     1      -1.001  10.408  18.918  0.00  0.00    +0.000 A 
ATOM      7  C   UNL     1       0.315  10.027  18.683  0.00  0.00    +0.000 A 
ATOM      8  C   UNL     1       1.283  11.009  18.552  0.00  0.00    +0.000 A 
ATOM      9  C   UNL     1       0.929  12.359  18.675  0.00  0.00    +0.000 A 
ATOM     10  C   UNL     1       1.972  13.375  18.600  0.00  0.00    +0.000 A 
ATOM     11  O   UNL     1       3.093  13.024  18.231  0.00  0.00    +0.000 OA
ATOM     12  N   UNL     1       1.605  14.661  19.004  0.00  0.00    +0.000 N 
ATOM     13  C   UNL     1       2.670  15.604  19.152  0.00  0.00    +0.000 A 
ATOM     14  C   UNL     1       3.599  15.764  18.117  0.00  0.00    +0.000 A 
ATOM     15  C   UNL     1       4.781  16.460  18.352  0.00  0.00    +0.000 A 
ATOM     16  C   UNL     1       5.017  16.970  19.618  0.00  0.00    +0.000 A 
ATOM     17  C   UNL     1       4.026  16.819  20.576  0.00  0.00    +0.000 A 
ATOM     18  N   UNL     1       2.842  16.189  20.364  0.00  0.00    +0.000 NA
ATOM     19  H   UNL     1       0.494  16.683  20.284  0.00  0.00    +0.000 HD
ENDROOT
BRANCH   5  20
ATOM     20  C   UNL     1      -2.798  12.064  19.222  0.00  0.00    +0.000 A 
ATOM     21  C   UNL     1      -3.921  11.566  18.575  0.00  0.00    +0.000 A 
ATOM     22  C   UNL     1      -5.059  12.225  19.093  0.00  0.00    +0.000 A 
ATOM     23  C   UNL     1      -4.599  13.134  20.025  0.00  0.00    +0.000 A 
ATOM     24  N   UNL     1      -3.244  12.998  20.137  0.00  0.00    +0.000 N 
ATOM     25  C   UNL     1      -5.462  14.047  20.814  0.00  0.00    +0.000 C 
ATOM     26  C   UNL     1      -6.856  14.122  20.152  0.00  0.00    +0.000 C 
ATOM     27  N   UNL     1      -7.311  12.881  19.531  0.00  0.00    +0.000 N 
ATOM     28  C   UNL     1      -6.473  12.055  18.805  0.00  0.00    +0.000 C 
ATOM     29  O   UNL     1      -6.914  11.238  18.006  0.00  0.00    +0.000 OA
ATOM     30  H   UNL     1      -2.633  13.483  20.783  0.00  0.00    +0.000 HD
ATOM     31  H   UNL     1      -8.279  12.798  19.250  0.00  0.00    +0.000 HD
ENDBRANCH   5  20
BRANCH   1  33
ATOM     32  C   UNL     1      -1.840  17.526  20.621  0.00  0.00    +0.000 C 
ATOM     33  C   UNL     1      -1.362  16.902  19.309  0.00  0.00    +0.000 C 
ATOM     34  C   UNL     1      -1.297  17.993  18.236  0.00  0.00    +0.000 C 
ENDBRANCH   1  33
TORSDOF 2
ENDMDL
MODEL 6
REMARK VINA RESULT:      -6.8      1.260      1.601
REMARK  Name = 
REMARK  4 active torsions:
REMARK  status: ('A' for Active; 'I' for Inactive)
REMARK    1  A    between atoms: C_1  and  C_2
REMARK    2  A    between atoms: C_2  and  C_3
REMARK    3  A    between atoms: C_2  and  N_4
REMARK    4  A    between atoms: C_8  and  C_9
REMARK                            x       y       z     vdW  Elec       q    Type
REMARK                         _______ _______ _______ _____ _____    ______ ____
ROOT
ATOM      1  N   UNL     1      -1.583  13.429  19.614  0.00  0.00    +0.000 N 
ATOM      2  C   UNL     1      -2.828  13.208  20.163  0.00  0.00    +0.000 A 
ATOM      3  N   UNL     1      -3.177  13.857  21.245  0.00  0.00    +0.000 NA
ATOM      4  C   UNL     1      -4.408  13.572  21.870  0.00  0.00    +0.000 A 
ATOM      5  C   UNL     1      -4.716  14.068  23.158  0.00  0.00    +0.000 A 
ATOM      6  C   UNL     1      -5.923  13.682  23.782  0.00  0.00    +0.000 A 
ATOM      7  C   UNL     1      -6.837  12.848  23.149  0.00  0.00    +0.000 A 
ATOM      8  C   UNL     1      -6.549  12.381  21.877  0.00  0.00    +0.000 A 
ATOM      9  C   UNL     1      -5.344  12.740  21.259  0.00  0.00    +0.000 A 
ATOM     10  C   UNL     1      -5.028  12.187  19.947  0.00  0.00    +0.000 A 
ATOM     11  O   UNL     1      -5.920  11.587  19.345  0.00  0.00    +0.000 OA
ATOM     12  N   UNL     1      -3.711  12.353  19.512  0.00  0.00    +0.000 N 
ATOM     13  C   UNL     1      -3.335  11.622  18.342  0.00  0.00    +0.000 A 
ATOM     14  C   UNL     1      -4.141  11.687  17.199  0.00  0.00    +0.000 A 
ATOM     15  C   UNL     1      -3.945  10.778  16.164  0.00  0.00    +0.000 A 
ATOM     16  C   UNL     1      -2.959   9.815  16.297  0.00  0.00    +0.000 A 
ATOM     17  C   UNL     1      -2.166   9.848  17.434  0.00  0.00    +0.000 A 
ATOM     18  N   UNL     1      -2.299  10.752  18.437  0.00  0.00    +0.000 NA
ATOM     19  H   UNL     1      -1.082  12.557  19.449  0.00  0.00    +0.000 HD
ENDROOT
BRANCH   5  20
ATOM     20  C   UNL     1      -3.842  14.993  23.892  0.00  0.00    +0.000 A 
ATOM     21  C   UNL     1      -2.808  14.739  24.783  0.00  0.00    +0.000 A 
ATOM     22  C   UNL     1      -2.326  15.976  25.268  0.00  0.00    +0.000 A 
ATOM     23  C   UNL     1      -3.099  16.958  24.681  0.00  0.00    +0.000 A 
ATOM     24  N   UNL     1      -3.975  16.366  23.816  0.00  0.00    +0.000 N 
ATOM     25  C   UNL     1      -2.938  18.414  24.915  0.00  0.00    +0.000 C 
ATOM     26  C   UNL     1      -2.091  18.630  26.189  0.00  0.00    +0.000 C 
ATOM     27  N   UNL     1      -1.045  17.634  26.411  0.00  0.00    +0.000 N 
ATOM     28  C   UNL     1      -1.235  16.284  26.177  0.00  0.00    +0.000 C 
ATOM     29  O   UNL     1      -0.513  15.438  26.690  0.00  0.00    +0.000 OA
ATOM     30  H   UNL     1      -4.627  16.829  23.196  0.00  0.00    +0.000 HD
ATOM     31  H   UNL     1      -0.336  17.813  27.108  0.00  0.00    +0.000 HD
ENDBRANCH   5  20
BRANCH   1  33
ATOM     32  C   UNL     1       0.398  14.162  20.846  0.00  0.00    +0.000 C 
ATOM     33  C   UNL     1      -0.749  14.584  19.925  0.00  0.00    +0.000 C 
ATOM     34  C   UNL     1      -0.163  15.148  18.628  0.00  0.00    +0.000 C 
ENDBRANCH   1  33
TORSDOF 2
ENDMDL
MODEL 7
REMARK VINA RESULT:      -6.8      2.933      6.696
REMARK  Name = 
REMARK  4 active torsions:
REMARK  status: ('A' for Active; 'I' for Inactive)
REMARK    1  A    between atoms: C_1  and  C_2
REMARK    2  A    between atoms: C_2  and  C_3
REMARK    3  A    between atoms: C_2  and  N_4
REMARK    4  A    between atoms: C_8  and  C_9
REMARK                            x       y       z     vdW  Elec       q    Type
REMARK                         _______ _______ _______ _____ _____    ______ ____
ROOT
ATOM      1  N   UNL     1       0.061  12.239  19.195  0.00  0.00    +0.000 N 
ATOM      2  C   UNL     1      -0.402  13.314  19.923  0.00  0.00    +0.000 A 
ATOM      3  N   UNL     1      -1.657  13.343  20.296  0.00  0.00    +0.000 NA
ATOM      4  C   UNL     1      -2.167  14.478  20.958  0.00  0.00    +0.000 A 
ATOM      5  C   UNL     1      -3.555  14.654  21.163  0.00  0.00    +0.000 A 
ATOM      6  C   UNL     1      -4.026  15.848  21.751  0.00  0.00    +0.000 A 
ATOM      7  C   UNL     1      -3.156  16.850  22.164  0.00  0.00    +0.000 A 
ATOM      8  C   UNL     1      -1.795  16.670  21.988  0.00  0.00    +0.000 A 
ATOM      9  C   UNL     1      -1.318  15.498  21.385  0.00  0.00    +0.000 A 
ATOM     10  C   UNL     1       0.113  15.353  21.149  0.00  0.00    +0.000 A 
ATOM     11  O   UNL     1       0.869  16.176  21.667  0.00  0.00    +0.000 OA
ATOM     12  N   UNL     1       0.493  14.307  20.305  0.00  0.00    +0.000 N 
ATOM     13  C   UNL     1       1.860  14.297  19.886  0.00  0.00    +0.000 A 
ATOM     14  C   UNL     1       2.876  14.424  20.841  0.00  0.00    +0.000 A 
ATOM     15  C   UNL     1       4.178  14.694  20.433  0.00  0.00    +0.000 A 
ATOM     16  C   UNL     1       4.437  14.846  19.080  0.00  0.00    +0.000 A 
ATOM     17  C   UNL     1       3.391  14.652  18.191  0.00  0.00    +0.000 A 
ATOM     18  N   UNL     1       2.121  14.339  18.556  0.00  0.00    +0.000 NA
ATOM     19  H   UNL     1       0.550  12.535  18.351  0.00  0.00    +0.000 HD
ENDROOT
BRANCH   5  20
ATOM     20  C   UNL     1      -4.554  13.636  20.807  0.00  0.00    +0.000 A 
ATOM     21  C   UNL     1      -5.542  13.036  21.577  0.00  0.00    +0.000 A 
ATOM     22  C   UNL     1      -6.197  12.069  20.781  0.00  0.00    +0.000 A 
ATOM     23  C   UNL     1      -5.571  12.081  19.550  0.00  0.00    +0.000 A 
ATOM     24  N   UNL     1      -4.618  13.060  19.553  0.00  0.00    +0.000 N 
ATOM     25  C   UNL     1      -5.939  11.212  18.406  0.00  0.00    +0.000 C 
ATOM     26  C   UNL     1      -6.811  10.043  18.918  0.00  0.00    +0.000 C 
ATOM     27  N   UNL     1      -7.703  10.379  20.026  0.00  0.00    +0.000 N 
ATOM     28  C   UNL     1      -7.322  11.197  21.074  0.00  0.00    +0.000 C 
ATOM     29  O   UNL     1      -7.916  11.184  22.144  0.00  0.00    +0.000 OA
ATOM     30  H   UNL     1      -4.039  13.349  18.775  0.00  0.00    +0.000 HD
ATOM     31  H   UNL     1      -8.432   9.728  20.285  0.00  0.00    +0.000 HD
ENDBRANCH   5  20
BRANCH   1  33
ATOM     32  C   UNL     1      -1.547  10.951  17.878  0.00  0.00    +0.000 C 
ATOM     33  C   UNL     1      -0.631  10.958  19.103  0.00  0.00    +0.000 C 
ATOM     34  C   UNL     1       0.401   9.835  18.957  0.00  0.00    +0.000 C 
ENDBRANCH   1  33
TORSDOF 2
ENDMDL
MODEL 8
REMARK VINA RESULT:      -6.7      3.773      5.868
REMARK  Name = 
REMARK  4 active torsions:
REMARK  status: ('A' for Active; 'I' for Inactive)
REMARK    1  A    between atoms: C_1  and  C_2
REMARK    2  A    between atoms: C_2  and  C_3
REMARK    3  A    between atoms: C_2  and  N_4
REMARK    4  A    between atoms: C_8  and  C_9
REMARK                            x       y       z     vdW  Elec       q    Type
REMARK                         _______ _______ _______ _____ _____    ______ ____
ROOT
ATOM      1  N   UNL     1      -0.554  16.397  20.196  0.00  0.00    +0.000 N 
ATOM      2  C   UNL     1      -0.286  15.081  20.507  0.00  0.00    +0.000 A 
ATOM      3  N   UNL     1      -1.180  14.380  21.157  0.00  0.00    +0.000 NA
ATOM      4  C   UNL     1      -0.882  13.063  21.564  0.00  0.00    +0.000 A 
ATOM      5  C   UNL     1      -1.715  12.361  22.466  0.00  0.00    +0.000 A 
ATOM      6  C   UNL     1      -1.329  11.079  22.915  0.00  0.00    +0.000 A 
ATOM      7  C   UNL     1      -0.162  10.471  22.470  0.00  0.00    +0.000 A 
ATOM      8  C   UNL     1       0.643  11.147  21.567  0.00  0.00    +0.000 A 
ATOM      9  C   UNL     1       0.281  12.428  21.132  0.00  0.00    +0.000 A 
ATOM     10  C   UNL     1       1.172  13.150  20.232  0.00  0.00    +0.000 A 
ATOM     11  O   UNL     1       2.110  12.529  19.730  0.00  0.00    +0.000 OA
ATOM     12  N   UNL     1       0.901  14.509  20.060  0.00  0.00    +0.000 N 
ATOM     13  C   UNL     1       1.895  15.269  19.368  0.00  0.00    +0.000 A 
ATOM     14  C   UNL     1       2.390  14.806  18.144  0.00  0.00    +0.000 A 
ATOM     15  C   UNL     1       3.538  15.377  17.603  0.00  0.00    +0.000 A 
ATOM     16  C   UNL     1       4.176  16.388  18.303  0.00  0.00    +0.000 A 
ATOM     17  C   UNL     1       3.596  16.830  19.481  0.00  0.00    +0.000 A 
ATOM     18  N   UNL     1       2.450  16.328  20.009  0.00  0.00    +0.000 NA
ATOM     19  H   UNL     1       0.201  17.016  20.489  0.00  0.00    +0.000 HD
ENDROOT
BRANCH   5  20
ATOM     20  C   UNL     1      -2.993  12.894  22.959  0.00  0.00    +0.000 A 
ATOM     21  C   UNL     1      -4.206  12.258  23.185  0.00  0.00    +0.000 A 
ATOM     22  C   UNL     1      -5.146  13.230  23.597  0.00  0.00    +0.000 A 
ATOM     23  C   UNL     1      -4.489  14.444  23.584  0.00  0.00    +0.000 A 
ATOM     24  N   UNL     1      -3.182  14.231  23.250  0.00  0.00    +0.000 N 
ATOM     25  C   UNL     1      -5.106  15.744  23.947  0.00  0.00    +0.000 C 
ATOM     26  C   UNL     1      -6.644  15.596  23.928  0.00  0.00    +0.000 C 
ATOM     27  N   UNL     1      -7.144  14.292  24.358  0.00  0.00    +0.000 N 
ATOM     28  C   UNL     1      -6.536  13.102  24.000  0.00  0.00    +0.000 C 
ATOM     29  O   UNL     1      -7.138  12.036  24.050  0.00  0.00    +0.000 OA
ATOM     30  H   UNL     1      -2.440  14.919  23.219  0.00  0.00    +0.000 HD
ATOM     31  H   UNL     1      -8.129  14.183  24.554  0.00  0.00    +0.000 HD
ENDBRANCH   5  20
BRANCH   1  33
ATOM     32  C   UNL     1      -2.078  17.807  21.487  0.00  0.00    +0.000 C 
ATOM     33  C   UNL     1      -1.890  16.982  20.213  0.00  0.00    +0.000 C 
ATOM     34  C   UNL     1      -2.055  17.900  18.998  0.00  0.00    +0.000 C 
ENDBRANCH   1  33
TORSDOF 2
ENDMDL
MODEL 9
REMARK VINA RESULT:      -6.7      3.762      7.543
REMARK  Name = 
REMARK  4 active torsions:
REMARK  status: ('A' for Active; 'I' for Inactive)
REMARK    1  A    between atoms: C_1  and  C_2
REMARK    2  A    between atoms: C_2  and  C_3
REMARK    3  A    between atoms: C_2  and  N_4
REMARK    4  A    between atoms: C_8  and  C_9
REMARK                            x       y       z     vdW  Elec       q    Type
REMARK                         _______ _______ _______ _____ _____    ______ ____
ROOT
ATOM      1  N   UNL     1      -3.702  11.536  17.529  0.00  0.00    +0.000 N 
ATOM      2  C   UNL     1      -3.353  11.811  18.834  0.00  0.00    +0.000 A 
ATOM      3  N   UNL     1      -2.242  11.315  19.318  0.00  0.00    +0.000 NA
ATOM      4  C   UNL     1      -1.920  11.508  20.677  0.00  0.00    +0.000 A 
ATOM      5  C   UNL     1      -0.865  10.797  21.296  0.00  0.00    +0.000 A 
ATOM      6  C   UNL     1      -0.637  10.957  22.681  0.00  0.00    +0.000 A 
ATOM      7  C   UNL     1      -1.405  11.821  23.452  0.00  0.00    +0.000 A 
ATOM      8  C   UNL     1      -2.422  12.537  22.843  0.00  0.00    +0.000 A 
ATOM      9  C   UNL     1      -2.671  12.370  21.475  0.00  0.00    +0.000 A 
ATOM     10  C   UNL     1      -3.787  13.083  20.864  0.00  0.00    +0.000 A 
ATOM     11  O   UNL     1      -4.344  13.958  21.528  0.00  0.00    +0.000 OA
ATOM     12  N   UNL     1      -4.154  12.666  19.582  0.00  0.00    +0.000 N 
ATOM     13  C   UNL     1      -5.380  13.196  19.072  0.00  0.00    +0.000 A 
ATOM     14  C   UNL     1      -5.608  14.576  19.120  0.00  0.00    +0.000 A 
ATOM     15  C   UNL     1      -6.887  15.074  18.890  0.00  0.00    +0.000 A 
ATOM     16  C   UNL     1      -7.915  14.181  18.631  0.00  0.00    +0.000 A 
ATOM     17  C   UNL     1      -7.601  12.833  18.545  0.00  0.00    +0.000 A 
ATOM     18  N   UNL     1      -6.355  12.323  18.715  0.00  0.00    +0.000 NA
ATOM     19  H   UNL     1      -4.655  11.184  17.458  0.00  0.00    +0.000 HD
ENDROOT
BRANCH   5  20
ATOM     20  C   UNL     1       0.035   9.897  20.562  0.00  0.00    +0.000 A 
ATOM     21  C   UNL     1       0.570   8.668  20.924  0.00  0.00    +0.000 A 
ATOM     22  C   UNL     1       1.435   8.240  19.891  0.00  0.00    +0.000 A 
ATOM     23  C   UNL     1       1.429   9.234  18.934  0.00  0.00    +0.000 A 
ATOM     24  N   UNL     1       0.547  10.205  19.317  0.00  0.00    +0.000 N 
ATOM     25  C   UNL     1       2.207   9.198  17.671  0.00  0.00    +0.000 C 
ATOM     26  C   UNL     1       3.308   8.120  17.787  0.00  0.00    +0.000 C 
ATOM     27  N   UNL     1       2.937   6.942  18.567  0.00  0.00    +0.000 N 
ATOM     28  C   UNL     1       2.207   7.018  19.739  0.00  0.00    +0.000 C 
ATOM     29  O   UNL     1       2.210   6.105  20.555  0.00  0.00    +0.000 OA
ATOM     30  H   UNL     1       0.280  11.029  18.792  0.00  0.00    +0.000 HD
ATOM     31  H   UNL     1       3.526   6.121  18.527  0.00  0.00    +0.000 HD
ENDBRANCH   5  20
BRANCH   1  33
ATOM     32  C   UNL     1      -2.206   9.685  16.970  0.00  0.00    +0.000 C 
ATOM     33  C   UNL     1      -2.771  11.035  16.525  0.00  0.00    +0.000 C 
ATOM     34  C   UNL     1      -3.511  10.850  15.196  0.00  0.00    +0.000 C 
ENDBRANCH   1  33
TORSDOF 2
ENDMDL
