MODEL 1
REMARK VINA RESULT:      -6.6      0.000      0.000
REMARK  Name = 
REMARK  5 active torsions:
REMARK  status: ('A' for Active; 'I' for Inactive)
REMARK    1  A    between atoms: N_21  and  O_22
REMARK    2  A    between atoms: O_22  and  C_23
REMARK    3  A    between atoms: C_23  and  C_24
REMARK    4  A    between atoms: C_24  and  N_25
REMARK    5  A    between atoms: N_25  and  C_26
REMARK                            x       y       z     vdW  Elec       q    Type
REMARK                         _______ _______ _______ _____ _____    ______ ____
ROOT
ATOM      1  O   UNL     1       9.347   9.940  19.658  0.00  0.00    +0.000 OA
ATOM      2  C   UNL     1       9.734  11.023  19.254  0.00  0.00    +0.000 C 
ATOM      3  N   UNL     1      10.259  11.200  18.023  0.00  0.00    +0.000 N 
ATOM      4  C   UNL     1      10.637  12.546  17.893  0.00  0.00    +0.000 A 
ATOM      5  C   UNL     1      11.215  13.129  16.758  0.00  0.00    +0.000 A 
ATOM      6  C   UNL     1      11.536  14.492  16.785  0.00  0.00    +0.000 A 
ATOM      7  C   UNL     1      11.272  15.247  17.928  0.00  0.00    +0.000 A 
ATOM      8  F   UNL     1      11.579  16.570  17.960  0.00  0.00    +0.000 F 
ATOM      9  C   UNL     1      10.689  14.650  19.048  0.00  0.00    +0.000 A 
ATOM     10  C   UNL     1      10.366  13.267  19.048  0.00  0.00    +0.000 A 
ATOM     11  C   UNL     1       9.736  12.282  20.024  0.00  0.00    +0.000 C 
ATOM     12  C   UNL     1       9.267  12.425  21.309  0.00  0.00    +0.000 C 
ATOM     13  N   UNL     1       8.628  11.430  22.117  0.00  0.00    +0.000 N 
ATOM     14  C   UNL     1       8.271  12.032  23.361  0.00  0.00    +0.000 A 
ATOM     15  C   UNL     1       7.604  11.462  24.458  0.00  0.00    +0.000 A 
ATOM     16  C   UNL     1       7.360  12.275  25.590  0.00  0.00    +0.000 A 
ATOM     17  C   UNL     1       7.780  13.618  25.610  0.00  0.00    +0.000 A 
ATOM     18  C   UNL     1       8.442  14.158  24.506  0.00  0.00    +0.000 A 
ATOM     19  C   UNL     1       8.668  13.345  23.398  0.00  0.00    +0.000 A 
ATOM     20  C   UNL     1       9.318  13.627  22.132  0.00  0.00    +0.000 C 
ATOM     21  N   UNL     1       9.884  14.703  21.787  0.00  0.00    +0.000 NA
ATOM     22  H   UNL     1      10.373  10.468  17.305  0.00  0.00    +0.000 HD
ATOM     23  H   UNL     1       8.418  10.449  21.858  0.00  0.00    +0.000 HD
ENDROOT
BRANCH  21  24
ATOM     24  O   UNL     1       9.931  15.764  22.541  0.00  0.00    +0.000 OA
BRANCH  24  25
ATOM     25  C   UNL     1       9.696  16.993  21.992  0.00  0.00    +0.000 C 
BRANCH  25  26
ATOM     26  C   UNL     1       8.201  17.173  21.911  0.00  0.00    +0.000 C 
BRANCH  26  27
ATOM     27  N   UNL     1       7.695  16.343  20.811  0.00  0.00    +0.000 NA
ATOM     28  H   UNL     1       7.010  15.643  21.160  0.00  0.00    +0.000 HD
BRANCH  27  29
ATOM     29  C   UNL     1       7.146  17.111  19.688  0.00  0.00    +0.000 C 
ATOM     30  C   UNL     1       5.598  17.094  19.620  0.00  0.00    +0.000 C 
ATOM     31  C   UNL     1       5.049  15.712  19.220  0.00  0.00    +0.000 C 
ATOM     32  N   UNL     1       5.640  15.251  17.954  0.00  0.00    +0.000 NA
ATOM     33  C   UNL     1       7.105  15.167  18.049  0.00  0.00    +0.000 C 
ATOM     34  C   UNL     1       7.708  16.551  18.371  0.00  0.00    +0.000 C 
ATOM     35  H   UNL     1       5.384  15.918  17.188  0.00  0.00    +0.000 HD
ENDBRANCH  27  29
ENDBRANCH  26  27
ENDBRANCH  25  26
ENDBRANCH  24  25
ENDBRANCH  21  24
TORSDOF 5
ENDMDL
MODEL 2
REMARK VINA RESULT:      -6.6      7.898     10.564
REMARK  Name = 
REMARK  5 active torsions:
REMARK  status: ('A' for Active; 'I' for Inactive)
REMARK    1  A    between atoms: N_21  and  O_22
REMARK    2  A    between atoms: O_22  and  C_23
REMARK    3  A    between atoms: C_23  and  C_24
REMARK    4  A    between atoms: C_24  and  N_25
REMARK    5  A    between atoms: N_25  and  C_26
REMARK                            x       y       z     vdW  Elec       q    Type
REMARK                         _______ _______ _______ _____ _____    ______ ____
ROOT
ATOM      1  O   UNL     1      -2.500  17.712  19.634  0.00  0.00    +0.000 OA
ATOM      2  C   UNL     1      -1.405  17.448  19.170  0.00  0.00    +0.000 C 
ATOM      3  N   UNL     1      -0.764  18.257  18.301  0.00  0.00    +0.000 N 
ATOM      4  C   UNL     1       0.445  17.644  17.934  0.00  0.00    +0.000 A 
ATOM      5  C   UNL     1       1.397  18.173  17.054  0.00  0.00    +0.000 A 
ATOM      6  C   UNL     1       2.558  17.434  16.789  0.00  0.00    +0.000 A 
ATOM      7  C   UNL     1       2.753  16.198  17.406  0.00  0.00    +0.000 A 
ATOM      8  F   UNL     1       3.878  15.479  17.156  0.00  0.00    +0.000 F 
ATOM      9  C   UNL     1       1.795  15.691  18.287  0.00  0.00    +0.000 A 
ATOM     10  C   UNL     1       0.605  16.416  18.560  0.00  0.00    +0.000 A 
ATOM     11  C   UNL     1      -0.629  16.221  19.432  0.00  0.00    +0.000 C 
ATOM     12  C   UNL     1      -1.016  15.203  20.273  0.00  0.00    +0.000 C 
ATOM     13  N   UNL     1      -2.183  15.157  21.102  0.00  0.00    +0.000 N 
ATOM     14  C   UNL     1      -2.157  13.932  21.834  0.00  0.00    +0.000 A 
ATOM     15  C   UNL     1      -3.071  13.455  22.788  0.00  0.00    +0.000 A 
ATOM     16  C   UNL     1      -2.823  12.196  23.384  0.00  0.00    +0.000 A 
ATOM     17  C   UNL     1      -1.688  11.446  23.023  0.00  0.00    +0.000 A 
ATOM     18  C   UNL     1      -0.797  11.943  22.071  0.00  0.00    +0.000 A 
ATOM     19  C   UNL     1      -1.055  13.188  21.499  0.00  0.00    +0.000 A 
ATOM     20  C   UNL     1      -0.319  13.943  20.503  0.00  0.00    +0.000 C 
ATOM     21  N   UNL     1       0.722  13.582  19.886  0.00  0.00    +0.000 NA
ATOM     22  H   UNL     1      -1.109  19.166  17.956  0.00  0.00    +0.000 HD
ATOM     23  H   UNL     1      -2.914  15.884  21.199  0.00  0.00    +0.000 HD
ENDROOT
BRANCH  21  24
ATOM     24  O   UNL     1       1.325  12.447  20.095  0.00  0.00    +0.000 OA
BRANCH  24  25
ATOM     25  C   UNL     1       1.731  11.692  19.031  0.00  0.00    +0.000 C 
BRANCH  25  26
ATOM     26  C   UNL     1       0.862  10.461  18.992  0.00  0.00    +0.000 C 
BRANCH  26  27
ATOM     27  N   UNL     1       0.025  10.524  17.787  0.00  0.00    +0.000 NA
ATOM     28  H   UNL     1       0.539  10.163  16.959  0.00  0.00    +0.000 HD
BRANCH  27  29
ATOM     29  C   UNL     1      -1.279   9.867  17.933  0.00  0.00    +0.000 C 
ATOM     30  C   UNL     1      -2.082   9.779  16.611  0.00  0.00    +0.000 C 
ATOM     31  C   UNL     1      -2.589  11.157  16.146  0.00  0.00    +0.000 C 
ATOM     32  N   UNL     1      -3.374  11.818  17.200  0.00  0.00    +0.000 NA
ATOM     33  C   UNL     1      -2.579  11.997  18.424  0.00  0.00    +0.000 C 
ATOM     34  C   UNL     1      -2.114  10.631  18.973  0.00  0.00    +0.000 C 
ATOM     35  H   UNL     1      -4.217  11.238  17.420  0.00  0.00    +0.000 HD
ENDBRANCH  27  29
ENDBRANCH  26  27
ENDBRANCH  25  26
ENDBRANCH  24  25
ENDBRANCH  21  24
TORSDOF 5
ENDMDL
MODEL 3
REMARK VINA RESULT:      -6.6      8.862     12.065
REMARK  Name = 
REMARK  5 active torsions:
REMARK  status: ('A' for Active; 'I' for Inactive)
REMARK    1  A    between atoms: N_21  and  O_22
REMARK    2  A    between atoms: O_22  and  C_23
REMARK    3  A    between atoms: C_23  and  C_24
REMARK    4  A    between atoms: C_24  and  N_25
REMARK    5  A    between atoms: N_25  and  C_26
REMARK                            x       y       z     vdW  Elec       q    Type
REMARK                         _______ _______ _______ _____ _____    ______ ____
ROOT
ATOM      1  O   UNL     1      -2.421  11.221  16.470  0.00  0.00    +0.000 OA
ATOM      2  C   UNL     1      -3.068  11.478  17.469  0.00  0.00    +0.000 C 
ATOM      3  N   UNL     1      -4.366  11.133  17.609  0.00  0.00    +0.000 N 
ATOM      4  C   UNL     1      -4.819  11.610  18.850  0.00  0.00    +0.000 A 
ATOM      5  C   UNL     1      -6.110  11.447  19.368  0.00  0.00    +0.000 A 
ATOM      6  C   UNL     1      -6.407  11.984  20.628  0.00  0.00    +0.000 A 
ATOM      7  C   UNL     1      -5.421  12.660  21.346  0.00  0.00    +0.000 A 
ATOM      8  F   UNL     1      -5.702  13.180  22.570  0.00  0.00    +0.000 F 
ATOM      9  C   UNL     1      -4.136  12.806  20.816  0.00  0.00    +0.000 A 
ATOM     10  C   UNL     1      -3.816  12.281  19.536  0.00  0.00    +0.000 A 
ATOM     11  C   UNL     1      -2.581  12.222  18.647  0.00  0.00    +0.000 C 
ATOM     12  C   UNL     1      -1.304  12.710  18.804  0.00  0.00    +0.000 C 
ATOM     13  N   UNL     1      -0.193  12.536  17.917  0.00  0.00    +0.000 N 
ATOM     14  C   UNL     1       0.942  13.175  18.500  0.00  0.00    +0.000 A 
ATOM     15  C   UNL     1       2.258  13.249  18.016  0.00  0.00    +0.000 A 
ATOM     16  C   UNL     1       3.218  13.946  18.787  0.00  0.00    +0.000 A 
ATOM     17  C   UNL     1       2.856  14.547  20.007  0.00  0.00    +0.000 A 
ATOM     18  C   UNL     1       1.540  14.459  20.464  0.00  0.00    +0.000 A 
ATOM     19  C   UNL     1       0.610  13.764  19.694  0.00  0.00    +0.000 A 
ATOM     20  C   UNL     1      -0.802  13.512  19.912  0.00  0.00    +0.000 C 
ATOM     21  N   UNL     1      -1.516  13.939  20.864  0.00  0.00    +0.000 NA
ATOM     22  H   UNL     1      -4.930  10.617  16.918  0.00  0.00    +0.000 HD
ATOM     23  H   UNL     1      -0.179  12.015  17.022  0.00  0.00    +0.000 HD
ENDROOT
BRANCH  21  24
ATOM     24  O   UNL     1      -1.053  14.666  21.840  0.00  0.00    +0.000 OA
BRANCH  24  25
ATOM     25  C   UNL     1      -0.935  14.124  23.088  0.00  0.00    +0.000 C 
BRANCH  25  26
ATOM     26  C   UNL     1      -1.504  12.729  23.031  0.00  0.00    +0.000 C 
BRANCH  26  27
ATOM     27  N   UNL     1      -0.395  11.784  22.842  0.00  0.00    +0.000 NA
ATOM     28  H   UNL     1       0.292  11.860  23.618  0.00  0.00    +0.000 HD
BRANCH  27  29
ATOM     29  C   UNL     1      -0.823  10.395  22.643  0.00  0.00    +0.000 C 
ATOM     30  C   UNL     1       0.088   9.357  23.345  0.00  0.00    +0.000 C 
ATOM     31  C   UNL     1       1.472   9.251  22.676  0.00  0.00    +0.000 C 
ATOM     32  N   UNL     1       1.346   8.961  21.239  0.00  0.00    +0.000 NA
ATOM     33  C   UNL     1       0.569  10.002  20.551  0.00  0.00    +0.000 C 
ATOM     34  C   UNL     1      -0.857  10.090  21.136  0.00  0.00    +0.000 C 
ATOM     35  H   UNL     1       0.871   8.037  21.112  0.00  0.00    +0.000 HD
ENDBRANCH  27  29
ENDBRANCH  26  27
ENDBRANCH  25  26
ENDBRANCH  24  25
ENDBRANCH  21  24
TORSDOF 5
ENDMDL
MODEL 4
REMARK VINA RESULT:      -6.5      7.884     10.612
REMARK  Name = 
REMARK  5 active torsions:
REMARK  status: ('A' for Active; 'I' for Inactive)
REMARK    1  A    between atoms: N_21  and  O_22
REMARK    2  A    between atoms: O_22  and  C_23
REMARK    3  A    between atoms: C_23  and  C_24
REMARK    4  A    between atoms: C_24  and  N_25
REMARK    5  A    between atoms: N_25  and  C_26
REMARK                            x       y       z     vdW  Elec       q    Type
REMARK                         _______ _______ _______ _____ _____    ______ ____
ROOT
ATOM      1  O   UNL     1       2.323  10.111  17.461  0.00  0.00    +0.000 OA
ATOM      2  C   UNL     1       1.740  10.095  18.531  0.00  0.00    +0.000 C 
ATOM      3  N   UNL     1       1.299   8.957  19.107  0.00  0.00    +0.000 N 
ATOM      4  C   UNL     1       0.641   9.293  20.302  0.00  0.00    +0.000 A 
ATOM      5  C   UNL     1       0.050   8.388  21.193  0.00  0.00    +0.000 A 
ATOM      6  C   UNL     1      -0.571   8.883  22.348  0.00  0.00    +0.000 A 
ATOM      7  C   UNL     1      -0.586  10.255  22.596  0.00  0.00    +0.000 A 
ATOM      8  F   UNL     1      -1.185  10.741  23.715  0.00  0.00    +0.000 F 
ATOM      9  C   UNL     1       0.015  11.142  21.699  0.00  0.00    +0.000 A 
ATOM     10  C   UNL     1       0.639  10.664  20.516  0.00  0.00    +0.000 A 
ATOM     11  C   UNL     1       1.385  11.278  19.339  0.00  0.00    +0.000 C 
ATOM     12  C   UNL     1       1.694  12.579  19.017  0.00  0.00    +0.000 C 
ATOM     13  N   UNL     1       2.467  13.038  17.901  0.00  0.00    +0.000 N 
ATOM     14  C   UNL     1       2.567  14.460  17.988  0.00  0.00    +0.000 A 
ATOM     15  C   UNL     1       3.244  15.349  17.139  0.00  0.00    +0.000 A 
ATOM     16  C   UNL     1       3.198  16.731  17.440  0.00  0.00    +0.000 A 
ATOM     17  C   UNL     1       2.486  17.194  18.563  0.00  0.00    +0.000 A 
ATOM     18  C   UNL     1       1.821  16.288  19.389  0.00  0.00    +0.000 A 
ATOM     19  C   UNL     1       1.883  14.931  19.080  0.00  0.00    +0.000 A 
ATOM     20  C   UNL     1       1.301  13.780  19.745  0.00  0.00    +0.000 C 
ATOM     21  N   UNL     1       0.540  13.784  20.754  0.00  0.00    +0.000 NA
ATOM     22  H   UNL     1       1.417   8.005  18.730  0.00  0.00    +0.000 HD
ATOM     23  H   UNL     1       2.914  12.462  17.167  0.00  0.00    +0.000 HD
ENDROOT
BRANCH  21  24
ATOM     24  O   UNL     1       0.188  14.868  21.384  0.00  0.00    +0.000 OA
BRANCH  24  25
ATOM     25  C   UNL     1      -0.645  14.780  22.463  0.00  0.00    +0.000 C 
BRANCH  25  26
ATOM     26  C   UNL     1      -1.871  15.603  22.155  0.00  0.00    +0.000 C 
BRANCH  26  27
ATOM     27  N   UNL     1      -3.043  14.910  22.705  0.00  0.00    +0.000 NA
ATOM     28  H   UNL     1      -3.913  15.214  22.225  0.00  0.00    +0.000 HD
BRANCH  27  29
ATOM     29  C   UNL     1      -2.922  13.447  22.711  0.00  0.00    +0.000 C 
ATOM     30  C   UNL     1      -3.496  12.770  21.441  0.00  0.00    +0.000 C 
ATOM     31  C   UNL     1      -5.033  12.856  21.381  0.00  0.00    +0.000 C 
ATOM     32  N   UNL     1      -5.644  12.303  22.600  0.00  0.00    +0.000 NA
ATOM     33  C   UNL     1      -5.179  13.014  23.800  0.00  0.00    +0.000 C 
ATOM     34  C   UNL     1      -3.648  12.887  23.946  0.00  0.00    +0.000 C 
ATOM     35  H   UNL     1      -5.395  11.289  22.683  0.00  0.00    +0.000 HD
ENDBRANCH  27  29
ENDBRANCH  26  27
ENDBRANCH  25  26
ENDBRANCH  24  25
ENDBRANCH  21  24
TORSDOF 5
ENDMDL
MODEL 5
REMARK VINA RESULT:      -6.5      9.740     12.019
REMARK  Name = 
REMARK  5 active torsions:
REMARK  status: ('A' for Active; 'I' for Inactive)
REMARK    1  A    between atoms: N_21  and  O_22
REMARK    2  A    between atoms: O_22  and  C_23
REMARK    3  A    between atoms: C_23  and  C_24
REMARK    4  A    between atoms: C_24  and  N_25
REMARK    5  A    between atoms: N_25  and  C_26
REMARK                            x       y       z     vdW  Elec       q    Type
REMARK                         _______ _______ _______ _____ _____    ______ ____
ROOT
ATOM      1  O   UNL     1       0.405   9.595  24.028  0.00  0.00    +0.000 OA
ATOM      2  C   UNL     1       0.606   9.378  22.846  0.00  0.00    +0.000 C 
ATOM      3  N   UNL     1       1.491   8.457  22.412  0.00  0.00    +0.000 N 
ATOM      4  C   UNL     1       1.508   8.488  21.008  0.00  0.00    +0.000 A 
ATOM      5  C   UNL     1       2.293   7.675  20.180  0.00  0.00    +0.000 A 
ATOM      6  C   UNL     1       2.196   7.829  18.790  0.00  0.00    +0.000 A 
ATOM      7  C   UNL     1       1.323   8.775  18.255  0.00  0.00    +0.000 A 
ATOM      8  F   UNL     1       1.222   8.927  16.908  0.00  0.00    +0.000 F 
ATOM      9  C   UNL     1       0.543   9.572  19.096  0.00  0.00    +0.000 A 
ATOM     10  C   UNL     1       0.634   9.442  20.507  0.00  0.00    +0.000 A 
ATOM     11  C   UNL     1      -0.027  10.088  21.718  0.00  0.00    +0.000 C 
ATOM     12  C   UNL     1      -0.970  11.083  21.836  0.00  0.00    +0.000 C 
ATOM     13  N   UNL     1      -1.572  11.571  23.042  0.00  0.00    +0.000 N 
ATOM     14  C   UNL     1      -2.524  12.573  22.686  0.00  0.00    +0.000 A 
ATOM     15  C   UNL     1      -3.376  13.315  23.519  0.00  0.00    +0.000 A 
ATOM     16  C   UNL     1      -4.243  14.260  22.921  0.00  0.00    +0.000 A 
ATOM     17  C   UNL     1      -4.245  14.446  21.526  0.00  0.00    +0.000 A 
ATOM     18  C   UNL     1      -3.387  13.695  20.722  0.00  0.00    +0.000 A 
ATOM     19  C   UNL     1      -2.544  12.765  21.328  0.00  0.00    +0.000 A 
ATOM     20  C   UNL     1      -1.564  11.861  20.756  0.00  0.00    +0.000 C 
ATOM     21  N   UNL     1      -1.225  11.769  19.543  0.00  0.00    +0.000 NA
ATOM     22  H   UNL     1       2.063   7.841  23.009  0.00  0.00    +0.000 HD
ATOM     23  H   UNL     1      -1.392  11.248  24.009  0.00  0.00    +0.000 HD
ENDROOT
BRANCH  21  24
ATOM     24  O   UNL     1      -1.758  12.481  18.592  0.00  0.00    +0.000 OA
BRANCH  24  25
ATOM     25  C   UNL     1      -2.060  11.893  17.396  0.00  0.00    +0.000 C 
BRANCH  25  26
ATOM     26  C   UNL     1      -3.363  11.154  17.572  0.00  0.00    +0.000 C 
BRANCH  26  27
ATOM     27  N   UNL     1      -4.379  12.111  18.030  0.00  0.00    +0.000 NA
ATOM     28  H   UNL     1      -4.047  13.089  17.909  0.00  0.00    +0.000 HD
BRANCH  27  29
ATOM     29  C   UNL     1      -5.699  11.916  17.421  0.00  0.00    +0.000 C 
ATOM     30  C   UNL     1      -6.475  13.236  17.182  0.00  0.00    +0.000 C 
ATOM     31  C   UNL     1      -6.943  13.882  18.500  0.00  0.00    +0.000 C 
ATOM     32  N   UNL     1      -7.736  12.937  19.302  0.00  0.00    +0.000 NA
ATOM     33  C   UNL     1      -6.964  11.727  19.619  0.00  0.00    +0.000 C 
ATOM     34  C   UNL     1      -6.540  11.000  18.325  0.00  0.00    +0.000 C 
ATOM     35  H   UNL     1      -8.596  12.667  18.770  0.00  0.00    +0.000 HD
ENDBRANCH  27  29
ENDBRANCH  26  27
ENDBRANCH  25  26
ENDBRANCH  24  25
ENDBRANCH  21  24
TORSDOF 5
ENDMDL
MODEL 6
REMARK VINA RESULT:      -6.4     10.188     13.036
REMARK  Name = 
REMARK  5 active torsions:
REMARK  status: ('A' for Active; 'I' for Inactive)
REMARK    1  A    between atoms: N_21  and  O_22
REMARK    2  A    between atoms: O_22  and  C_23
REMARK    3  A    between atoms: C_23  and  C_24
REMARK    4  A    between atoms: C_24  and  N_25
REMARK    5  A    between atoms: N_25  and  C_26
REMARK                            x       y       z     vdW  Elec       q    Type
REMARK                         _______ _______ _______ _____ _____    ______ ____
ROOT
ATOM      1  O   UNL     1      -7.135  12.351  17.456  0.00  0.00    +0.000 OA
ATOM      2  C   UNL     1      -5.979  11.992  17.589  0.00  0.00    +0.000 C 
ATOM      3  N   UNL     1      -5.328  11.259  16.661  0.00  0.00    +0.000 N 
ATOM      4  C   UNL     1      -4.037  10.984  17.140  0.00  0.00    +0.000 A 
ATOM      5  C   UNL     1      -3.051  10.255  16.464  0.00  0.00    +0.000 A 
ATOM      6  C   UNL     1      -1.806  10.066  17.080  0.00  0.00    +0.000 A 
ATOM      7  C   UNL     1      -1.565  10.609  18.341  0.00  0.00    +0.000 A 
ATOM      8  F   UNL     1      -0.359  10.432  18.942  0.00  0.00    +0.000 F 
ATOM      9  C   UNL     1      -2.558  11.340  18.997  0.00  0.00    +0.000 A 
ATOM     10  C   UNL     1      -3.831  11.533  18.398  0.00  0.00    +0.000 A 
ATOM     11  C   UNL     1      -5.125  12.248  18.766  0.00  0.00    +0.000 C 
ATOM     12  C   UNL     1      -5.502  12.963  19.878  0.00  0.00    +0.000 C 
ATOM     13  N   UNL     1      -6.740  13.654  20.088  0.00  0.00    +0.000 N 
ATOM     14  C   UNL     1      -6.678  14.293  21.363  0.00  0.00    +0.000 A 
ATOM     15  C   UNL     1      -7.639  15.103  21.991  0.00  0.00    +0.000 A 
ATOM     16  C   UNL     1      -7.340  15.629  23.270  0.00  0.00    +0.000 A 
ATOM     17  C   UNL     1      -6.110  15.342  23.891  0.00  0.00    +0.000 A 
ATOM     18  C   UNL     1      -5.174  14.532  23.245  0.00  0.00    +0.000 A 
ATOM     19  C   UNL     1      -5.484  14.028  21.984  0.00  0.00    +0.000 A 
ATOM     20  C   UNL     1      -4.721  13.176  21.090  0.00  0.00    +0.000 C 
ATOM     21  N   UNL     1      -3.593  12.653  21.312  0.00  0.00    +0.000 NA
ATOM     22  H   UNL     1      -5.717  10.947  15.759  0.00  0.00    +0.000 HD
ATOM     23  H   UNL     1      -7.540  13.723  19.434  0.00  0.00    +0.000 HD
ENDROOT
BRANCH  21  24
ATOM     24  O   UNL     1      -2.915  12.844  22.407  0.00  0.00    +0.000 OA
BRANCH  24  25
ATOM     25  C   UNL     1      -1.642  12.356  22.506  0.00  0.00    +0.000 C 
BRANCH  25  26
ATOM     26  C   UNL     1      -0.710  13.539  22.583  0.00  0.00    +0.000 C 
BRANCH  26  27
ATOM     27  N   UNL     1      -0.736  14.234  21.290  0.00  0.00    +0.000 NA
ATOM     28  H   UNL     1      -0.416  15.217  21.391  0.00  0.00    +0.000 HD
BRANCH  27  29
ATOM     29  C   UNL     1       0.000  13.541  20.226  0.00  0.00    +0.000 C 
ATOM     30  C   UNL     1       1.521  13.424  20.497  0.00  0.00    +0.000 C 
ATOM     31  C   UNL     1       2.236  14.784  20.399  0.00  0.00    +0.000 C 
ATOM     32  N   UNL     1       1.976  15.429  19.102  0.00  0.00    +0.000 NA
ATOM     33  C   UNL     1       0.537  15.637  18.888  0.00  0.00    +0.000 C 
ATOM     34  C   UNL     1      -0.213  14.287  18.899  0.00  0.00    +0.000 C 
ATOM     35  H   UNL     1       2.355  14.826  18.334  0.00  0.00    +0.000 HD
ENDBRANCH  27  29
ENDBRANCH  26  27
ENDBRANCH  25  26
ENDBRANCH  24  25
ENDBRANCH  21  24
TORSDOF 5
ENDMDL
MODEL 7
REMARK VINA RESULT:      -6.4      7.185      8.779
REMARK  Name = 
REMARK  5 active torsions:
REMARK  status: ('A' for Active; 'I' for Inactive)
REMARK    1  A    between atoms: N_21  and  O_22
REMARK    2  A    between atoms: O_22  and  C_23
REMARK    3  A    between atoms: C_23  and  C_24
REMARK    4  A    between atoms: C_24  and  N_25
REMARK    5  A    between atoms: N_25  and  C_26
REMARK                            x       y       z     vdW  Elec       q    Type
REMARK                         _______ _______ _______ _____ _____    ______ ____
ROOT
ATOM      1  O   UNL     1       2.991   4.683  21.139  0.00  0.00    +0.000 OA
ATOM      2  C   UNL     1       3.344   5.026  20.025  0.00  0.00    +0.000 C 
ATOM      3  N   UNL     1       4.168   4.282  19.257  0.00  0.00    +0.000 N 
ATOM      4  C   UNL     1       4.405   4.978  18.060  0.00  0.00    +0.000 A 
ATOM      5  C   UNL     1       5.204   4.534  16.999  0.00  0.00    +0.000 A 
ATOM      6  C   UNL     1       5.341   5.349  15.867  0.00  0.00    +0.000 A 
ATOM      7  C   UNL     1       4.681   6.576  15.809  0.00  0.00    +0.000 A 
ATOM      8  F   UNL     1       4.808   7.369  14.713  0.00  0.00    +0.000 F 
ATOM      9  C   UNL     1       3.882   6.999  16.874  0.00  0.00    +0.000 A 
ATOM     10  C   UNL     1       3.739   6.196  18.036  0.00  0.00    +0.000 A 
ATOM     11  C   UNL     1       2.982   6.290  19.355  0.00  0.00    +0.000 C 
ATOM     12  C   UNL     1       2.159   7.259  19.881  0.00  0.00    +0.000 C 
ATOM     13  N   UNL     1       1.442   7.209  21.121  0.00  0.00    +0.000 N 
ATOM     14  C   UNL     1       0.683   8.413  21.240  0.00  0.00    +0.000 A 
ATOM     15  C   UNL     1      -0.191   8.806  22.266  0.00  0.00    +0.000 A 
ATOM     16  C   UNL     1      -0.836  10.060  22.154  0.00  0.00    +0.000 A 
ATOM     17  C   UNL     1      -0.600  10.888  21.041  0.00  0.00    +0.000 A 
ATOM     18  C   UNL     1       0.275  10.473  20.036  0.00  0.00    +0.000 A 
ATOM     19  C   UNL     1       0.896   9.232  20.160  0.00  0.00    +0.000 A 
ATOM     20  C   UNL     1       1.836   8.551  19.290  0.00  0.00    +0.000 C 
ATOM     21  N   UNL     1       2.344   8.992  18.221  0.00  0.00    +0.000 NA
ATOM     22  H   UNL     1       4.563   3.364  19.510  0.00  0.00    +0.000 HD
ATOM     23  H   UNL     1       1.431   6.437  21.810  0.00  0.00    +0.000 HD
ENDROOT
BRANCH  21  24
ATOM     24  O   UNL     1       2.054  10.155  17.713  0.00  0.00    +0.000 OA
BRANCH  24  25
ATOM     25  C   UNL     1       2.944  11.185  17.829  0.00  0.00    +0.000 C 
BRANCH  25  26
ATOM     26  C   UNL     1       2.164  12.418  18.208  0.00  0.00    +0.000 C 
BRANCH  26  27
ATOM     27  N   UNL     1       2.797  13.579  17.571  0.00  0.00    +0.000 NA
ATOM     28  H   UNL     1       2.086  14.187  17.119  0.00  0.00    +0.000 HD
BRANCH  27  29
ATOM     29  C   UNL     1       3.665  14.352  18.468  0.00  0.00    +0.000 C 
ATOM     30  C   UNL     1       2.934  14.904  19.718  0.00  0.00    +0.000 C 
ATOM     31  C   UNL     1       1.942  16.028  19.361  0.00  0.00    +0.000 C 
ATOM     32  N   UNL     1       2.608  17.107  18.616  0.00  0.00    +0.000 NA
ATOM     33  C   UNL     1       3.214  16.603  17.375  0.00  0.00    +0.000 C 
ATOM     34  C   UNL     1       4.276  15.527  17.688  0.00  0.00    +0.000 C 
ATOM     35  H   UNL     1       3.354  17.533  19.214  0.00  0.00    +0.000 HD
ENDBRANCH  27  29
ENDBRANCH  26  27
ENDBRANCH  25  26
ENDBRANCH  24  25
ENDBRANCH  21  24
TORSDOF 5
ENDMDL
MODEL 8
REMARK VINA RESULT:      -6.4      9.757     12.618
REMARK  Name = 
REMARK  5 active torsions:
REMARK  status: ('A' for Active; 'I' for Inactive)
REMARK    1  A    between atoms: N_21  and  O_22
REMARK    2  A    between atoms: O_22  and  C_23
REMARK    3  A    between atoms: C_23  and  C_24
REMARK    4  A    between atoms: C_24  and  N_25
REMARK    5  A    between atoms: N_25  and  C_26
REMARK                            x       y       z     vdW  Elec       q    Type
REMARK                         _______ _______ _______ _____ _____    ______ ____
ROOT
ATOM      1  O   UNL     1      -4.504  11.989  24.871  0.00  0.00    +0.000 OA
ATOM      2  C   UNL     1      -4.356  13.018  24.236  0.00  0.00    +0.000 C 
ATOM      3  N   UNL     1      -5.191  14.072  24.346  0.00  0.00    +0.000 N 
ATOM      4  C   UNL     1      -4.764  15.070  23.455  0.00  0.00    +0.000 A 
ATOM      5  C   UNL     1      -5.365  16.323  23.278  0.00  0.00    +0.000 A 
ATOM      6  C   UNL     1      -4.815  17.212  22.345  0.00  0.00    +0.000 A 
ATOM      7  C   UNL     1      -3.684  16.846  21.617  0.00  0.00    +0.000 A 
ATOM      8  F   UNL     1      -3.145  17.705  20.713  0.00  0.00    +0.000 F 
ATOM      9  C   UNL     1      -3.093  15.595  21.813  0.00  0.00    +0.000 A 
ATOM     10  C   UNL     1      -3.640  14.673  22.743  0.00  0.00    +0.000 A 
ATOM     11  C   UNL     1      -3.300  13.272  23.236  0.00  0.00    +0.000 C 
ATOM     12  C   UNL     1      -2.301  12.390  22.898  0.00  0.00    +0.000 C 
ATOM     13  N   UNL     1      -2.039  11.108  23.482  0.00  0.00    +0.000 N 
ATOM     14  C   UNL     1      -0.880  10.563  22.850  0.00  0.00    +0.000 A 
ATOM     15  C   UNL     1      -0.229   9.345  23.103  0.00  0.00    +0.000 A 
ATOM     16  C   UNL     1       0.916   9.025  22.336  0.00  0.00    +0.000 A 
ATOM     17  C   UNL     1       1.384   9.910  21.346  0.00  0.00    +0.000 A 
ATOM     18  C   UNL     1       0.715  11.113  21.114  0.00  0.00    +0.000 A 
ATOM     19  C   UNL     1      -0.407  11.414  21.883  0.00  0.00    +0.000 A 
ATOM     20  C   UNL     1      -1.286  12.568  21.867  0.00  0.00    +0.000 C 
ATOM     21  N   UNL     1      -1.237  13.553  21.077  0.00  0.00    +0.000 NA
ATOM     22  H   UNL     1      -6.009  14.131  24.970  0.00  0.00    +0.000 HD
ATOM     23  H   UNL     1      -2.560  10.649  24.250  0.00  0.00    +0.000 HD
ENDROOT
BRANCH  21  24
ATOM     24  O   UNL     1      -0.331  13.691  20.153  0.00  0.00    +0.000 OA
BRANCH  24  25
ATOM     25  C   UNL     1      -0.703  13.706  18.839  0.00  0.00    +0.000 C 
BRANCH  25  26
ATOM     26  C   UNL     1      -0.708  12.279  18.353  0.00  0.00    +0.000 C 
BRANCH  26  27
ATOM     27  N   UNL     1      -1.562  12.199  17.161  0.00  0.00    +0.000 NA
ATOM     28  H   UNL     1      -1.079  12.600  16.332  0.00  0.00    +0.000 HD
BRANCH  27  29
ATOM     29  C   UNL     1      -2.070  10.852  16.881  0.00  0.00    +0.000 C 
ATOM     30  C   UNL     1      -2.923  10.764  15.590  0.00  0.00    +0.000 C 
ATOM     31  C   UNL     1      -4.281  11.476  15.742  0.00  0.00    +0.000 C 
ATOM     32  N   UNL     1      -5.023  10.964  16.904  0.00  0.00    +0.000 NA
ATOM     33  C   UNL     1      -4.257  11.141  18.146  0.00  0.00    +0.000 C 
ATOM     34  C   UNL     1      -2.918  10.377  18.072  0.00  0.00    +0.000 C 
ATOM     35  H   UNL     1      -5.223   9.945  16.767  0.00  0.00    +0.000 HD
ENDBRANCH  27  29
ENDBRANCH  26  27
ENDBRANCH  25  26
ENDBRANCH  24  25
ENDBRANCH  21  24
TORSDOF 5
ENDMDL
MODEL 9
REMARK VINA RESULT:      -6.4      9.140     11.859
REMARK  Name = 
REMARK  5 active torsions:
REMARK  status: ('A' for Active; 'I' for Inactive)
REMARK    1  A    between atoms: N_21  and  O_22
REMARK    2  A    between atoms: O_22  and  C_23
REMARK    3  A    between atoms: C_23  and  C_24
REMARK    4  A    between atoms: C_24  and  N_25
REMARK    5  A    between atoms: N_25  and  C_26
REMARK                            x       y       z     vdW  Elec       q    Type
REMARK                         _______ _______ _______ _____ _____    ______ ____
ROOT
ATOM      1  O   UNL     1      -6.441  13.063  19.095  0.00  0.00    +0.000 OA
ATOM      2  C   UNL     1      -5.481  12.450  18.663  0.00  0.00    +0.000 C 
ATOM      3  N   UNL     1      -5.514  11.764  17.501  0.00  0.00    +0.000 N 
ATOM      4  C   UNL     1      -4.267  11.145  17.318  0.00  0.00    +0.000 A 
ATOM      5  C   UNL     1      -3.901  10.348  16.226  0.00  0.00    +0.000 A 
ATOM      6  C   UNL     1      -2.612   9.798  16.190  0.00  0.00    +0.000 A 
ATOM      7  C   UNL     1      -1.716  10.056  17.227  0.00  0.00    +0.000 A 
ATOM      8  F   UNL     1      -0.465   9.529  17.197  0.00  0.00    +0.000 F 
ATOM      9  C   UNL     1      -2.097  10.860  18.305  0.00  0.00    +0.000 A 
ATOM     10  C   UNL     1      -3.402  11.416  18.369  0.00  0.00    +0.000 A 
ATOM     11  C   UNL     1      -4.170  12.316  19.328  0.00  0.00    +0.000 C 
ATOM     12  C   UNL     1      -3.827  12.898  20.526  0.00  0.00    +0.000 C 
ATOM     13  N   UNL     1      -4.621  13.789  21.318  0.00  0.00    +0.000 N 
ATOM     14  C   UNL     1      -3.849  14.176  22.456  0.00  0.00    +0.000 A 
ATOM     15  C   UNL     1      -4.192  15.053  23.497  0.00  0.00    +0.000 A 
ATOM     16  C   UNL     1      -3.244  15.280  24.522  0.00  0.00    +0.000 A 
ATOM     17  C   UNL     1      -1.992  14.638  24.493  0.00  0.00    +0.000 A 
ATOM     18  C   UNL     1      -1.678  13.770  23.447  0.00  0.00    +0.000 A 
ATOM     19  C   UNL     1      -2.622  13.563  22.443  0.00  0.00    +0.000 A 
ATOM     20  C   UNL     1      -2.575  12.733  21.254  0.00  0.00    +0.000 C 
ATOM     21  N   UNL     1      -1.645  11.952  20.904  0.00  0.00    +0.000 NA
ATOM     22  H   UNL     1      -6.321  11.698  16.863  0.00  0.00    +0.000 HD
ATOM     23  H   UNL     1      -5.574  14.136  21.110  0.00  0.00    +0.000 HD
ENDROOT
BRANCH  21  24
ATOM     24  O   UNL     1      -0.538  11.807  21.573  0.00  0.00    +0.000 OA
BRANCH  24  25
ATOM     25  C   UNL     1       0.615  11.494  20.911  0.00  0.00    +0.000 C 
BRANCH  25  26
ATOM     26  C   UNL     1       1.419  12.763  20.778  0.00  0.00    +0.000 C 
BRANCH  26  27
ATOM     27  N   UNL     1       0.650  13.714  19.966  0.00  0.00    +0.000 NA
ATOM     28  H   UNL     1      -0.271  13.313  19.699  0.00  0.00    +0.000 HD
BRANCH  27  29
ATOM     29  C   UNL     1       0.497  15.037  20.583  0.00  0.00    +0.000 C 
ATOM     30  C   UNL     1      -0.694  15.852  20.019  0.00  0.00    +0.000 C 
ATOM     31  C   UNL     1      -0.446  16.319  18.573  0.00  0.00    +0.000 C 
ATOM     32  N   UNL     1       0.811  17.075  18.467  0.00  0.00    +0.000 NA
ATOM     33  C   UNL     1       1.959  16.266  18.903  0.00  0.00    +0.000 C 
ATOM     34  C   UNL     1       1.792  15.840  20.378  0.00  0.00    +0.000 C 
ATOM     35  H   UNL     1       0.751  17.935  19.062  0.00  0.00    +0.000 HD
ENDBRANCH  27  29
ENDBRANCH  26  27
ENDBRANCH  25  26
ENDBRANCH  24  25
ENDBRANCH  21  24
TORSDOF 5
ENDMDL
