MODEL 1
REMARK VINA RESULT:      -7.3      0.000      0.000
REMARK  Name = 
REMARK  4 active torsions:
REMARK  status: ('A' for Active; 'I' for Inactive)
REMARK    1  A    between atoms: C_2  and  O_3
REMARK    2  A    between atoms: C_2  and  C_4
REMARK    3  A    between atoms: C_4  and  O_5
REMARK    4  A    between atoms: C_4  and  C_6
REMARK                            x       y       z     vdW  Elec       q    Type
REMARK                         _______ _______ _______ _____ _____    ______ ____
ROOT
ATOM      1  C   UNL     1       4.808   4.488  17.236  0.00  0.00    +0.000 A 
ATOM      2  C   UNL     1       4.848   5.496  18.208  0.00  0.00    +0.000 A 
ATOM      3  C   UNL     1       3.872   5.560  19.207  0.00  0.00    +0.000 A 
ATOM      4  C   UNL     1       2.834   4.620  19.268  0.00  0.00    +0.000 A 
ATOM      5  C   UNL     1       1.809   4.710  20.227  0.00  0.00    +0.000 A 
ATOM      6  C   UNL     1       0.768   3.783  20.251  0.00  0.00    +0.000 A 
ATOM      7  C   UNL     1       0.748   2.740  19.330  0.00  0.00    +0.000 A 
ATOM      8  C   UNL     1       1.766   2.625  18.381  0.00  0.00    +0.000 A 
ATOM      9  C   UNL     1       2.808   3.566  18.328  0.00  0.00    +0.000 A 
ATOM     10  C   UNL     1       3.807   3.503  17.340  0.00  0.00    +0.000 A 
ENDROOT
BRANCH   1  11
ATOM     11  C   UNL     1       5.787   4.423  16.084  0.00  0.00    +0.000 C 
BRANCH  11  13
ATOM     12  O   UNL     1       7.555   6.149  16.000  0.00  0.00    +0.000 OA
ATOM     13  C   UNL     1       7.173   5.040  16.338  0.00  0.00    +0.000 C 
BRANCH  13  14
ATOM     14  O   UNL     1       7.985   4.158  16.990  0.00  0.00    +0.000 OA
ATOM     15  H   UNL     1       8.617   3.774  16.338  0.00  0.00    +0.000 HD
ENDBRANCH  13  14
ENDBRANCH  11  13
BRANCH  11  16
ATOM     16  O   UNL     1       5.988   3.064  15.663  0.00  0.00    +0.000 OA
ATOM     17  H   UNL     1       6.814   3.052  15.143  0.00  0.00    +0.000 HD
ENDBRANCH  11  16
ENDBRANCH   1  11
TORSDOF 4
ENDMDL
MODEL 2
REMARK VINA RESULT:      -7.1      1.077      2.219
REMARK  Name = 
REMARK  4 active torsions:
REMARK  status: ('A' for Active; 'I' for Inactive)
REMARK    1  A    between atoms: C_2  and  O_3
REMARK    2  A    between atoms: C_2  and  C_4
REMARK    3  A    between atoms: C_4  and  O_5
REMARK    4  A    between atoms: C_4  and  C_6
REMARK                            x       y       z     vdW  Elec       q    Type
REMARK                         _______ _______ _______ _____ _____    ______ ____
ROOT
ATOM      1  C   UNL     1       5.050   5.144  17.820  0.00  0.00    +0.000 A 
ATOM      2  C   UNL     1       4.506   4.307  16.837  0.00  0.00    +0.000 A 
ATOM      3  C   UNL     1       3.300   3.636  17.061  0.00  0.00    +0.000 A 
ATOM      4  C   UNL     1       2.602   3.783  18.268  0.00  0.00    +0.000 A 
ATOM      5  C   UNL     1       1.424   3.064  18.533  0.00  0.00    +0.000 A 
ATOM      6  C   UNL     1       0.761   3.201  19.752  0.00  0.00    +0.000 A 
ATOM      7  C   UNL     1       1.256   4.074  20.716  0.00  0.00    +0.000 A 
ATOM      8  C   UNL     1       2.417   4.809  20.463  0.00  0.00    +0.000 A 
ATOM      9  C   UNL     1       3.110   4.663  19.249  0.00  0.00    +0.000 A 
ATOM     10  C   UNL     1       4.314   5.347  19.002  0.00  0.00    +0.000 A 
ENDROOT
BRANCH   1  11
ATOM     11  C   UNL     1       6.392   5.825  17.663  0.00  0.00    +0.000 C 
BRANCH  11  13
ATOM     12  O   UNL     1       8.145   5.175  19.281  0.00  0.00    +0.000 OA
ATOM     13  C   UNL     1       7.612   5.049  18.191  0.00  0.00    +0.000 C 
BRANCH  13  14
ATOM     14  O   UNL     1       8.077   4.179  17.248  0.00  0.00    +0.000 OA
ATOM     15  H   UNL     1       7.832   4.523  16.357  0.00  0.00    +0.000 HD
ENDBRANCH  13  14
ENDBRANCH  11  13
BRANCH  11  16
ATOM     16  O   UNL     1       6.643   6.142  16.285  0.00  0.00    +0.000 OA
ATOM     17  H   UNL     1       7.458   5.667  16.032  0.00  0.00    +0.000 HD
ENDBRANCH  11  16
ENDBRANCH   1  11
TORSDOF 4
ENDMDL
MODEL 3
REMARK VINA RESULT:      -7.1      1.050      2.208
REMARK  Name = 
REMARK  4 active torsions:
REMARK  status: ('A' for Active; 'I' for Inactive)
REMARK    1  A    between atoms: C_2  and  O_3
REMARK    2  A    between atoms: C_2  and  C_4
REMARK    3  A    between atoms: C_4  and  O_5
REMARK    4  A    between atoms: C_4  and  C_6
REMARK                            x       y       z     vdW  Elec       q    Type
REMARK                         _______ _______ _______ _____ _____    ______ ____
ROOT
ATOM      1  C   UNL     1       4.636   5.217  17.149  0.00  0.00    +0.000 A 
ATOM      2  C   UNL     1       4.262   3.988  16.590  0.00  0.00    +0.000 A 
ATOM      3  C   UNL     1       3.231   3.233  17.155  0.00  0.00    +0.000 A 
ATOM      4  C   UNL     1       2.540   3.683  18.290  0.00  0.00    +0.000 A 
ATOM      5  C   UNL     1       1.546   2.904  18.908  0.00  0.00    +0.000 A 
ATOM      6  C   UNL     1       0.893   3.357  20.054  0.00  0.00    +0.000 A 
ATOM      7  C   UNL     1       1.210   4.603  20.586  0.00  0.00    +0.000 A 
ATOM      8  C   UNL     1       2.184   5.397  19.976  0.00  0.00    +0.000 A 
ATOM      9  C   UNL     1       2.869   4.944  18.835  0.00  0.00    +0.000 A 
ATOM     10  C   UNL     1       3.896   5.702  18.244  0.00  0.00    +0.000 A 
ENDROOT
BRANCH   1  11
ATOM     11  C   UNL     1       5.800   6.032  16.629  0.00  0.00    +0.000 C 
BRANCH  11  13
ATOM     12  O   UNL     1       7.723   4.539  17.061  0.00  0.00    +0.000 OA
ATOM     13  C   UNL     1       7.083   5.248  16.301  0.00  0.00    +0.000 C 
BRANCH  13  14
ATOM     14  O   UNL     1       7.467   5.466  15.010  0.00  0.00    +0.000 OA
ATOM     15  H   UNL     1       6.704   5.267  14.419  0.00  0.00    +0.000 HD
ENDBRANCH  13  14
ENDBRANCH  11  13
BRANCH  11  16
ATOM     16  O   UNL     1       5.424   6.761  15.450  0.00  0.00    +0.000 OA
ATOM     17  H   UNL     1       5.004   6.118  14.847  0.00  0.00    +0.000 HD
ENDBRANCH  11  16
ENDBRANCH   1  11
TORSDOF 4
ENDMDL
MODEL 4
REMARK VINA RESULT:      -7.1      1.849      2.340
REMARK  Name = 
REMARK  4 active torsions:
REMARK  status: ('A' for Active; 'I' for Inactive)
REMARK    1  A    between atoms: C_2  and  O_3
REMARK    2  A    between atoms: C_2  and  C_4
REMARK    3  A    between atoms: C_4  and  O_5
REMARK    4  A    between atoms: C_4  and  C_6
REMARK                            x       y       z     vdW  Elec       q    Type
REMARK                         _______ _______ _______ _____ _____    ______ ____
ROOT
ATOM      1  C   UNL     1       5.667   5.030  18.096  0.00  0.00    +0.000 A 
ATOM      2  C   UNL     1       4.742   5.979  17.642  0.00  0.00    +0.000 A 
ATOM      3  C   UNL     1       3.372   5.702  17.656  0.00  0.00    +0.000 A 
ATOM      4  C   UNL     1       2.886   4.474  18.127  0.00  0.00    +0.000 A 
ATOM      5  C   UNL     1       1.517   4.156  18.086  0.00  0.00    +0.000 A 
ATOM      6  C   UNL     1       1.057   2.917  18.531  0.00  0.00    +0.000 A 
ATOM      7  C   UNL     1       1.957   1.986  19.042  0.00  0.00    +0.000 A 
ATOM      8  C   UNL     1       3.318   2.291  19.105  0.00  0.00    +0.000 A 
ATOM      9  C   UNL     1       3.800   3.526  18.638  0.00  0.00    +0.000 A 
ATOM     10  C   UNL     1       5.174   3.827  18.635  0.00  0.00    +0.000 A 
ENDROOT
BRANCH   1  11
ATOM     11  C   UNL     1       7.163   5.245  18.023  0.00  0.00    +0.000 C 
BRANCH  11  13
ATOM     12  O   UNL     1       7.818   5.379  20.403  0.00  0.00    +0.000 OA
ATOM     13  C   UNL     1       7.823   5.847  19.276  0.00  0.00    +0.000 C 
BRANCH  13  14
ATOM     14  O   UNL     1       8.422   7.037  18.983  0.00  0.00    +0.000 OA
ATOM     15  H   UNL     1       7.725   7.678  18.709  0.00  0.00    +0.000 HD
ENDBRANCH  13  14
ENDBRANCH  11  13
BRANCH  11  16
ATOM     16  O   UNL     1       7.840   4.013  17.725  0.00  0.00    +0.000 OA
ATOM     17  H   UNL     1       8.558   3.924  18.381  0.00  0.00    +0.000 HD
ENDBRANCH  11  16
ENDBRANCH   1  11
TORSDOF 4
ENDMDL
MODEL 5
REMARK VINA RESULT:      -7.0      1.717      2.669
REMARK  Name = 
REMARK  4 active torsions:
REMARK  status: ('A' for Active; 'I' for Inactive)
REMARK    1  A    between atoms: C_2  and  O_3
REMARK    2  A    between atoms: C_2  and  C_4
REMARK    3  A    between atoms: C_4  and  O_5
REMARK    4  A    between atoms: C_4  and  C_6
REMARK                            x       y       z     vdW  Elec       q    Type
REMARK                         _______ _______ _______ _____ _____    ______ ____
ROOT
ATOM      1  C   UNL     1       5.917   4.824  17.904  0.00  0.00    +0.000 A 
ATOM      2  C   UNL     1       5.313   4.219  16.795  0.00  0.00    +0.000 A 
ATOM      3  C   UNL     1       3.971   3.831  16.837  0.00  0.00    +0.000 A 
ATOM      4  C   UNL     1       3.192   4.041  17.984  0.00  0.00    +0.000 A 
ATOM      5  C   UNL     1       1.860   3.597  18.064  0.00  0.00    +0.000 A 
ATOM      6  C   UNL     1       1.112   3.787  19.225  0.00  0.00    +0.000 A 
ATOM      7  C   UNL     1       1.678   4.442  20.315  0.00  0.00    +0.000 A 
ATOM      8  C   UNL     1       2.994   4.903  20.247  0.00  0.00    +0.000 A 
ATOM      9  C   UNL     1       3.769   4.697  19.093  0.00  0.00    +0.000 A 
ATOM     10  C   UNL     1       5.116   5.099  19.029  0.00  0.00    +0.000 A 
ENDROOT
BRANCH   1  11
ATOM     11  C   UNL     1       7.386   5.184  17.942  0.00  0.00    +0.000 C 
BRANCH  11  13
ATOM     12  O   UNL     1       7.848   5.347  20.365  0.00  0.00    +0.000 OA
ATOM     13  C   UNL     1       7.893   5.828  19.244  0.00  0.00    +0.000 C 
BRANCH  13  14
ATOM     14  O   UNL     1       8.398   7.072  19.005  0.00  0.00    +0.000 OA
ATOM     15  H   UNL     1       8.331   7.256  18.039  0.00  0.00    +0.000 HD
ENDBRANCH  13  14
ENDBRANCH  11  13
BRANCH  11  16
ATOM     16  O   UNL     1       8.199   4.029  17.684  0.00  0.00    +0.000 OA
ATOM     17  H   UNL     1       8.136   3.851  16.726  0.00  0.00    +0.000 HD
ENDBRANCH  11  16
ENDBRANCH   1  11
TORSDOF 4
ENDMDL
MODEL 6
REMARK VINA RESULT:      -7.0      0.952      1.245
REMARK  Name = 
REMARK  4 active torsions:
REMARK  status: ('A' for Active; 'I' for Inactive)
REMARK    1  A    between atoms: C_2  and  O_3
REMARK    2  A    between atoms: C_2  and  C_4
REMARK    3  A    between atoms: C_4  and  O_5
REMARK    4  A    between atoms: C_4  and  C_6
REMARK                            x       y       z     vdW  Elec       q    Type
REMARK                         _______ _______ _______ _____ _____    ______ ____
ROOT
ATOM      1  C   UNL     1       5.414   4.321  17.474  0.00  0.00    +0.000 A 
ATOM      2  C   UNL     1       5.450   5.203  18.561  0.00  0.00    +0.000 A 
ATOM      3  C   UNL     1       4.379   5.274  19.457  0.00  0.00    +0.000 A 
ATOM      4  C   UNL     1       3.245   4.464  19.296  0.00  0.00    +0.000 A 
ATOM      5  C   UNL     1       2.133   4.571  20.149  0.00  0.00    +0.000 A 
ATOM      6  C   UNL     1       1.002   3.778  19.953  0.00  0.00    +0.000 A 
ATOM      7  C   UNL     1       0.976   2.854  18.913  0.00  0.00    +0.000 A 
ATOM      8  C   UNL     1       2.078   2.723  18.066  0.00  0.00    +0.000 A 
ATOM      9  C   UNL     1       3.215   3.532  18.235  0.00  0.00    +0.000 A 
ATOM     10  C   UNL     1       4.308   3.458  17.354  0.00  0.00    +0.000 A 
ENDROOT
BRANCH   1  11
ATOM     11  C   UNL     1       6.507   4.266  16.429  0.00  0.00    +0.000 C 
BRANCH  11  13
ATOM     12  O   UNL     1       5.589   6.177  15.157  0.00  0.00    +0.000 OA
ATOM     13  C   UNL     1       6.494   5.388  15.376  0.00  0.00    +0.000 C 
BRANCH  13  14
ATOM     14  O   UNL     1       7.652   5.388  14.654  0.00  0.00    +0.000 OA
ATOM     15  H   UNL     1       8.077   4.504  14.745  0.00  0.00    +0.000 HD
ENDBRANCH  13  14
ENDBRANCH  11  13
BRANCH  11  16
ATOM     16  O   UNL     1       7.803   4.267  17.048  0.00  0.00    +0.000 OA
ATOM     17  H   UNL     1       7.730   4.821  17.849  0.00  0.00    +0.000 HD
ENDBRANCH  11  16
ENDBRANCH   1  11
TORSDOF 4
ENDMDL
MODEL 7
REMARK VINA RESULT:      -7.0      0.665      1.041
REMARK  Name = 
REMARK  4 active torsions:
REMARK  status: ('A' for Active; 'I' for Inactive)
REMARK    1  A    between atoms: C_2  and  O_3
REMARK    2  A    between atoms: C_2  and  C_4
REMARK    3  A    between atoms: C_4  and  O_5
REMARK    4  A    between atoms: C_4  and  C_6
REMARK                            x       y       z     vdW  Elec       q    Type
REMARK                         _______ _______ _______ _____ _____    ______ ____
ROOT
ATOM      1  C   UNL     1       4.633   5.126  17.060  0.00  0.00    +0.000 A 
ATOM      2  C   UNL     1       4.497   6.025  18.125  0.00  0.00    +0.000 A 
ATOM      3  C   UNL     1       3.536   5.813  19.118  0.00  0.00    +0.000 A 
ATOM      4  C   UNL     1       2.687   4.697  19.079  0.00  0.00    +0.000 A 
ATOM      5  C   UNL     1       1.673   4.506  20.034  0.00  0.00    +0.000 A 
ATOM      6  C   UNL     1       0.819   3.406  19.959  0.00  0.00    +0.000 A 
ATOM      7  C   UNL     1       0.980   2.471  18.941  0.00  0.00    +0.000 A 
ATOM      8  C   UNL     1       1.993   2.637  17.994  0.00  0.00    +0.000 A 
ATOM      9  C   UNL     1       2.846   3.753  18.041  0.00  0.00    +0.000 A 
ATOM     10  C   UNL     1       3.830   3.970  17.060  0.00  0.00    +0.000 A 
ENDROOT
BRANCH   1  11
ATOM     11  C   UNL     1       5.596   5.353  15.916  0.00  0.00    +0.000 C 
BRANCH  11  13
ATOM     12  O   UNL     1       7.793   4.419  16.559  0.00  0.00    +0.000 OA
ATOM     13  C   UNL     1       7.090   5.378  16.283  0.00  0.00    +0.000 C 
BRANCH  13  14
ATOM     14  O   UNL     1       7.564   6.658  16.297  0.00  0.00    +0.000 OA
ATOM     15  H   UNL     1       8.267   6.723  16.985  0.00  0.00    +0.000 HD
ENDBRANCH  13  14
ENDBRANCH  11  13
BRANCH  11  16
ATOM     16  O   UNL     1       5.417   4.358  14.895  0.00  0.00    +0.000 OA
ATOM     17  H   UNL     1       6.233   4.358  14.359  0.00  0.00    +0.000 HD
ENDBRANCH  11  16
ENDBRANCH   1  11
TORSDOF 4
ENDMDL
MODEL 8
REMARK VINA RESULT:      -7.0      1.038      1.337
REMARK  Name = 
REMARK  4 active torsions:
REMARK  status: ('A' for Active; 'I' for Inactive)
REMARK    1  A    between atoms: C_2  and  O_3
REMARK    2  A    between atoms: C_2  and  C_4
REMARK    3  A    between atoms: C_4  and  O_5
REMARK    4  A    between atoms: C_4  and  C_6
REMARK                            x       y       z     vdW  Elec       q    Type
REMARK                         _______ _______ _______ _____ _____    ______ ____
ROOT
ATOM      1  C   UNL     1       5.243   4.444  17.939  0.00  0.00    +0.000 A 
ATOM      2  C   UNL     1       4.993   5.344  18.983  0.00  0.00    +0.000 A 
ATOM      3  C   UNL     1       3.804   5.274  19.714  0.00  0.00    +0.000 A 
ATOM      4  C   UNL     1       2.833   4.302  19.429  0.00  0.00    +0.000 A 
ATOM      5  C   UNL     1       1.605   4.260  20.112  0.00  0.00    +0.000 A 
ATOM      6  C   UNL     1       0.641   3.305  19.792  0.00  0.00    +0.000 A 
ATOM      7  C   UNL     1       0.899   2.366  18.798  0.00  0.00    +0.000 A 
ATOM      8  C   UNL     1       2.120   2.382  18.120  0.00  0.00    +0.000 A 
ATOM      9  C   UNL     1       3.092   3.354  18.415  0.00  0.00    +0.000 A 
ATOM     10  C   UNL     1       4.302   3.425  17.700  0.00  0.00    +0.000 A 
ENDROOT
BRANCH   1  11
ATOM     11  C   UNL     1       6.472   4.531  17.061  0.00  0.00    +0.000 C 
BRANCH  11  13
ATOM     12  O   UNL     1       7.635   6.653  16.556  0.00  0.00    +0.000 OA
ATOM     13  C   UNL     1       6.711   5.880  16.360  0.00  0.00    +0.000 C 
BRANCH  13  14
ATOM     14  O   UNL     1       5.711   6.148  15.472  0.00  0.00    +0.000 OA
ATOM     15  H   UNL     1       5.531   5.332  14.948  0.00  0.00    +0.000 HD
ENDBRANCH  13  14
ENDBRANCH  11  13
BRANCH  11  16
ATOM     16  O   UNL     1       7.656   4.217  17.812  0.00  0.00    +0.000 OA
ATOM     17  H   UNL     1       8.049   3.426  17.396  0.00  0.00    +0.000 HD
ENDBRANCH  11  16
ENDBRANCH   1  11
TORSDOF 4
ENDMDL
MODEL 9
REMARK VINA RESULT:      -7.0      0.860      1.207
REMARK  Name = 
REMARK  4 active torsions:
REMARK  status: ('A' for Active; 'I' for Inactive)
REMARK    1  A    between atoms: C_2  and  O_3
REMARK    2  A    between atoms: C_2  and  C_4
REMARK    3  A    between atoms: C_4  and  O_5
REMARK    4  A    between atoms: C_4  and  C_6
REMARK                            x       y       z     vdW  Elec       q    Type
REMARK                         _______ _______ _______ _____ _____    ______ ____
ROOT
ATOM      1  C   UNL     1       4.614   4.311  17.065  0.00  0.00    +0.000 A 
ATOM      2  C   UNL     1       5.079   5.054  18.158  0.00  0.00    +0.000 A 
ATOM      3  C   UNL     1       4.353   5.095  19.352  0.00  0.00    +0.000 A 
ATOM      4  C   UNL     1       3.147   4.393  19.491  0.00  0.00    +0.000 A 
ATOM      5  C   UNL     1       2.373   4.478  20.662  0.00  0.00    +0.000 A 
ATOM      6  C   UNL     1       1.161   3.797  20.769  0.00  0.00    +0.000 A 
ATOM      7  C   UNL     1       0.715   3.006  19.714  0.00  0.00    +0.000 A 
ATOM      8  C   UNL     1       1.478   2.898  18.550  0.00  0.00    +0.000 A 
ATOM      9  C   UNL     1       2.690   3.597  18.418  0.00  0.00    +0.000 A 
ATOM     10  C   UNL     1       3.441   3.550  17.229  0.00  0.00    +0.000 A 
ENDROOT
BRANCH   1  11
ATOM     11  C   UNL     1       5.315   4.302  15.724  0.00  0.00    +0.000 C 
BRANCH  11  13
ATOM     12  O   UNL     1       7.404   5.583  15.395  0.00  0.00    +0.000 OA
ATOM     13  C   UNL     1       6.185   5.531  15.406  0.00  0.00    +0.000 C 
BRANCH  13  14
ATOM     14  O   UNL     1       5.407   6.623  15.155  0.00  0.00    +0.000 OA
ATOM     15  H   UNL     1       5.133   6.600  14.208  0.00  0.00    +0.000 HD
ENDBRANCH  13  14
ENDBRANCH  11  13
BRANCH  11  16
ATOM     16  O   UNL     1       6.146   3.137  15.592  0.00  0.00    +0.000 OA
ATOM     17  H   UNL     1       6.875   3.241  16.233  0.00  0.00    +0.000 HD
ENDBRANCH  11  16
ENDBRANCH   1  11
TORSDOF 4
ENDMDL
