MODEL 1
REMARK VINA RESULT:      -7.7      0.000      0.000
REMARK  Name = 
REMARK  10 active torsions:
REMARK  status: ('A' for Active; 'I' for Inactive)
REMARK    1  A    between atoms: C_1  and  O_2
REMARK    2  A    between atoms: O_2  and  C_3
REMARK    3  A    between atoms: C_5  and  C_6
REMARK    4  A    between atoms: C_6  and  C_8
REMARK    5  A    between atoms: N_11  and  C_12
REMARK    6  A    between atoms: C_17  and  N_18
REMARK    7  A    between atoms: C_23  and  O_24
REMARK    8  A    between atoms: O_24  and  C_25
REMARK    9  A    between atoms: C_26  and  O_27
REMARK   10  A    between atoms: O_27  and  C_28
REMARK                            x       y       z     vdW  Elec       q    Type
REMARK                         _______ _______ _______ _____ _____    ______ ____
ROOT
ATOM      1  C   UNL     1       0.875  10.499  18.640  0.00  0.00    +0.000 C 
ATOM      2  O   UNL     1       1.565  11.509  18.534  0.00  0.00    +0.000 OA
ENDROOT
BRANCH   1   5
ATOM      3  C   UNL     1      -2.649  11.718  19.171  0.00  0.00    +0.000 A 
ATOM      4  C   UNL     1      -1.293  11.420  19.379  0.00  0.00    +0.000 A 
ATOM      5  C   UNL     1      -0.599  10.612  18.484  0.00  0.00    +0.000 A 
ATOM      6  C   UNL     1      -1.297   9.968  17.468  0.00  0.00    +0.000 A 
ATOM      7  C   UNL     1      -2.671  10.177  17.296  0.00  0.00    +0.000 A 
ATOM      8  C   UNL     1      -3.372  11.061  18.150  0.00  0.00    +0.000 A 
BRANCH   3  10
ATOM      9  C   UNL     1      -2.967  12.556  21.364  0.00  0.00    +0.000 C 
ATOM     10  O   UNL     1      -3.266  12.651  19.967  0.00  0.00    +0.000 OA
ENDBRANCH   3  10
BRANCH   7  11
ATOM     11  O   UNL     1      -3.141   9.464  16.219  0.00  0.00    +0.000 OA
ATOM     12  C   UNL     1      -3.047  10.009  14.913  0.00  0.00    +0.000 C 
ENDBRANCH   7  11
BRANCH   8  13
ATOM     13  O   UNL     1      -4.704  11.190  17.885  0.00  0.00    +0.000 OA
ATOM     14  C   UNL     1      -5.209  12.195  17.028  0.00  0.00    +0.000 C 
ENDBRANCH   8  13
ENDBRANCH   1   5
BRANCH   1  15
ATOM     15  C   UNL     1       1.466   9.187  18.884  0.00  0.00    +0.000 A 
ATOM     16  C   UNL     1       1.525   8.405  20.067  0.00  0.00    +0.000 A 
ATOM     17  C   UNL     1       2.213   7.247  19.770  0.00  0.00    +0.000 A 
ATOM     18  N   UNL     1       2.631   7.303  18.455  0.00  0.00    +0.000 N 
ATOM     19  C   UNL     1       2.067   8.427  17.897  0.00  0.00    +0.000 A 
BRANCH  18  20
ATOM     20  C   UNL     1       3.476   6.357  17.812  0.00  0.00    +0.000 A 
ATOM     21  C   UNL     1       4.681   6.805  17.243  0.00  0.00    +0.000 A 
ATOM     22  C   UNL     1       5.545   5.913  16.603  0.00  0.00    +0.000 A 
ATOM     23  C   UNL     1       5.222   4.561  16.507  0.00  0.00    +0.000 A 
ATOM     24  C   UNL     1       4.029   4.093  17.055  0.00  0.00    +0.000 A 
ATOM     25  C   UNL     1       3.167   4.989  17.705  0.00  0.00    +0.000 A 
BRANCH  25  26
ATOM     26  N   UNL     1       1.881   4.446  18.096  0.00  0.00    +0.000 N 
ATOM     27  O   UNL     1       0.997   4.404  17.237  0.00  0.00    +0.000 OA
ATOM     28  O   UNL     1       1.787   4.021  19.259  0.00  0.00    +0.000 OA
ENDBRANCH  25  26
ENDBRANCH  18  20
ENDBRANCH   1  15
TORSDOF 7
ENDMDL
MODEL 2
REMARK VINA RESULT:      -7.4      2.807      8.638
REMARK  Name = 
REMARK  10 active torsions:
REMARK  status: ('A' for Active; 'I' for Inactive)
REMARK    1  A    between atoms: C_1  and  O_2
REMARK    2  A    between atoms: O_2  and  C_3
REMARK    3  A    between atoms: C_5  and  C_6
REMARK    4  A    between atoms: C_6  and  C_8
REMARK    5  A    between atoms: N_11  and  C_12
REMARK    6  A    between atoms: C_17  and  N_18
REMARK    7  A    between atoms: C_23  and  O_24
REMARK    8  A    between atoms: O_24  and  C_25
REMARK    9  A    between atoms: C_26  and  O_27
REMARK   10  A    between atoms: O_27  and  C_28
REMARK                            x       y       z     vdW  Elec       q    Type
REMARK                         _______ _______ _______ _____ _____    ______ ____
ROOT
ATOM      1  C   UNL     1       2.826   7.721  17.972  0.00  0.00    +0.000 C 
ATOM      2  O   UNL     1       3.300   8.341  17.024  0.00  0.00    +0.000 OA
ENDROOT
BRANCH   1   5
ATOM      3  C   UNL     1       4.983   4.711  18.661  0.00  0.00    +0.000 A 
ATOM      4  C   UNL     1       4.566   5.998  18.286  0.00  0.00    +0.000 A 
ATOM      5  C   UNL     1       3.212   6.299  18.170  0.00  0.00    +0.000 A 
ATOM      6  C   UNL     1       2.277   5.275  18.270  0.00  0.00    +0.000 A 
ATOM      7  C   UNL     1       2.676   3.962  18.553  0.00  0.00    +0.000 A 
ATOM      8  C   UNL     1       4.043   3.659  18.754  0.00  0.00    +0.000 A 
BRANCH   3  10
ATOM      9  C   UNL     1       7.235   5.115  18.045  0.00  0.00    +0.000 C 
ATOM     10  O   UNL     1       6.308   4.483  18.936  0.00  0.00    +0.000 OA
ENDBRANCH   3  10
BRANCH   7  11
ATOM     11  O   UNL     1       1.587   3.128  18.632  0.00  0.00    +0.000 OA
ATOM     12  C   UNL     1       0.859   3.028  19.846  0.00  0.00    +0.000 C 
ENDBRANCH   7  11
BRANCH   8  13
ATOM     13  O   UNL     1       4.314   2.350  19.028  0.00  0.00    +0.000 OA
ATOM     14  C   UNL     1       4.517   1.882  20.347  0.00  0.00    +0.000 C 
ENDBRANCH   8  13
ENDBRANCH   1   5
BRANCH   1  15
ATOM     15  C   UNL     1       1.918   8.351  18.925  0.00  0.00    +0.000 A 
ATOM     16  C   UNL     1       1.689   8.083  20.300  0.00  0.00    +0.000 A 
ATOM     17  C   UNL     1       0.714   8.953  20.739  0.00  0.00    +0.000 A 
ATOM     18  N   UNL     1       0.288   9.720  19.673  0.00  0.00    +0.000 N 
ATOM     19  C   UNL     1       1.112   9.430  18.610  0.00  0.00    +0.000 A 
BRANCH  18  20
ATOM     20  C   UNL     1      -0.793  10.644  19.694  0.00  0.00    +0.000 A 
ATOM     21  C   UNL     1      -1.699  10.647  18.619  0.00  0.00    +0.000 A 
ATOM     22  C   UNL     1      -2.778  11.535  18.597  0.00  0.00    +0.000 A 
ATOM     23  C   UNL     1      -2.970  12.443  19.636  0.00  0.00    +0.000 A 
ATOM     24  C   UNL     1      -2.081  12.465  20.709  0.00  0.00    +0.000 A 
ATOM     25  C   UNL     1      -1.002  11.568  20.734  0.00  0.00    +0.000 A 
BRANCH  25  26
ATOM     26  N   UNL     1      -0.043  11.775  21.801  0.00  0.00    +0.000 N 
ATOM     27  O   UNL     1      -0.320  11.315  22.911  0.00  0.00    +0.000 OA
ATOM     28  O   UNL     1       1.009  12.360  21.496  0.00  0.00    +0.000 OA
ENDBRANCH  25  26
ENDBRANCH  18  20
ENDBRANCH   1  15
TORSDOF 7
ENDMDL
MODEL 3
REMARK VINA RESULT:      -7.1      2.997      8.708
REMARK  Name = 
REMARK  10 active torsions:
REMARK  status: ('A' for Active; 'I' for Inactive)
REMARK    1  A    between atoms: C_1  and  O_2
REMARK    2  A    between atoms: O_2  and  C_3
REMARK    3  A    between atoms: C_5  and  C_6
REMARK    4  A    between atoms: C_6  and  C_8
REMARK    5  A    between atoms: N_11  and  C_12
REMARK    6  A    between atoms: C_17  and  N_18
REMARK    7  A    between atoms: C_23  and  O_24
REMARK    8  A    between atoms: O_24  and  C_25
REMARK    9  A    between atoms: C_26  and  O_27
REMARK   10  A    between atoms: O_27  and  C_28
REMARK                            x       y       z     vdW  Elec       q    Type
REMARK                         _______ _______ _______ _____ _____    ______ ____
ROOT
ATOM      1  C   UNL     1       2.958   7.505  17.782  0.00  0.00    +0.000 C 
ATOM      2  O   UNL     1       3.360   8.016  16.739  0.00  0.00    +0.000 OA
ENDROOT
BRANCH   1   5
ATOM      3  C   UNL     1       5.109   4.529  18.620  0.00  0.00    +0.000 A 
ATOM      4  C   UNL     1       4.689   5.784  18.151  0.00  0.00    +0.000 A 
ATOM      5  C   UNL     1       3.335   6.100  18.089  0.00  0.00    +0.000 A 
ATOM      6  C   UNL     1       2.393   5.109  18.340  0.00  0.00    +0.000 A 
ATOM      7  C   UNL     1       2.790   3.821  18.721  0.00  0.00    +0.000 A 
ATOM      8  C   UNL     1       4.162   3.510  18.868  0.00  0.00    +0.000 A 
BRANCH   3  10
ATOM      9  C   UNL     1       7.314   4.705  17.770  0.00  0.00    +0.000 C 
ATOM     10  O   UNL     1       6.446   4.302  18.835  0.00  0.00    +0.000 OA
ENDBRANCH   3  10
BRANCH   7  11
ATOM     11  O   UNL     1       1.696   3.020  18.944  0.00  0.00    +0.000 OA
ATOM     12  C   UNL     1       0.838   3.283  20.043  0.00  0.00    +0.000 C 
ENDBRANCH   7  11
BRANCH   8  13
ATOM     13  O   UNL     1       4.430   2.227  19.247  0.00  0.00    +0.000 OA
ATOM     14  C   UNL     1       4.592   1.859  20.603  0.00  0.00    +0.000 C 
ENDBRANCH   8  13
ENDBRANCH   1   5
BRANCH   1  15
ATOM     15  C   UNL     1       2.147   8.250  18.739  0.00  0.00    +0.000 A 
ATOM     16  C   UNL     1       1.821   7.968  20.091  0.00  0.00    +0.000 A 
ATOM     17  C   UNL     1       1.007   8.985  20.546  0.00  0.00    +0.000 A 
ATOM     18  N   UNL     1       0.770   9.864  19.508  0.00  0.00    +0.000 N 
ATOM     19  C   UNL     1       1.566   9.473  18.456  0.00  0.00    +0.000 A 
BRANCH  18  20
ATOM     20  C   UNL     1      -0.122  10.971  19.545  0.00  0.00    +0.000 A 
ATOM     21  C   UNL     1      -1.461  10.771  19.166  0.00  0.00    +0.000 A 
ATOM     22  C   UNL     1      -2.375  11.827  19.189  0.00  0.00    +0.000 A 
ATOM     23  C   UNL     1      -1.973  13.103  19.578  0.00  0.00    +0.000 A 
ATOM     24  C   UNL     1      -0.649  13.329  19.950  0.00  0.00    +0.000 A 
ATOM     25  C   UNL     1       0.265  12.266  19.935  0.00  0.00    +0.000 A 
BRANCH  25  26
ATOM     26  N   UNL     1       1.648  12.628  20.177  0.00  0.00    +0.000 N 
ATOM     27  O   UNL     1       2.353  12.868  19.194  0.00  0.00    +0.000 OA
ATOM     28  O   UNL     1       2.001  12.714  21.365  0.00  0.00    +0.000 OA
ENDBRANCH  25  26
ENDBRANCH  18  20
ENDBRANCH   1  15
TORSDOF 7
ENDMDL
MODEL 4
REMARK VINA RESULT:      -7.1      1.662      2.043
REMARK  Name = 
REMARK  10 active torsions:
REMARK  status: ('A' for Active; 'I' for Inactive)
REMARK    1  A    between atoms: C_1  and  O_2
REMARK    2  A    between atoms: O_2  and  C_3
REMARK    3  A    between atoms: C_5  and  C_6
REMARK    4  A    between atoms: C_6  and  C_8
REMARK    5  A    between atoms: N_11  and  C_12
REMARK    6  A    between atoms: C_17  and  N_18
REMARK    7  A    between atoms: C_23  and  O_24
REMARK    8  A    between atoms: O_24  and  C_25
REMARK    9  A    between atoms: C_26  and  O_27
REMARK   10  A    between atoms: O_27  and  C_28
REMARK                            x       y       z     vdW  Elec       q    Type
REMARK                         _______ _______ _______ _____ _____    ______ ____
ROOT
ATOM      1  C   UNL     1       1.326  10.019  18.440  0.00  0.00    +0.000 C 
ATOM      2  O   UNL     1       2.185  10.840  18.129  0.00  0.00    +0.000 OA
ENDROOT
BRANCH   1   5
ATOM      3  C   UNL     1      -1.885  11.890  19.053  0.00  0.00    +0.000 A 
ATOM      4  C   UNL     1      -0.599  11.351  19.222  0.00  0.00    +0.000 A 
ATOM      5  C   UNL     1      -0.107  10.401  18.334  0.00  0.00    +0.000 A 
ATOM      6  C   UNL     1      -0.955   9.867  17.371  0.00  0.00    +0.000 A 
ATOM      7  C   UNL     1      -2.273  10.323  17.241  0.00  0.00    +0.000 A 
ATOM      8  C   UNL     1      -2.761  11.348  18.086  0.00  0.00    +0.000 A 
BRANCH   3  10
ATOM      9  C   UNL     1      -1.361  13.326  20.864  0.00  0.00    +0.000 C 
ATOM     10  O   UNL     1      -2.283  12.946  19.835  0.00  0.00    +0.000 OA
ENDBRANCH   3  10
BRANCH   7  11
ATOM     11  O   UNL     1      -2.914   9.677  16.211  0.00  0.00    +0.000 OA
ATOM     12  C   UNL     1      -2.962  10.271  14.924  0.00  0.00    +0.000 C 
ENDBRANCH   7  11
BRANCH   8  13
ATOM     13  O   UNL     1      -4.057  11.715  17.867  0.00  0.00    +0.000 OA
ATOM     14  C   UNL     1      -5.139  11.089  18.527  0.00  0.00    +0.000 C 
ENDBRANCH   8  13
ENDBRANCH   1   5
BRANCH   1  15
ATOM     15  C   UNL     1       1.674   8.672  18.879  0.00  0.00    +0.000 A 
ATOM     16  C   UNL     1       1.817   8.134  20.185  0.00  0.00    +0.000 A 
ATOM     17  C   UNL     1       2.175   6.808  20.054  0.00  0.00    +0.000 A 
ATOM     18  N   UNL     1       2.312   6.514  18.711  0.00  0.00    +0.000 N 
ATOM     19  C   UNL     1       1.886   7.618  18.009  0.00  0.00    +0.000 A 
BRANCH  18  20
ATOM     20  C   UNL     1       2.791   5.287  18.175  0.00  0.00    +0.000 A 
ATOM     21  C   UNL     1       1.877   4.239  17.968  0.00  0.00    +0.000 A 
ATOM     22  C   UNL     1       2.299   3.016  17.442  0.00  0.00    +0.000 A 
ATOM     23  C   UNL     1       3.639   2.808  17.121  0.00  0.00    +0.000 A 
ATOM     24  C   UNL     1       4.567   3.829  17.324  0.00  0.00    +0.000 A 
ATOM     25  C   UNL     1       4.139   5.059  17.846  0.00  0.00    +0.000 A 
BRANCH  25  26
ATOM     26  N   UNL     1       5.193   5.998  18.176  0.00  0.00    +0.000 N 
ATOM     27  O   UNL     1       5.351   6.963  17.424  0.00  0.00    +0.000 OA
ATOM     28  O   UNL     1       5.826   5.778  19.222  0.00  0.00    +0.000 OA
ENDBRANCH  25  26
ENDBRANCH  18  20
ENDBRANCH   1  15
TORSDOF 7
ENDMDL
MODEL 5
REMARK VINA RESULT:      -7.0      2.853      8.754
REMARK  Name = 
REMARK  10 active torsions:
REMARK  status: ('A' for Active; 'I' for Inactive)
REMARK    1  A    between atoms: C_1  and  O_2
REMARK    2  A    between atoms: O_2  and  C_3
REMARK    3  A    between atoms: C_5  and  C_6
REMARK    4  A    between atoms: C_6  and  C_8
REMARK    5  A    between atoms: N_11  and  C_12
REMARK    6  A    between atoms: C_17  and  N_18
REMARK    7  A    between atoms: C_23  and  O_24
REMARK    8  A    between atoms: O_24  and  C_25
REMARK    9  A    between atoms: C_26  and  O_27
REMARK   10  A    between atoms: O_27  and  C_28
REMARK                            x       y       z     vdW  Elec       q    Type
REMARK                         _______ _______ _______ _____ _____    ______ ____
ROOT
ATOM      1  C   UNL     1       2.841   7.466  18.193  0.00  0.00    +0.000 C 
ATOM      2  O   UNL     1       3.195   7.948  17.121  0.00  0.00    +0.000 OA
ENDROOT
BRANCH   1   5
ATOM      3  C   UNL     1       2.908   3.813  19.108  0.00  0.00    +0.000 A 
ATOM      4  C   UNL     1       2.470   5.131  18.901  0.00  0.00    +0.000 A 
ATOM      5  C   UNL     1       3.377   6.141  18.601  0.00  0.00    +0.000 A 
ATOM      6  C   UNL     1       4.740   5.872  18.666  0.00  0.00    +0.000 A 
ATOM      7  C   UNL     1       5.205   4.584  18.961  0.00  0.00    +0.000 A 
ATOM      8  C   UNL     1       4.290   3.529  19.187  0.00  0.00    +0.000 A 
BRANCH   3  10
ATOM      9  C   UNL     1       0.746   3.182  19.844  0.00  0.00    +0.000 C 
ATOM     10  O   UNL     1       1.984   2.805  19.231  0.00  0.00    +0.000 OA
ENDBRANCH   3  10
BRANCH   7  11
ATOM     11  O   UNL     1       6.578   4.545  18.943  0.00  0.00    +0.000 OA
ATOM     12  C   UNL     1       7.324   5.685  19.340  0.00  0.00    +0.000 C 
ENDBRANCH   7  11
BRANCH   8  13
ATOM     13  O   UNL     1       4.856   2.318  19.461  0.00  0.00    +0.000 OA
ATOM     14  C   UNL     1       4.821   1.744  20.753  0.00  0.00    +0.000 C 
ENDBRANCH   8  13
ENDBRANCH   1   5
BRANCH   1  15
ATOM     15  C   UNL     1       1.933   8.174  19.090  0.00  0.00    +0.000 A 
ATOM     16  C   UNL     1       1.678   7.997  20.475  0.00  0.00    +0.000 A 
ATOM     17  C   UNL     1       0.714   8.913  20.843  0.00  0.00    +0.000 A 
ATOM     18  N   UNL     1       0.321   9.620  19.724  0.00  0.00    +0.000 N 
ATOM     19  C   UNL     1       1.155   9.246  18.695  0.00  0.00    +0.000 A 
BRANCH  18  20
ATOM     20  C   UNL     1      -0.740  10.565  19.670  0.00  0.00    +0.000 A 
ATOM     21  C   UNL     1      -1.646  10.501  18.596  0.00  0.00    +0.000 A 
ATOM     22  C   UNL     1      -2.706  11.407  18.501  0.00  0.00    +0.000 A 
ATOM     23  C   UNL     1      -2.879  12.398  19.465  0.00  0.00    +0.000 A 
ATOM     24  C   UNL     1      -1.989  12.488  20.534  0.00  0.00    +0.000 A 
ATOM     25  C   UNL     1      -0.931  11.572  20.632  0.00  0.00    +0.000 A 
BRANCH  25  26
ATOM     26  N   UNL     1       0.034  11.844  21.681  0.00  0.00    +0.000 N 
ATOM     27  O   UNL     1       1.077  12.418  21.359  0.00  0.00    +0.000 OA
ATOM     28  O   UNL     1      -0.291  11.516  22.833  0.00  0.00    +0.000 OA
ENDBRANCH  25  26
ENDBRANCH  18  20
ENDBRANCH   1  15
TORSDOF 7
ENDMDL
MODEL 6
REMARK VINA RESULT:      -7.0      2.771      8.405
REMARK  Name = 
REMARK  10 active torsions:
REMARK  status: ('A' for Active; 'I' for Inactive)
REMARK    1  A    between atoms: C_1  and  O_2
REMARK    2  A    between atoms: O_2  and  C_3
REMARK    3  A    between atoms: C_5  and  C_6
REMARK    4  A    between atoms: C_6  and  C_8
REMARK    5  A    between atoms: N_11  and  C_12
REMARK    6  A    between atoms: C_17  and  N_18
REMARK    7  A    between atoms: C_23  and  O_24
REMARK    8  A    between atoms: O_24  and  C_25
REMARK    9  A    between atoms: C_26  and  O_27
REMARK   10  A    between atoms: O_27  and  C_28
REMARK                            x       y       z     vdW  Elec       q    Type
REMARK                         _______ _______ _______ _____ _____    ______ ____
ROOT
ATOM      1  C   UNL     1       2.938   7.620  17.909  0.00  0.00    +0.000 C 
ATOM      2  O   UNL     1       3.615   8.279  17.125  0.00  0.00    +0.000 OA
ENDROOT
BRANCH   1   5
ATOM      3  C   UNL     1       2.046   3.995  18.413  0.00  0.00    +0.000 A 
ATOM      4  C   UNL     1       2.082   5.393  18.543  0.00  0.00    +0.000 A 
ATOM      5  C   UNL     1       3.068   6.139  17.905  0.00  0.00    +0.000 A 
ATOM      6  C   UNL     1       4.114   5.480  17.269  0.00  0.00    +0.000 A 
ATOM      7  C   UNL     1       4.149   4.081  17.205  0.00  0.00    +0.000 A 
ATOM      8  C   UNL     1       3.109   3.313  17.779  0.00  0.00    +0.000 A 
BRANCH   3  10
ATOM      9  C   UNL     1       0.998   3.050  20.317  0.00  0.00    +0.000 C 
ATOM     10  O   UNL     1       0.971   3.298  18.906  0.00  0.00    +0.000 OA
ENDBRANCH   3  10
BRANCH   7  11
ATOM     11  O   UNL     1       5.253   3.653  16.508  0.00  0.00    +0.000 OA
ATOM     12  C   UNL     1       6.419   4.460  16.462  0.00  0.00    +0.000 C 
ENDBRANCH   7  11
BRANCH   8  13
ATOM     13  O   UNL     1       3.246   1.961  17.653  0.00  0.00    +0.000 OA
ATOM     14  C   UNL     1       3.820   1.163  18.669  0.00  0.00    +0.000 C 
ENDBRANCH   8  13
ENDBRANCH   1   5
BRANCH   1  15
ATOM     15  C   UNL     1       2.034   8.253  18.864  0.00  0.00    +0.000 A 
ATOM     16  C   UNL     1       1.819   7.996  20.243  0.00  0.00    +0.000 A 
ATOM     17  C   UNL     1       0.840   8.864  20.682  0.00  0.00    +0.000 A 
ATOM     18  N   UNL     1       0.399   9.617  19.611  0.00  0.00    +0.000 N 
ATOM     19  C   UNL     1       1.217   9.322  18.544  0.00  0.00    +0.000 A 
BRANCH  18  20
ATOM     20  C   UNL     1      -0.689  10.532  19.633  0.00  0.00    +0.000 A 
ATOM     21  C   UNL     1      -1.606  10.515  18.567  0.00  0.00    +0.000 A 
ATOM     22  C   UNL     1      -2.692  11.393  18.545  0.00  0.00    +0.000 A 
ATOM     23  C   UNL     1      -2.880  12.313  19.575  0.00  0.00    +0.000 A 
ATOM     24  C   UNL     1      -1.980  12.356  20.638  0.00  0.00    +0.000 A 
ATOM     25  C   UNL     1      -0.895  11.467  20.663  0.00  0.00    +0.000 A 
BRANCH  25  26
ATOM     26  N   UNL     1       0.075  11.695  21.717  0.00  0.00    +0.000 N 
ATOM     27  O   UNL     1       1.105  12.305  21.418  0.00  0.00    +0.000 OA
ATOM     28  O   UNL     1      -0.233  11.297  22.852  0.00  0.00    +0.000 OA
ENDBRANCH  25  26
ENDBRANCH  18  20
ENDBRANCH   1  15
TORSDOF 7
ENDMDL
MODEL 7
REMARK VINA RESULT:      -7.0      2.539      3.855
REMARK  Name = 
REMARK  10 active torsions:
REMARK  status: ('A' for Active; 'I' for Inactive)
REMARK    1  A    between atoms: C_1  and  O_2
REMARK    2  A    between atoms: O_2  and  C_3
REMARK    3  A    between atoms: C_5  and  C_6
REMARK    4  A    between atoms: C_6  and  C_8
REMARK    5  A    between atoms: N_11  and  C_12
REMARK    6  A    between atoms: C_17  and  N_18
REMARK    7  A    between atoms: C_23  and  O_24
REMARK    8  A    between atoms: O_24  and  C_25
REMARK    9  A    between atoms: C_26  and  O_27
REMARK   10  A    between atoms: O_27  and  C_28
REMARK                            x       y       z     vdW  Elec       q    Type
REMARK                         _______ _______ _______ _____ _____    ______ ____
ROOT
ATOM      1  C   UNL     1       0.550   9.926  18.595  0.00  0.00    +0.000 C 
ATOM      2  O   UNL     1      -0.306   9.955  17.715  0.00  0.00    +0.000 OA
ENDROOT
BRANCH   1   5
ATOM      3  C   UNL     1       0.201  12.202  21.576  0.00  0.00    +0.000 A 
ATOM      4  C   UNL     1      -0.050  11.206  20.619  0.00  0.00    +0.000 A 
ATOM      5  C   UNL     1       0.726  11.117  19.468  0.00  0.00    +0.000 A 
ATOM      6  C   UNL     1       1.649  12.119  19.191  0.00  0.00    +0.000 A 
ATOM      7  C   UNL     1       1.854  13.175  20.089  0.00  0.00    +0.000 A 
ATOM      8  C   UNL     1       1.128  13.232  21.302  0.00  0.00    +0.000 A 
BRANCH   3  10
ATOM      9  C   UNL     1      -1.138  10.937  23.067  0.00  0.00    +0.000 C 
ATOM     10  O   UNL     1      -0.461  12.166  22.778  0.00  0.00    +0.000 OA
ENDBRANCH   3  10
BRANCH   7  11
ATOM     11  O   UNL     1       2.828  14.026  19.625  0.00  0.00    +0.000 OA
ATOM     12  C   UNL     1       2.516  14.979  18.621  0.00  0.00    +0.000 C 
ENDBRANCH   7  11
BRANCH   8  13
ATOM     13  O   UNL     1       1.413  14.303  22.099  0.00  0.00    +0.000 OA
ATOM     14  C   UNL     1       0.661  15.499  22.051  0.00  0.00    +0.000 C 
ENDBRANCH   8  13
ENDBRANCH   1   5
BRANCH   1  15
ATOM     15  C   UNL     1       1.376   8.746  18.825  0.00  0.00    +0.000 A 
ATOM     16  C   UNL     1       1.745   8.097  20.032  0.00  0.00    +0.000 A 
ATOM     17  C   UNL     1       2.556   7.031  19.703  0.00  0.00    +0.000 A 
ATOM     18  N   UNL     1       2.749   7.023  18.335  0.00  0.00    +0.000 N 
ATOM     19  C   UNL     1       1.929   7.993  17.805  0.00  0.00    +0.000 A 
BRANCH  18  20
ATOM     20  C   UNL     1       3.623   6.155  17.625  0.00  0.00    +0.000 A 
ATOM     21  C   UNL     1       4.735   6.710  16.966  0.00  0.00    +0.000 A 
ATOM     22  C   UNL     1       5.624   5.898  16.258  0.00  0.00    +0.000 A 
ATOM     23  C   UNL     1       5.419   4.521  16.183  0.00  0.00    +0.000 A 
ATOM     24  C   UNL     1       4.320   3.948  16.820  0.00  0.00    +0.000 A 
ATOM     25  C   UNL     1       3.433   4.765  17.538  0.00  0.00    +0.000 A 
BRANCH  25  26
ATOM     26  N   UNL     1       2.236   4.108  18.026  0.00  0.00    +0.000 N 
ATOM     27  O   UNL     1       1.236   4.142  17.306  0.00  0.00    +0.000 OA
ATOM     28  O   UNL     1       2.330   3.520  19.116  0.00  0.00    +0.000 OA
ENDBRANCH  25  26
ENDBRANCH  18  20
ENDBRANCH   1  15
TORSDOF 7
ENDMDL
MODEL 8
REMARK VINA RESULT:      -7.0      1.849      2.473
REMARK  Name = 
REMARK  10 active torsions:
REMARK  status: ('A' for Active; 'I' for Inactive)
REMARK    1  A    between atoms: C_1  and  O_2
REMARK    2  A    between atoms: O_2  and  C_3
REMARK    3  A    between atoms: C_5  and  C_6
REMARK    4  A    between atoms: C_6  and  C_8
REMARK    5  A    between atoms: N_11  and  C_12
REMARK    6  A    between atoms: C_17  and  N_18
REMARK    7  A    between atoms: C_23  and  O_24
REMARK    8  A    between atoms: O_24  and  C_25
REMARK    9  A    between atoms: C_26  and  O_27
REMARK   10  A    between atoms: O_27  and  C_28
REMARK                            x       y       z     vdW  Elec       q    Type
REMARK                         _______ _______ _______ _____ _____    ______ ____
ROOT
ATOM      1  C   UNL     1       0.938  10.319  19.433  0.00  0.00    +0.000 C 
ATOM      2  O   UNL     1       1.564  11.173  20.055  0.00  0.00    +0.000 OA
ENDROOT
BRANCH   1   5
ATOM      3  C   UNL     1      -2.460  11.945  19.400  0.00  0.00    +0.000 A 
ATOM      4  C   UNL     1      -1.196  11.500  19.818  0.00  0.00    +0.000 A 
ATOM      5  C   UNL     1      -0.472  10.596  19.048  0.00  0.00    +0.000 A 
ATOM      6  C   UNL     1      -1.076  10.010  17.941  0.00  0.00    +0.000 A 
ATOM      7  C   UNL     1      -2.373  10.370  17.555  0.00  0.00    +0.000 A 
ATOM      8  C   UNL     1      -3.089  11.349  18.284  0.00  0.00    +0.000 A 
BRANCH   3  10
ATOM      9  C   UNL     1      -3.365  12.689  21.460  0.00  0.00    +0.000 C 
ATOM     10  O   UNL     1      -3.078  12.963  20.083  0.00  0.00    +0.000 OA
ENDBRANCH   3  10
BRANCH   7  11
ATOM     11  O   UNL     1      -2.752   9.688  16.424  0.00  0.00    +0.000 OA
ATOM     12  C   UNL     1      -2.780  10.354  15.172  0.00  0.00    +0.000 C 
ENDBRANCH   7  11
BRANCH   8  13
ATOM     13  O   UNL     1      -4.341  11.623  17.814  0.00  0.00    +0.000 OA
ATOM     14  C   UNL     1      -5.495  10.994  18.336  0.00  0.00    +0.000 C 
ENDBRANCH   8  13
ENDBRANCH   1   5
BRANCH   1  15
ATOM     15  C   UNL     1       1.549   9.055  19.035  0.00  0.00    +0.000 A 
ATOM     16  C   UNL     1       2.124   8.655  17.801  0.00  0.00    +0.000 A 
ATOM     17  C   UNL     1       2.546   7.349  17.941  0.00  0.00    +0.000 A 
ATOM     18  N   UNL     1       2.206   6.903  19.203  0.00  0.00    +0.000 N 
ATOM     19  C   UNL     1       1.713   7.985  19.895  0.00  0.00    +0.000 A 
BRANCH  18  20
ATOM     20  C   UNL     1       2.358   5.573  19.682  0.00  0.00    +0.000 A 
ATOM     21  C   UNL     1       1.379   5.051  20.546  0.00  0.00    +0.000 A 
ATOM     22  C   UNL     1       1.485   3.749  21.041  0.00  0.00    +0.000 A 
ATOM     23  C   UNL     1       2.570   2.945  20.696  0.00  0.00    +0.000 A 
ATOM     24  C   UNL     1       3.558   3.443  19.848  0.00  0.00    +0.000 A 
ATOM     25  C   UNL     1       3.446   4.748  19.345  0.00  0.00    +0.000 A 
BRANCH  25  26
ATOM     26  N   UNL     1       4.596   5.233  18.609  0.00  0.00    +0.000 N 
ATOM     27  O   UNL     1       4.609   5.050  17.389  0.00  0.00    +0.000 OA
ATOM     28  O   UNL     1       5.460   5.840  19.263  0.00  0.00    +0.000 OA
ENDBRANCH  25  26
ENDBRANCH  18  20
ENDBRANCH   1  15
TORSDOF 7
ENDMDL
MODEL 9
REMARK VINA RESULT:      -6.9      2.683      8.443
REMARK  Name = 
REMARK  10 active torsions:
REMARK  status: ('A' for Active; 'I' for Inactive)
REMARK    1  A    between atoms: C_1  and  O_2
REMARK    2  A    between atoms: O_2  and  C_3
REMARK    3  A    between atoms: C_5  and  C_6
REMARK    4  A    between atoms: C_6  and  C_8
REMARK    5  A    between atoms: N_11  and  C_12
REMARK    6  A    between atoms: C_17  and  N_18
REMARK    7  A    between atoms: C_23  and  O_24
REMARK    8  A    between atoms: O_24  and  C_25
REMARK    9  A    between atoms: C_26  and  O_27
REMARK   10  A    between atoms: O_27  and  C_28
REMARK                            x       y       z     vdW  Elec       q    Type
REMARK                         _______ _______ _______ _____ _____    ______ ____
ROOT
ATOM      1  C   UNL     1       2.226   8.174  18.196  0.00  0.00    +0.000 C 
ATOM      2  O   UNL     1       2.435   8.921  17.244  0.00  0.00    +0.000 OA
ENDROOT
BRANCH   1   5
ATOM      3  C   UNL     1       4.571   5.229  18.061  0.00  0.00    +0.000 A 
ATOM      4  C   UNL     1       4.050   6.528  17.950  0.00  0.00    +0.000 A 
ATOM      5  C   UNL     1       2.689   6.763  18.121  0.00  0.00    +0.000 A 
ATOM      6  C   UNL     1       1.823   5.683  18.242  0.00  0.00    +0.000 A 
ATOM      7  C   UNL     1       2.311   4.370  18.264  0.00  0.00    +0.000 A 
ATOM      8  C   UNL     1       3.700   4.122  18.173  0.00  0.00    +0.000 A 
BRANCH   3  10
ATOM      9  C   UNL     1       6.599   5.416  19.272  0.00  0.00    +0.000 C 
ATOM     10  O   UNL     1       5.932   5.045  18.060  0.00  0.00    +0.000 OA
ENDBRANCH   3  10
BRANCH   7  11
ATOM     11  O   UNL     1       1.283   3.471  18.419  0.00  0.00    +0.000 OA
ATOM     12  C   UNL     1       0.816   3.146  19.719  0.00  0.00    +0.000 C 
ENDBRANCH   7  11
BRANCH   8  13
ATOM     13  O   UNL     1       4.060   2.806  18.209  0.00  0.00    +0.000 OA
ATOM     14  C   UNL     1       4.335   2.132  19.421  0.00  0.00    +0.000 C 
ENDBRANCH   8  13
ENDBRANCH   1   5
BRANCH   1  15
ATOM     15  C   UNL     1       1.564   8.643  19.409  0.00  0.00    +0.000 A 
ATOM     16  C   UNL     1       1.474   8.056  20.698  0.00  0.00    +0.000 A 
ATOM     17  C   UNL     1       0.718   8.897  21.488  0.00  0.00    +0.000 A 
ATOM     18  N   UNL     1       0.288   9.962  20.722  0.00  0.00    +0.000 N 
ATOM     19  C   UNL     1       0.910   9.858  19.499  0.00  0.00    +0.000 A 
BRANCH  18  20
ATOM     20  C   UNL     1      -0.616  10.976  21.142  0.00  0.00    +0.000 A 
ATOM     21  C   UNL     1      -0.714  11.265  22.515  0.00  0.00    +0.000 A 
ATOM     22  C   UNL     1      -1.586  12.254  22.976  0.00  0.00    +0.000 A 
ATOM     23  C   UNL     1      -2.385  12.967  22.083  0.00  0.00    +0.000 A 
ATOM     24  C   UNL     1      -2.312  12.693  20.718  0.00  0.00    +0.000 A 
ATOM     25  C   UNL     1      -1.429  11.705  20.256  0.00  0.00    +0.000 A 
BRANCH  25  26
ATOM     26  N   UNL     1      -1.541  11.376  18.849  0.00  0.00    +0.000 N 
ATOM     27  O   UNL     1      -2.191  10.371  18.550  0.00  0.00    +0.000 OA
ATOM     28  O   UNL     1      -1.010  12.165  18.050  0.00  0.00    +0.000 OA
ENDBRANCH  25  26
ENDBRANCH  18  20
ENDBRANCH   1  15
TORSDOF 7
ENDMDL
