MODEL 1
REMARK VINA RESULT:      -6.6      0.000      0.000
REMARK  Name = 
REMARK  5 active torsions:
REMARK  status: ('A' for Active; 'I' for Inactive)
REMARK    1  A    between atoms: C_1  and  C_2
REMARK    2  A    between atoms: C_2  and  O_3
REMARK    3  A    between atoms: O_3  and  C_4
REMARK    4  A    between atoms: C_4  and  C_6
REMARK    5  A    between atoms: C_9  and  C_10
REMARK                            x       y       z     vdW  Elec       q    Type
REMARK                         _______ _______ _______ _____ _____    ______ ____
ROOT
ATOM      1  C   UNL     1       6.070   4.423  17.410  0.00  0.00    +0.000 A 
ATOM      2  C   UNL     1       5.217   4.127  16.361  0.00  0.00    +0.000 A 
ATOM      3  C   UNL     1       3.937   3.857  16.905  0.00  0.00    +0.000 A 
ATOM      4  C   UNL     1       4.023   3.992  18.278  0.00  0.00    +0.000 A 
ATOM      5  N   UNL     1       5.321   4.342  18.560  0.00  0.00    +0.000 N 
ATOM      6  H   UNL     1       5.681   4.535  19.487  0.00  0.00    +0.000 HD
ENDROOT
BRANCH   4   7
ATOM      7  C   UNL     1       3.018   3.827  19.291  0.00  0.00    +0.000 A 
ATOM      8  C   UNL     1       1.819   4.508  19.394  0.00  0.00    +0.000 A 
ATOM      9  C   UNL     1       1.044   4.092  20.515  0.00  0.00    +0.000 A 
ATOM     10  C   UNL     1       1.675   3.110  21.244  0.00  0.00    +0.000 A 
ATOM     11  S   UNL     1       3.189   2.692  20.570  0.00  0.00    +0.000 S 
ENDBRANCH   4   7
BRANCH   1  12
ATOM     12  C   UNL     1       7.454   4.812  17.434  0.00  0.00    +0.000 C 
ATOM     13  O   UNL     1       8.369   4.081  17.794  0.00  0.00    +0.000 OA
BRANCH  12  14
ATOM     14  O   UNL     1       7.572   6.126  17.104  0.00  0.00    +0.000 OA
BRANCH  14  16
ATOM     15  C   UNL     1       7.851   8.422  17.670  0.00  0.00    +0.000 C 
ATOM     16  C   UNL     1       7.821   7.003  18.209  0.00  0.00    +0.000 C 
ENDBRANCH  14  16
ENDBRANCH  12  14
ENDBRANCH   1  12
TORSDOF 4
ENDMDL
MODEL 2
REMARK VINA RESULT:      -6.3      2.408      3.352
REMARK  Name = 
REMARK  5 active torsions:
REMARK  status: ('A' for Active; 'I' for Inactive)
REMARK    1  A    between atoms: C_1  and  C_2
REMARK    2  A    between atoms: C_2  and  O_3
REMARK    3  A    between atoms: O_3  and  C_4
REMARK    4  A    between atoms: C_4  and  C_6
REMARK    5  A    between atoms: C_9  and  C_10
REMARK                            x       y       z     vdW  Elec       q    Type
REMARK                         _______ _______ _______ _____ _____    ______ ____
ROOT
ATOM      1  C   UNL     1       5.376   5.222  16.095  0.00  0.00    +0.000 A 
ATOM      2  C   UNL     1       5.049   6.463  16.615  0.00  0.00    +0.000 A 
ATOM      3  C   UNL     1       3.978   6.283  17.525  0.00  0.00    +0.000 A 
ATOM      4  C   UNL     1       3.664   4.938  17.550  0.00  0.00    +0.000 A 
ATOM      5  N   UNL     1       4.527   4.314  16.683  0.00  0.00    +0.000 N 
ATOM      6  H   UNL     1       4.554   3.317  16.509  0.00  0.00    +0.000 HD
ENDROOT
BRANCH   4   7
ATOM      7  C   UNL     1       2.660   4.234  18.299  0.00  0.00    +0.000 A 
ATOM      8  C   UNL     1       1.906   4.725  19.349  0.00  0.00    +0.000 A 
ATOM      9  C   UNL     1       0.988   3.765  19.863  0.00  0.00    +0.000 A 
ATOM     10  C   UNL     1       1.071   2.562  19.200  0.00  0.00    +0.000 A 
ATOM     11  S   UNL     1       2.246   2.601  17.959  0.00  0.00    +0.000 S 
ENDBRANCH   4   7
BRANCH   1  12
ATOM     12  C   UNL     1       6.403   4.813  15.176  0.00  0.00    +0.000 C 
ATOM     13  O   UNL     1       7.503   5.345  15.090  0.00  0.00    +0.000 OA
BRANCH  12  14
ATOM     14  O   UNL     1       5.929   3.834  14.359  0.00  0.00    +0.000 OA
BRANCH  14  16
ATOM     15  C   UNL     1       5.390   3.244  12.116  0.00  0.00    +0.000 C 
ATOM     16  C   UNL     1       6.436   3.870  13.021  0.00  0.00    +0.000 C 
ENDBRANCH  14  16
ENDBRANCH  12  14
ENDBRANCH   1  12
TORSDOF 4
ENDMDL
MODEL 3
REMARK VINA RESULT:      -6.2      0.968      1.074
REMARK  Name = 
REMARK  5 active torsions:
REMARK  status: ('A' for Active; 'I' for Inactive)
REMARK    1  A    between atoms: C_1  and  C_2
REMARK    2  A    between atoms: C_2  and  O_3
REMARK    3  A    between atoms: O_3  and  C_4
REMARK    4  A    between atoms: C_4  and  C_6
REMARK    5  A    between atoms: C_9  and  C_10
REMARK                            x       y       z     vdW  Elec       q    Type
REMARK                         _______ _______ _______ _____ _____    ______ ____
ROOT
ATOM      1  C   UNL     1       6.133   4.496  17.684  0.00  0.00    +0.000 A 
ATOM      2  C   UNL     1       5.408   4.297  16.521  0.00  0.00    +0.000 A 
ATOM      3  C   UNL     1       4.080   3.969  16.889  0.00  0.00    +0.000 A 
ATOM      4  C   UNL     1       4.009   3.971  18.269  0.00  0.00    +0.000 A 
ATOM      5  N   UNL     1       5.261   4.299  18.729  0.00  0.00    +0.000 N 
ATOM      6  H   UNL     1       5.512   4.403  19.704  0.00  0.00    +0.000 HD
ENDROOT
BRANCH   4   7
ATOM      7  C   UNL     1       2.899   3.702  19.141  0.00  0.00    +0.000 A 
ATOM      8  C   UNL     1       2.894   3.753  20.523  0.00  0.00    +0.000 A 
ATOM      9  C   UNL     1       1.620   3.441  21.080  0.00  0.00    +0.000 A 
ATOM     10  C   UNL     1       0.688   3.152  20.109  0.00  0.00    +0.000 A 
ATOM     11  S   UNL     1       1.350   3.266  18.538  0.00  0.00    +0.000 S 
ENDBRANCH   4   7
BRANCH   1  12
ATOM     12  C   UNL     1       7.499   4.888  17.902  0.00  0.00    +0.000 C 
ATOM     13  O   UNL     1       8.459   4.135  17.791  0.00  0.00    +0.000 OA
BRANCH  12  14
ATOM     14  O   UNL     1       7.546   6.172  18.347  0.00  0.00    +0.000 OA
BRANCH  14  16
ATOM     15  C   UNL     1       8.017   8.456  17.864  0.00  0.00    +0.000 C 
ATOM     16  C   UNL     1       7.422   7.167  17.325  0.00  0.00    +0.000 C 
ENDBRANCH  14  16
ENDBRANCH  12  14
ENDBRANCH   1  12
TORSDOF 4
ENDMDL
MODEL 4
REMARK VINA RESULT:      -6.2      2.493      3.472
REMARK  Name = 
REMARK  5 active torsions:
REMARK  status: ('A' for Active; 'I' for Inactive)
REMARK    1  A    between atoms: C_1  and  C_2
REMARK    2  A    between atoms: C_2  and  O_3
REMARK    3  A    between atoms: O_3  and  C_4
REMARK    4  A    between atoms: C_4  and  C_6
REMARK    5  A    between atoms: C_9  and  C_10
REMARK                            x       y       z     vdW  Elec       q    Type
REMARK                         _______ _______ _______ _____ _____    ______ ____
ROOT
ATOM      1  C   UNL     1       5.526   5.366  16.068  0.00  0.00    +0.000 A 
ATOM      2  C   UNL     1       5.460   6.511  16.842  0.00  0.00    +0.000 A 
ATOM      3  C   UNL     1       4.425   6.333  17.793  0.00  0.00    +0.000 A 
ATOM      4  C   UNL     1       3.871   5.083  17.588  0.00  0.00    +0.000 A 
ATOM      5  N   UNL     1       4.558   4.513  16.544  0.00  0.00    +0.000 N 
ATOM      6  H   UNL     1       4.392   3.582  16.180  0.00  0.00    +0.000 HD
ENDROOT
BRANCH   4   7
ATOM      7  C   UNL     1       2.798   4.420  18.275  0.00  0.00    +0.000 A 
ATOM      8  C   UNL     1       2.106   3.299  17.856  0.00  0.00    +0.000 A 
ATOM      9  C   UNL     1       1.105   2.891  18.783  0.00  0.00    +0.000 A 
ATOM     10  C   UNL     1       1.052   3.716  19.884  0.00  0.00    +0.000 A 
ATOM     11  S   UNL     1       2.212   4.969  19.795  0.00  0.00    +0.000 S 
ENDBRANCH   4   7
BRANCH   1  12
ATOM     12  C   UNL     1       6.409   4.986  14.999  0.00  0.00    +0.000 C 
ATOM     13  O   UNL     1       7.520   5.469  14.818  0.00  0.00    +0.000 OA
BRANCH  12  14
ATOM     14  O   UNL     1       5.785   4.101  14.175  0.00  0.00    +0.000 OA
BRANCH  14  16
ATOM     15  C   UNL     1       5.490   3.172  12.002  0.00  0.00    +0.000 C 
ATOM     16  C   UNL     1       6.476   3.832  12.950  0.00  0.00    +0.000 C 
ENDBRANCH  14  16
ENDBRANCH  12  14
ENDBRANCH   1  12
TORSDOF 4
ENDMDL
MODEL 5
REMARK VINA RESULT:      -6.2      1.465      1.486
REMARK  Name = 
REMARK  5 active torsions:
REMARK  status: ('A' for Active; 'I' for Inactive)
REMARK    1  A    between atoms: C_1  and  C_2
REMARK    2  A    between atoms: C_2  and  O_3
REMARK    3  A    between atoms: O_3  and  C_4
REMARK    4  A    between atoms: C_4  and  C_6
REMARK    5  A    between atoms: C_9  and  C_10
REMARK                            x       y       z     vdW  Elec       q    Type
REMARK                         _______ _______ _______ _____ _____    ______ ____
ROOT
ATOM      1  C   UNL     1       5.664   5.768  17.213  0.00  0.00    +0.000 A 
ATOM      2  C   UNL     1       4.766   6.806  17.031  0.00  0.00    +0.000 A 
ATOM      3  C   UNL     1       3.530   6.414  17.599  0.00  0.00    +0.000 A 
ATOM      4  C   UNL     1       3.686   5.144  18.121  0.00  0.00    +0.000 A 
ATOM      5  N   UNL     1       4.987   4.776  17.882  0.00  0.00    +0.000 N 
ATOM      6  H   UNL     1       5.405   3.901  18.174  0.00  0.00    +0.000 HD
ENDROOT
BRANCH   4   7
ATOM      7  C   UNL     1       2.743   4.297  18.798  0.00  0.00    +0.000 A 
ATOM      8  C   UNL     1       1.885   4.656  19.821  0.00  0.00    +0.000 A 
ATOM      9  C   UNL     1       1.070   3.573  20.261  0.00  0.00    +0.000 A 
ATOM     10  C   UNL     1       1.333   2.414  19.568  0.00  0.00    +0.000 A 
ATOM     11  S   UNL     1       2.550   2.638  18.391  0.00  0.00    +0.000 S 
ENDBRANCH   4   7
BRANCH   1  12
ATOM     12  C   UNL     1       7.057   5.642  16.881  0.00  0.00    +0.000 C 
ATOM     13  O   UNL     1       7.645   4.572  16.770  0.00  0.00    +0.000 OA
BRANCH  12  14
ATOM     14  O   UNL     1       7.632   6.873  16.816  0.00  0.00    +0.000 OA
BRANCH  14  16
ATOM     15  C   UNL     1       8.114   8.932  17.910  0.00  0.00    +0.000 C 
ATOM     16  C   UNL     1       8.009   7.427  18.081  0.00  0.00    +0.000 C 
ENDBRANCH  14  16
ENDBRANCH  12  14
ENDBRANCH   1  12
TORSDOF 4
ENDMDL
MODEL 6
REMARK VINA RESULT:      -6.2      1.555      2.324
REMARK  Name = 
REMARK  5 active torsions:
REMARK  status: ('A' for Active; 'I' for Inactive)
REMARK    1  A    between atoms: C_1  and  C_2
REMARK    2  A    between atoms: C_2  and  O_3
REMARK    3  A    between atoms: O_3  and  C_4
REMARK    4  A    between atoms: C_4  and  C_6
REMARK    5  A    between atoms: C_9  and  C_10
REMARK                            x       y       z     vdW  Elec       q    Type
REMARK                         _______ _______ _______ _____ _____    ______ ____
ROOT
ATOM      1  C   UNL     1       5.849   5.063  17.603  0.00  0.00    +0.000 A 
ATOM      2  C   UNL     1       5.188   6.266  17.428  0.00  0.00    +0.000 A 
ATOM      3  C   UNL     1       3.879   6.122  17.949  0.00  0.00    +0.000 A 
ATOM      4  C   UNL     1       3.755   4.834  18.436  0.00  0.00    +0.000 A 
ATOM      5  N   UNL     1       4.962   4.214  18.223  0.00  0.00    +0.000 N 
ATOM      6  H   UNL     1       5.183   3.265  18.499  0.00  0.00    +0.000 HD
ENDROOT
BRANCH   4   7
ATOM      7  C   UNL     1       2.638   4.182  19.060  0.00  0.00    +0.000 A 
ATOM      8  C   UNL     1       1.701   3.368  18.450  0.00  0.00    +0.000 A 
ATOM      9  C   UNL     1       0.727   2.871  19.363  0.00  0.00    +0.000 A 
ATOM     10  C   UNL     1       0.940   3.325  20.645  0.00  0.00    +0.000 A 
ATOM     11  S   UNL     1       2.313   4.338  20.740  0.00  0.00    +0.000 S 
ENDBRANCH   4   7
BRANCH   1  12
ATOM     12  C   UNL     1       7.197   4.662  17.306  0.00  0.00    +0.000 C 
ATOM     13  O   UNL     1       8.047   4.418  18.154  0.00  0.00    +0.000 OA
BRANCH  12  14
ATOM     14  O   UNL     1       7.406   4.700  15.963  0.00  0.00    +0.000 OA
BRANCH  14  16
ATOM     15  C   UNL     1       6.469   4.401  13.794  0.00  0.00    +0.000 C 
ATOM     16  C   UNL     1       6.564   3.831  15.199  0.00  0.00    +0.000 C 
ENDBRANCH  14  16
ENDBRANCH  12  14
ENDBRANCH   1  12
TORSDOF 4
ENDMDL
MODEL 7
REMARK VINA RESULT:      -6.1      1.656      2.398
REMARK  Name = 
REMARK  5 active torsions:
REMARK  status: ('A' for Active; 'I' for Inactive)
REMARK    1  A    between atoms: C_1  and  C_2
REMARK    2  A    between atoms: C_2  and  O_3
REMARK    3  A    between atoms: O_3  and  C_4
REMARK    4  A    between atoms: C_4  and  C_6
REMARK    5  A    between atoms: C_9  and  C_10
REMARK                            x       y       z     vdW  Elec       q    Type
REMARK                         _______ _______ _______ _____ _____    ______ ____
ROOT
ATOM      1  C   UNL     1       5.718   5.949  17.338  0.00  0.00    +0.000 A 
ATOM      2  C   UNL     1       4.624   6.772  17.135  0.00  0.00    +0.000 A 
ATOM      3  C   UNL     1       3.586   6.334  17.994  0.00  0.00    +0.000 A 
ATOM      4  C   UNL     1       4.058   5.251  18.711  0.00  0.00    +0.000 A 
ATOM      5  N   UNL     1       5.352   5.041  18.303  0.00  0.00    +0.000 N 
ATOM      6  H   UNL     1       5.967   4.326  18.672  0.00  0.00    +0.000 HD
ENDROOT
BRANCH   4   7
ATOM      7  C   UNL     1       3.408   4.444  19.706  0.00  0.00    +0.000 A 
ATOM      8  C   UNL     1       2.398   4.834  20.566  0.00  0.00    +0.000 A 
ATOM      9  C   UNL     1       1.968   3.781  21.423  0.00  0.00    +0.000 A 
ATOM     10  C   UNL     1       2.666   2.616  21.202  0.00  0.00    +0.000 A 
ATOM     11  S   UNL     1       3.827   2.797  19.961  0.00  0.00    +0.000 S 
ENDBRANCH   4   7
BRANCH   1  12
ATOM     12  C   UNL     1       7.041   5.964  16.776  0.00  0.00    +0.000 C 
ATOM     13  O   UNL     1       7.710   6.977  16.612  0.00  0.00    +0.000 OA
BRANCH  12  14
ATOM     14  O   UNL     1       7.382   4.713  16.362  0.00  0.00    +0.000 OA
BRANCH  14  16
ATOM     15  C   UNL     1       7.042   4.813  14.008  0.00  0.00    +0.000 C 
ATOM     16  C   UNL     1       6.570   4.187  15.308  0.00  0.00    +0.000 C 
ENDBRANCH  14  16
ENDBRANCH  12  14
ENDBRANCH   1  12
TORSDOF 4
ENDMDL
MODEL 8
REMARK VINA RESULT:      -6.1      1.957      2.742
REMARK  Name = 
REMARK  5 active torsions:
REMARK  status: ('A' for Active; 'I' for Inactive)
REMARK    1  A    between atoms: C_1  and  C_2
REMARK    2  A    between atoms: C_2  and  O_3
REMARK    3  A    between atoms: O_3  and  C_4
REMARK    4  A    between atoms: C_4  and  C_6
REMARK    5  A    between atoms: C_9  and  C_10
REMARK                            x       y       z     vdW  Elec       q    Type
REMARK                         _______ _______ _______ _____ _____    ______ ____
ROOT
ATOM      1  C   UNL     1       5.373   5.937  17.081  0.00  0.00    +0.000 A 
ATOM      2  C   UNL     1       4.564   7.052  17.220  0.00  0.00    +0.000 A 
ATOM      3  C   UNL     1       3.365   6.641  17.851  0.00  0.00    +0.000 A 
ATOM      4  C   UNL     1       3.454   5.283  18.091  0.00  0.00    +0.000 A 
ATOM      5  N   UNL     1       4.681   4.880  17.623  0.00  0.00    +0.000 N 
ATOM      6  H   UNL     1       5.043   3.936  17.683  0.00  0.00    +0.000 HD
ENDROOT
BRANCH   4   7
ATOM      7  C   UNL     1       2.514   4.385  18.702  0.00  0.00    +0.000 A 
ATOM      8  C   UNL     1       1.744   3.427  18.070  0.00  0.00    +0.000 A 
ATOM      9  C   UNL     1       0.922   2.696  18.975  0.00  0.00    +0.000 A 
ATOM     10  C   UNL     1       1.079   3.121  20.274  0.00  0.00    +0.000 A 
ATOM     11  S   UNL     1       2.219   4.389  20.395  0.00  0.00    +0.000 S 
ENDBRANCH   4   7
BRANCH   1  12
ATOM     12  C   UNL     1       6.703   5.782  16.557  0.00  0.00    +0.000 C 
ATOM     13  O   UNL     1       7.578   6.636  16.632  0.00  0.00    +0.000 OA
BRANCH  12  14
ATOM     14  O   UNL     1       6.802   4.603  15.885  0.00  0.00    +0.000 OA
BRANCH  14  16
ATOM     15  C   UNL     1       5.873   3.905  13.806  0.00  0.00    +0.000 C 
ATOM     16  C   UNL     1       6.961   4.732  14.468  0.00  0.00    +0.000 C 
ENDBRANCH  14  16
ENDBRANCH  12  14
ENDBRANCH   1  12
TORSDOF 4
ENDMDL
MODEL 9
REMARK VINA RESULT:      -6.0      1.521      1.780
REMARK  Name = 
REMARK  5 active torsions:
REMARK  status: ('A' for Active; 'I' for Inactive)
REMARK    1  A    between atoms: C_1  and  C_2
REMARK    2  A    between atoms: C_2  and  O_3
REMARK    3  A    between atoms: O_3  and  C_4
REMARK    4  A    between atoms: C_4  and  C_6
REMARK    5  A    between atoms: C_9  and  C_10
REMARK                            x       y       z     vdW  Elec       q    Type
REMARK                         _______ _______ _______ _____ _____    ______ ____
ROOT
ATOM      1  C   UNL     1       4.751   5.310  16.807  0.00  0.00    +0.000 A 
ATOM      2  C   UNL     1       4.853   4.021  16.314  0.00  0.00    +0.000 A 
ATOM      3  C   UNL     1       4.099   3.172  17.161  0.00  0.00    +0.000 A 
ATOM      4  C   UNL     1       3.546   3.951  18.160  0.00  0.00    +0.000 A 
ATOM      5  N   UNL     1       3.948   5.243  17.921  0.00  0.00    +0.000 N 
ATOM      6  H   UNL     1       3.679   6.046  18.476  0.00  0.00    +0.000 HD
ENDROOT
BRANCH   4   7
ATOM      7  C   UNL     1       2.706   3.583  19.265  0.00  0.00    +0.000 A 
ATOM      8  C   UNL     1       1.354   3.842  19.407  0.00  0.00    +0.000 A 
ATOM      9  C   UNL     1       0.820   3.327  20.622  0.00  0.00    +0.000 A 
ATOM     10  C   UNL     1       1.778   2.695  21.382  0.00  0.00    +0.000 A 
ATOM     11  S   UNL     1       3.310   2.721  20.624  0.00  0.00    +0.000 S 
ENDBRANCH   4   7
BRANCH   1  12
ATOM     12  C   UNL     1       5.270   6.561  16.324  0.00  0.00    +0.000 C 
ATOM     13  O   UNL     1       5.236   6.914  15.151  0.00  0.00    +0.000 OA
BRANCH  12  14
ATOM     14  O   UNL     1       5.890   7.227  17.335  0.00  0.00    +0.000 OA
BRANCH  14  16
ATOM     15  C   UNL     1       7.952   8.353  17.720  0.00  0.00    +0.000 C 
ATOM     16  C   UNL     1       7.303   7.014  17.417  0.00  0.00    +0.000 C 
ENDBRANCH  14  16
ENDBRANCH  12  14
ENDBRANCH   1  12
TORSDOF 4
ENDMDL
