MODEL 1
REMARK VINA RESULT:      -8.3      0.000      0.000
REMARK  Name = 
REMARK  6 active torsions:
REMARK  status: ('A' for Active; 'I' for Inactive)
REMARK    1  A    between atoms: N_3  and  C_4
REMARK    2  A    between atoms: C_4  and  C_5
REMARK    3  A    between atoms: C_5  and  C_6
REMARK    4  A    between atoms: C_6  and  N_7
REMARK    5  A    between atoms: C_8  and  C_9
REMARK    6  A    between atoms: N_22  and  C_23
REMARK                            x       y       z     vdW  Elec       q    Type
REMARK                         _______ _______ _______ _____ _____    ______ ____
ROOT
ATOM      1  C   UNL     1       6.767   6.626  16.829  0.00  0.00    +0.000 C 
ENDROOT
BRANCH   1   2
ATOM      2  N   UNL     1       6.173   5.579  16.018  0.00  0.00    +0.000 N 
ATOM      3  C   UNL     1       5.026   4.840  16.321  0.00  0.00    +0.000 A 
ATOM      4  N   UNL     1       4.713   4.056  15.294  0.00  0.00    +0.000 NA
ATOM      5  C   UNL     1       5.700   4.217  14.363  0.00  0.00    +0.000 A 
ATOM      6  C   UNL     1       5.899   3.627  13.109  0.00  0.00    +0.000 A 
ATOM      7  C   UNL     1       7.005   4.049  12.366  0.00  0.00    +0.000 A 
ATOM      8  C   UNL     1       7.860   4.995  12.909  0.00  0.00    +0.000 A 
ATOM      9  N   UNL     1       7.732   5.547  14.132  0.00  0.00    +0.000 NA
ATOM     10  C   UNL     1       6.631   5.142  14.797  0.00  0.00    +0.000 A 
BRANCH   3  11
ATOM     11  C   UNL     1       4.228   4.858  17.566  0.00  0.00    +0.000 A 
ATOM     12  C   UNL     1       4.389   3.810  18.484  0.00  0.00    +0.000 A 
ATOM     13  C   UNL     1       3.729   3.866  19.703  0.00  0.00    +0.000 A 
ATOM     14  N   UNL     1       2.914   4.875  20.067  0.00  0.00    +0.000 NA
ATOM     15  C   UNL     1       2.772   5.879  19.181  0.00  0.00    +0.000 A 
ATOM     16  C   UNL     1       3.400   5.916  17.943  0.00  0.00    +0.000 A 
ENDBRANCH   3  11
ENDBRANCH   1   2
BRANCH   1  17
ATOM     17  C   UNL     1       7.714   6.249  17.974  0.00  0.00    +0.000 C 
BRANCH  17  18
ATOM     18  C   UNL     1       8.298   7.439  18.731  0.00  0.00    +0.000 C 
BRANCH  18  21
ATOM     19  O   UNL     1       9.292   9.850  19.579  0.00  0.00    +0.000 OA
ATOM     20  C   UNL     1       8.708   9.820  18.506  0.00  0.00    +0.000 C 
ATOM     21  N   UNL     1       8.111   8.680  18.016  0.00  0.00    +0.000 N 
ATOM     22  N   UNL     1       8.530  10.876  17.642  0.00  0.00    +0.000 N 
ATOM     23  H   UNL     1       8.076   8.615  17.008  0.00  0.00    +0.000 HD
ATOM     24  H   UNL     1       7.708  10.820  17.054  0.00  0.00    +0.000 HD
BRANCH  22  25
ATOM     25  C   UNL     1       9.192  12.111  17.738  0.00  0.00    +0.000 A 
ATOM     26  C   UNL     1      10.578  12.238  17.627  0.00  0.00    +0.000 A 
ATOM     27  C   UNL     1      11.191  13.488  17.718  0.00  0.00    +0.000 A 
ATOM     28  C   UNL     1      10.413  14.624  17.925  0.00  0.00    +0.000 A 
ATOM     29  C   UNL     1       9.029  14.503  18.030  0.00  0.00    +0.000 A 
ATOM     30 BR   UNL     1       7.977  16.044  18.338  0.00  0.00    +0.000 Br
ATOM     31  C   UNL     1       8.410  13.257  17.922  0.00  0.00    +0.000 A 
ENDBRANCH  22  25
ENDBRANCH  18  21
ENDBRANCH  17  18
ENDBRANCH   1  17
TORSDOF 6
ENDMDL
MODEL 2
REMARK VINA RESULT:      -8.2      2.600      4.701
REMARK  Name = 
REMARK  6 active torsions:
REMARK  status: ('A' for Active; 'I' for Inactive)
REMARK    1  A    between atoms: N_3  and  C_4
REMARK    2  A    between atoms: C_4  and  C_5
REMARK    3  A    between atoms: C_5  and  C_6
REMARK    4  A    between atoms: C_6  and  N_7
REMARK    5  A    between atoms: C_8  and  C_9
REMARK    6  A    between atoms: N_22  and  C_23
REMARK                            x       y       z     vdW  Elec       q    Type
REMARK                         _______ _______ _______ _____ _____    ______ ____
ROOT
ATOM      1  C   UNL     1       4.994   6.396  18.402  0.00  0.00    +0.000 C 
ENDROOT
BRANCH   1   2
ATOM      2  N   UNL     1       3.905   5.690  19.052  0.00  0.00    +0.000 N 
ATOM      3  C   UNL     1       2.625   6.188  19.307  0.00  0.00    +0.000 A 
ATOM      4  N   UNL     1       1.859   5.222  19.806  0.00  0.00    +0.000 NA
ATOM      5  C   UNL     1       2.660   4.126  19.957  0.00  0.00    +0.000 A 
ATOM      6  C   UNL     1       2.397   2.845  20.457  0.00  0.00    +0.000 A 
ATOM      7  C   UNL     1       3.440   1.915  20.434  0.00  0.00    +0.000 A 
ATOM      8  C   UNL     1       4.680   2.307  19.953  0.00  0.00    +0.000 A 
ATOM      9  N   UNL     1       4.987   3.544  19.513  0.00  0.00    +0.000 NA
ATOM     10  C   UNL     1       3.942   4.395  19.516  0.00  0.00    +0.000 A 
BRANCH   3  11
ATOM     11  C   UNL     1       2.117   7.561  19.096  0.00  0.00    +0.000 A 
ATOM     12  C   UNL     1       1.557   8.246  20.184  0.00  0.00    +0.000 A 
ATOM     13  C   UNL     1       1.174   9.570  20.030  0.00  0.00    +0.000 A 
ATOM     14  N   UNL     1       1.294  10.254  18.875  0.00  0.00    +0.000 NA
ATOM     15  C   UNL     1       1.840   9.589  17.839  0.00  0.00    +0.000 A 
ATOM     16  C   UNL     1       2.262   8.267  17.902  0.00  0.00    +0.000 A 
ENDBRANCH   3  11
ENDBRANCH   1   2
BRANCH   1  17
ATOM     17  C   UNL     1       5.645   5.794  17.151  0.00  0.00    +0.000 C 
BRANCH  17  18
ATOM     18  C   UNL     1       7.089   6.230  16.917  0.00  0.00    +0.000 C 
BRANCH  18  21
ATOM     19  O   UNL     1       8.547   7.531  18.841  0.00  0.00    +0.000 OA
ATOM     20  C   UNL     1       8.045   8.204  17.953  0.00  0.00    +0.000 C 
ATOM     21  N   UNL     1       7.239   7.665  16.976  0.00  0.00    +0.000 N 
ATOM     22  N   UNL     1       8.172   9.564  17.786  0.00  0.00    +0.000 N 
ATOM     23  H   UNL     1       7.260   8.149  16.089  0.00  0.00    +0.000 HD
ATOM     24  H   UNL     1       7.402  10.016  17.311  0.00  0.00    +0.000 HD
BRANCH  22  25
ATOM     25  C   UNL     1       9.091  10.375  18.474  0.00  0.00    +0.000 A 
ATOM     26  C   UNL     1       9.188  10.396  19.867  0.00  0.00    +0.000 A 
ATOM     27  C   UNL     1      10.123  11.210  20.506  0.00  0.00    +0.000 A 
ATOM     28  C   UNL     1      10.971  12.014  19.748  0.00  0.00    +0.000 A 
ATOM     29  C   UNL     1      10.882  11.991  18.358  0.00  0.00    +0.000 A 
ATOM     30 BR   UNL     1      12.014  13.104  17.331  0.00  0.00    +0.000 Br
ATOM     31  C   UNL     1       9.959  11.165  17.713  0.00  0.00    +0.000 A 
ENDBRANCH  22  25
ENDBRANCH  18  21
ENDBRANCH  17  18
ENDBRANCH   1  17
TORSDOF 6
ENDMDL
MODEL 3
REMARK VINA RESULT:      -8.1      1.104      1.171
REMARK  Name = 
REMARK  6 active torsions:
REMARK  status: ('A' for Active; 'I' for Inactive)
REMARK    1  A    between atoms: N_3  and  C_4
REMARK    2  A    between atoms: C_4  and  C_5
REMARK    3  A    between atoms: C_5  and  C_6
REMARK    4  A    between atoms: C_6  and  N_7
REMARK    5  A    between atoms: C_8  and  C_9
REMARK    6  A    between atoms: N_22  and  C_23
REMARK                            x       y       z     vdW  Elec       q    Type
REMARK                         _______ _______ _______ _____ _____    ______ ____
ROOT
ATOM      1  C   UNL     1       7.251   5.932  17.076  0.00  0.00    +0.000 C 
ENDROOT
BRANCH   1   2
ATOM      2  N   UNL     1       6.468   5.182  16.110  0.00  0.00    +0.000 N 
ATOM      3  C   UNL     1       5.213   4.607  16.324  0.00  0.00    +0.000 A 
ATOM      4  N   UNL     1       4.749   4.105  15.183  0.00  0.00    +0.000 NA
ATOM      5  C   UNL     1       5.734   4.273  14.252  0.00  0.00    +0.000 A 
ATOM      6  C   UNL     1       5.805   3.916  12.900  0.00  0.00    +0.000 A 
ATOM      7  C   UNL     1       6.957   4.279  12.196  0.00  0.00    +0.000 A 
ATOM      8  C   UNL     1       7.975   4.940  12.867  0.00  0.00    +0.000 A 
ATOM      9  N   UNL     1       7.966   5.254  14.177  0.00  0.00    +0.000 NA
ATOM     10  C   UNL     1       6.821   4.922  14.807  0.00  0.00    +0.000 A 
BRANCH   3  11
ATOM     11  C   UNL     1       4.449   4.517  17.588  0.00  0.00    +0.000 A 
ATOM     12  C   UNL     1       4.734   3.466  18.472  0.00  0.00    +0.000 A 
ATOM     13  C   UNL     1       4.104   3.427  19.708  0.00  0.00    +0.000 A 
ATOM     14  N   UNL     1       3.207   4.345  20.119  0.00  0.00    +0.000 NA
ATOM     15  C   UNL     1       2.947   5.353  19.265  0.00  0.00    +0.000 A 
ATOM     16  C   UNL     1       3.535   5.481  18.014  0.00  0.00    +0.000 A 
ENDBRANCH   3  11
ENDBRANCH   1   2
BRANCH   1  17
ATOM     17  C   UNL     1       6.944   7.417  17.307  0.00  0.00    +0.000 C 
BRANCH  17  18
ATOM     18  C   UNL     1       7.973   8.149  18.165  0.00  0.00    +0.000 C 
BRANCH  18  21
ATOM     19  O   UNL     1       9.509   9.967  19.525  0.00  0.00    +0.000 OA
ATOM     20  C   UNL     1       8.991  10.328  18.479  0.00  0.00    +0.000 C 
ATOM     21  N   UNL     1       8.146   9.521  17.750  0.00  0.00    +0.000 N 
ATOM     22  N   UNL     1       9.134  11.557  17.876  0.00  0.00    +0.000 N 
ATOM     23  H   UNL     1       8.147   9.691  16.754  0.00  0.00    +0.000 HD
ATOM     24  H   UNL     1       8.356  11.849  17.299  0.00  0.00    +0.000 HD
BRANCH  22  25
ATOM     25  C   UNL     1      10.086  12.524  18.241  0.00  0.00    +0.000 A 
ATOM     26  C   UNL     1      11.274  12.722  17.535  0.00  0.00    +0.000 A 
ATOM     27  C   UNL     1      12.184  13.701  17.929  0.00  0.00    +0.000 A 
ATOM     28  C   UNL     1      11.910  14.492  19.042  0.00  0.00    +0.000 A 
ATOM     29  C   UNL     1      10.723  14.302  19.747  0.00  0.00    +0.000 A 
ATOM     30 BR   UNL     1      10.364  15.357  21.274  0.00  0.00    +0.000 Br
ATOM     31  C   UNL     1       9.800  13.335  19.345  0.00  0.00    +0.000 A 
ENDBRANCH  22  25
ENDBRANCH  18  21
ENDBRANCH  17  18
ENDBRANCH   1  17
TORSDOF 6
ENDMDL
MODEL 4
REMARK VINA RESULT:      -8.1      5.541      7.694
REMARK  Name = 
REMARK  6 active torsions:
REMARK  status: ('A' for Active; 'I' for Inactive)
REMARK    1  A    between atoms: N_3  and  C_4
REMARK    2  A    between atoms: C_4  and  C_5
REMARK    3  A    between atoms: C_5  and  C_6
REMARK    4  A    between atoms: C_6  and  N_7
REMARK    5  A    between atoms: C_8  and  C_9
REMARK    6  A    between atoms: N_22  and  C_23
REMARK                            x       y       z     vdW  Elec       q    Type
REMARK                         _______ _______ _______ _____ _____    ______ ____
ROOT
ATOM      1  C   UNL     1       3.749   6.780  18.275  0.00  0.00    +0.000 C 
ENDROOT
BRANCH   1   2
ATOM      2  N   UNL     1       4.143   5.527  17.657  0.00  0.00    +0.000 N 
ATOM      3  C   UNL     1       3.692   4.251  18.003  0.00  0.00    +0.000 A 
ATOM      4  N   UNL     1       4.174   3.356  17.145  0.00  0.00    +0.000 NA
ATOM      5  C   UNL     1       5.004   4.033  16.298  0.00  0.00    +0.000 A 
ATOM      6  C   UNL     1       5.793   3.599  15.226  0.00  0.00    +0.000 A 
ATOM      7  C   UNL     1       6.507   4.569  14.516  0.00  0.00    +0.000 A 
ATOM      8  C   UNL     1       6.429   5.893  14.919  0.00  0.00    +0.000 A 
ATOM      9  N   UNL     1       5.724   6.342  15.977  0.00  0.00    +0.000 NA
ATOM     10  C   UNL     1       5.020   5.381  16.607  0.00  0.00    +0.000 A 
BRANCH   3  11
ATOM     11  C   UNL     1       2.822   3.862  19.134  0.00  0.00    +0.000 A 
ATOM     12  C   UNL     1       1.439   3.767  18.918  0.00  0.00    +0.000 A 
ATOM     13  C   UNL     1       0.622   3.301  19.937  0.00  0.00    +0.000 A 
ATOM     14  N   UNL     1       1.075   2.938  21.153  0.00  0.00    +0.000 NA
ATOM     15  C   UNL     1       2.405   3.026  21.347  0.00  0.00    +0.000 A 
ATOM     16  C   UNL     1       3.301   3.470  20.384  0.00  0.00    +0.000 A 
ENDBRANCH   3  11
ENDBRANCH   1   2
BRANCH   1  17
ATOM     17  C   UNL     1       2.412   7.425  17.890  0.00  0.00    +0.000 C 
BRANCH  17  18
ATOM     18  C   UNL     1       2.396   8.948  17.979  0.00  0.00    +0.000 C 
BRANCH  18  21
ATOM     19  O   UNL     1       0.295   9.641  19.598  0.00  0.00    +0.000 OA
ATOM     20  C   UNL     1       0.194   9.873  18.403  0.00  0.00    +0.000 C 
ATOM     21  N   UNL     1       1.157   9.507  17.490  0.00  0.00    +0.000 N 
ATOM     22  N   UNL     1      -0.861  10.496  17.777  0.00  0.00    +0.000 N 
ATOM     23  H   UNL     1       1.225  10.104  16.677  0.00  0.00    +0.000 HD
ATOM     24  H   UNL     1      -1.003  10.239  16.809  0.00  0.00    +0.000 HD
BRANCH  22  25
ATOM     25  C   UNL     1      -1.896  11.180  18.438  0.00  0.00    +0.000 A 
ATOM     26  C   UNL     1      -1.664  12.088  19.473  0.00  0.00    +0.000 A 
ATOM     27  C   UNL     1      -2.723  12.751  20.092  0.00  0.00    +0.000 A 
ATOM     28  C   UNL     1      -4.029  12.505  19.677  0.00  0.00    +0.000 A 
ATOM     29  C   UNL     1      -4.265  11.605  18.640  0.00  0.00    +0.000 A 
ATOM     30 BR   UNL     1      -6.041  11.251  18.096  0.00  0.00    +0.000 Br
ATOM     31  C   UNL     1      -3.207  10.952  18.005  0.00  0.00    +0.000 A 
ENDBRANCH  22  25
ENDBRANCH  18  21
ENDBRANCH  17  18
ENDBRANCH   1  17
TORSDOF 6
ENDMDL
MODEL 5
REMARK VINA RESULT:      -8.1      4.940      7.809
REMARK  Name = 
REMARK  6 active torsions:
REMARK  status: ('A' for Active; 'I' for Inactive)
REMARK    1  A    between atoms: N_3  and  C_4
REMARK    2  A    between atoms: C_4  and  C_5
REMARK    3  A    between atoms: C_5  and  C_6
REMARK    4  A    between atoms: C_6  and  N_7
REMARK    5  A    between atoms: C_8  and  C_9
REMARK    6  A    between atoms: N_22  and  C_23
REMARK                            x       y       z     vdW  Elec       q    Type
REMARK                         _______ _______ _______ _____ _____    ______ ____
ROOT
ATOM      1  C   UNL     1       2.511   5.979  17.896  0.00  0.00    +0.000 C 
ENDROOT
BRANCH   1   2
ATOM      2  N   UNL     1       3.157   4.897  18.616  0.00  0.00    +0.000 N 
ATOM      3  C   UNL     1       4.482   4.478  18.476  0.00  0.00    +0.000 A 
ATOM      4  N   UNL     1       4.755   3.543  19.381  0.00  0.00    +0.000 NA
ATOM      5  C   UNL     1       3.590   3.291  20.048  0.00  0.00    +0.000 A 
ATOM      6  C   UNL     1       3.285   2.392  21.077  0.00  0.00    +0.000 A 
ATOM      7  C   UNL     1       1.983   2.411  21.586  0.00  0.00    +0.000 A 
ATOM      8  C   UNL     1       1.058   3.285  21.035  0.00  0.00    +0.000 A 
ATOM      9  N   UNL     1       1.299   4.127  20.010  0.00  0.00    +0.000 NA
ATOM     10  C   UNL     1       2.576   4.104  19.579  0.00  0.00    +0.000 A 
BRANCH   3  11
ATOM     11  C   UNL     1       5.490   4.941  17.498  0.00  0.00    +0.000 A 
ATOM     12  C   UNL     1       6.241   6.087  17.797  0.00  0.00    +0.000 A 
ATOM     13  C   UNL     1       7.263   6.473  16.941  0.00  0.00    +0.000 A 
ATOM     14  N   UNL     1       7.581   5.813  15.811  0.00  0.00    +0.000 NA
ATOM     15  C   UNL     1       6.859   4.709  15.537  0.00  0.00    +0.000 A 
ATOM     16  C   UNL     1       5.826   4.241  16.339  0.00  0.00    +0.000 A 
ENDBRANCH   3  11
ENDBRANCH   1   2
BRANCH   1  17
ATOM     17  C   UNL     1       2.179   7.283  18.631  0.00  0.00    +0.000 C 
BRANCH  17  18
ATOM     18  C   UNL     1       2.502   8.552  17.845  0.00  0.00    +0.000 C 
BRANCH  18  21
ATOM     19  O   UNL     1       1.406  10.206  19.737  0.00  0.00    +0.000 OA
ATOM     20  C   UNL     1       0.903  10.202  18.624  0.00  0.00    +0.000 C 
ATOM     21  N   UNL     1       1.328   9.362  17.619  0.00  0.00    +0.000 N 
ATOM     22  N   UNL     1      -0.145  10.985  18.197  0.00  0.00    +0.000 N 
ATOM     23  H   UNL     1       1.206   9.721  16.682  0.00  0.00    +0.000 HD
ATOM     24  H   UNL     1      -0.705  10.590  17.452  0.00  0.00    +0.000 HD
BRANCH  22  25
ATOM     25  C   UNL     1      -0.661  12.087  18.898  0.00  0.00    +0.000 A 
ATOM     26  C   UNL     1      -1.640  11.965  19.887  0.00  0.00    +0.000 A 
ATOM     27  C   UNL     1      -2.114  13.088  20.564  0.00  0.00    +0.000 A 
ATOM     28  C   UNL     1      -1.610  14.348  20.251  0.00  0.00    +0.000 A 
ATOM     29  C   UNL     1      -0.629  14.474  19.270  0.00  0.00    +0.000 A 
ATOM     30 BR   UNL     1       0.034  16.187  18.826  0.00  0.00    +0.000 Br
ATOM     31  C   UNL     1      -0.139  13.351  18.601  0.00  0.00    +0.000 A 
ENDBRANCH  22  25
ENDBRANCH  18  21
ENDBRANCH  17  18
ENDBRANCH   1  17
TORSDOF 6
ENDMDL
MODEL 6
REMARK VINA RESULT:      -8.0      2.530      4.267
REMARK  Name = 
REMARK  6 active torsions:
REMARK  status: ('A' for Active; 'I' for Inactive)
REMARK    1  A    between atoms: N_3  and  C_4
REMARK    2  A    between atoms: C_4  and  C_5
REMARK    3  A    between atoms: C_5  and  C_6
REMARK    4  A    between atoms: C_6  and  N_7
REMARK    5  A    between atoms: C_8  and  C_9
REMARK    6  A    between atoms: N_22  and  C_23
REMARK                            x       y       z     vdW  Elec       q    Type
REMARK                         _______ _______ _______ _____ _____    ______ ____
ROOT
ATOM      1  C   UNL     1       4.736   6.646  17.644  0.00  0.00    +0.000 C 
ENDROOT
BRANCH   1   2
ATOM      2  N   UNL     1       3.622   5.833  18.098  0.00  0.00    +0.000 N 
ATOM      3  C   UNL     1       2.409   6.296  18.611  0.00  0.00    +0.000 A 
ATOM      4  N   UNL     1       1.584   5.271  18.809  0.00  0.00    +0.000 NA
ATOM      5  C   UNL     1       2.288   4.139  18.510  0.00  0.00    +0.000 A 
ATOM      6  C   UNL     1       1.935   2.786  18.561  0.00  0.00    +0.000 A 
ATOM      7  C   UNL     1       2.886   1.854  18.135  0.00  0.00    +0.000 A 
ATOM      8  C   UNL     1       4.130   2.304  17.719  0.00  0.00    +0.000 A 
ATOM      9  N   UNL     1       4.525   3.592  17.707  0.00  0.00    +0.000 NA
ATOM     10  C   UNL     1       3.564   4.458  18.086  0.00  0.00    +0.000 A 
BRANCH   3  11
ATOM     11  C   UNL     1       2.018   7.688  18.925  0.00  0.00    +0.000 A 
ATOM     12  C   UNL     1       1.941   8.617  17.878  0.00  0.00    +0.000 A 
ATOM     13  C   UNL     1       1.474   9.898  18.138  0.00  0.00    +0.000 A 
ATOM     14  N   UNL     1       1.094  10.322  19.358  0.00  0.00    +0.000 NA
ATOM     15  C   UNL     1       1.165   9.419  20.355  0.00  0.00    +0.000 A 
ATOM     16  C   UNL     1       1.609   8.113  20.189  0.00  0.00    +0.000 A 
ENDBRANCH   3  11
ENDBRANCH   1   2
BRANCH   1  17
ATOM     17  C   UNL     1       5.767   6.044  16.681  0.00  0.00    +0.000 C 
BRANCH  17  18
ATOM     18  C   UNL     1       7.209   6.462  16.957  0.00  0.00    +0.000 C 
BRANCH  18  21
ATOM     19  O   UNL     1       8.670   7.737  18.894  0.00  0.00    +0.000 OA
ATOM     20  C   UNL     1       8.161   8.423  18.020  0.00  0.00    +0.000 C 
ATOM     21  N   UNL     1       7.352   7.896  17.039  0.00  0.00    +0.000 N 
ATOM     22  N   UNL     1       8.280   9.786  17.877  0.00  0.00    +0.000 N 
ATOM     23  H   UNL     1       7.365   8.396  16.160  0.00  0.00    +0.000 HD
ATOM     24  H   UNL     1       7.505  10.242  17.414  0.00  0.00    +0.000 HD
BRANCH  22  25
ATOM     25  C   UNL     1       9.199  10.589  18.574  0.00  0.00    +0.000 A 
ATOM     26  C   UNL     1       9.258  10.636  19.968  0.00  0.00    +0.000 A 
ATOM     27  C   UNL     1      10.195  11.441  20.616  0.00  0.00    +0.000 A 
ATOM     28  C   UNL     1      11.080  12.211  19.866  0.00  0.00    +0.000 A 
ATOM     29  C   UNL     1      11.029  12.163  18.475  0.00  0.00    +0.000 A 
ATOM     30 BR   UNL     1      12.212  13.230  17.458  0.00  0.00    +0.000 Br
ATOM     31  C   UNL     1      10.104  11.345  17.822  0.00  0.00    +0.000 A 
ENDBRANCH  22  25
ENDBRANCH  18  21
ENDBRANCH  17  18
ENDBRANCH   1  17
TORSDOF 6
ENDMDL
MODEL 7
REMARK VINA RESULT:      -8.0      4.694      7.338
REMARK  Name = 
REMARK  6 active torsions:
REMARK  status: ('A' for Active; 'I' for Inactive)
REMARK    1  A    between atoms: N_3  and  C_4
REMARK    2  A    between atoms: C_4  and  C_5
REMARK    3  A    between atoms: C_5  and  C_6
REMARK    4  A    between atoms: C_6  and  N_7
REMARK    5  A    between atoms: C_8  and  C_9
REMARK    6  A    between atoms: N_22  and  C_23
REMARK                            x       y       z     vdW  Elec       q    Type
REMARK                         _______ _______ _______ _____ _____    ______ ____
ROOT
ATOM      1  C   UNL     1       2.627   5.840  17.798  0.00  0.00    +0.000 C 
ENDROOT
BRANCH   1   2
ATOM      2  N   UNL     1       3.232   4.790  18.596  0.00  0.00    +0.000 N 
ATOM      3  C   UNL     1       4.565   4.374  18.552  0.00  0.00    +0.000 A 
ATOM      4  N   UNL     1       4.787   3.476  19.507  0.00  0.00    +0.000 NA
ATOM      5  C   UNL     1       3.585   3.243  20.113  0.00  0.00    +0.000 A 
ATOM      6  C   UNL     1       3.222   2.382  21.155  0.00  0.00    +0.000 A 
ATOM      7  C   UNL     1       1.892   2.413  21.585  0.00  0.00    +0.000 A 
ATOM      8  C   UNL     1       0.998   3.260  20.946  0.00  0.00    +0.000 A 
ATOM      9  N   UNL     1       1.297   4.063  19.906  0.00  0.00    +0.000 NA
ATOM     10  C   UNL     1       2.598   4.031  19.552  0.00  0.00    +0.000 A 
BRANCH   3  11
ATOM     11  C   UNL     1       5.628   4.805  17.618  0.00  0.00    +0.000 A 
ATOM     12  C   UNL     1       5.765   4.130  16.397  0.00  0.00    +0.000 A 
ATOM     13  C   UNL     1       6.685   4.588  15.465  0.00  0.00    +0.000 A 
ATOM     14  N   UNL     1       7.483   5.654  15.665  0.00  0.00    +0.000 NA
ATOM     15  C   UNL     1       7.339   6.300  16.838  0.00  0.00    +0.000 A 
ATOM     16  C   UNL     1       6.438   5.921  17.825  0.00  0.00    +0.000 A 
ENDBRANCH   3  11
ENDBRANCH   1   2
BRANCH   1  17
ATOM     17  C   UNL     1       3.025   7.301  18.042  0.00  0.00    +0.000 C 
BRANCH  17  18
ATOM     18  C   UNL     1       2.077   8.071  18.957  0.00  0.00    +0.000 C 
BRANCH  18  21
ATOM     19  O   UNL     1       1.020  10.229  20.278  0.00  0.00    +0.000 OA
ATOM     20  C   UNL     1       1.041  10.262  19.057  0.00  0.00    +0.000 C 
ATOM     21  N   UNL     1       1.485   9.207  18.292  0.00  0.00    +0.000 N 
ATOM     22  N   UNL     1       0.623  11.303  18.260  0.00  0.00    +0.000 N 
ATOM     23  H   UNL     1       1.889   9.465  17.401  0.00  0.00    +0.000 HD
ATOM     24  H   UNL     1       0.303  11.040  17.337  0.00  0.00    +0.000 HD
BRANCH  22  25
ATOM     25  C   UNL     1       0.321  12.595  18.721  0.00  0.00    +0.000 A 
ATOM     26  C   UNL     1      -0.862  12.901  19.398  0.00  0.00    +0.000 A 
ATOM     27  C   UNL     1      -1.114  14.197  19.846  0.00  0.00    +0.000 A 
ATOM     28  C   UNL     1      -0.178  15.202  19.614  0.00  0.00    +0.000 A 
ATOM     29  C   UNL     1       1.007  14.900  18.945  0.00  0.00    +0.000 A 
ATOM     30 BR   UNL     1       2.264  16.271  18.608  0.00  0.00    +0.000 Br
ATOM     31  C   UNL     1       1.271  13.601  18.510  0.00  0.00    +0.000 A 
ENDBRANCH  22  25
ENDBRANCH  18  21
ENDBRANCH  17  18
ENDBRANCH   1  17
TORSDOF 6
ENDMDL
MODEL 8
REMARK VINA RESULT:      -8.0      5.225      7.930
REMARK  Name = 
REMARK  6 active torsions:
REMARK  status: ('A' for Active; 'I' for Inactive)
REMARK    1  A    between atoms: N_3  and  C_4
REMARK    2  A    between atoms: C_4  and  C_5
REMARK    3  A    between atoms: C_5  and  C_6
REMARK    4  A    between atoms: C_6  and  N_7
REMARK    5  A    between atoms: C_8  and  C_9
REMARK    6  A    between atoms: N_22  and  C_23
REMARK                            x       y       z     vdW  Elec       q    Type
REMARK                         _______ _______ _______ _____ _____    ______ ____
ROOT
ATOM      1  C   UNL     1       2.558   5.941  17.846  0.00  0.00    +0.000 C 
ENDROOT
BRANCH   1   2
ATOM      2  N   UNL     1       3.221   4.864  18.558  0.00  0.00    +0.000 N 
ATOM      3  C   UNL     1       4.541   4.440  18.384  0.00  0.00    +0.000 A 
ATOM      4  N   UNL     1       4.837   3.512  19.289  0.00  0.00    +0.000 NA
ATOM      5  C   UNL     1       3.692   3.270  19.992  0.00  0.00    +0.000 A 
ATOM      6  C   UNL     1       3.413   2.382  21.038  0.00  0.00    +0.000 A 
ATOM      7  C   UNL     1       2.127   2.410  21.584  0.00  0.00    +0.000 A 
ATOM      8  C   UNL     1       1.188   3.281  21.051  0.00  0.00    +0.000 A 
ATOM      9  N   UNL     1       1.402   4.113  20.012  0.00  0.00    +0.000 NA
ATOM     10  C   UNL     1       2.666   4.082  19.544  0.00  0.00    +0.000 A 
BRANCH   3  11
ATOM     11  C   UNL     1       5.521   4.890  17.372  0.00  0.00    +0.000 A 
ATOM     12  C   UNL     1       6.367   5.964  17.687  0.00  0.00    +0.000 A 
ATOM     13  C   UNL     1       7.363   6.329  16.793  0.00  0.00    +0.000 A 
ATOM     14  N   UNL     1       7.569   5.717  15.611  0.00  0.00    +0.000 NA
ATOM     15  C   UNL     1       6.756   4.682  15.322  0.00  0.00    +0.000 A 
ATOM     16  C   UNL     1       5.740   4.239  16.158  0.00  0.00    +0.000 A 
ENDBRANCH   3  11
ENDBRANCH   1   2
BRANCH   1  17
ATOM     17  C   UNL     1       2.209   7.236  18.589  0.00  0.00    +0.000 C 
BRANCH  17  18
ATOM     18  C   UNL     1       2.568   8.514  17.836  0.00  0.00    +0.000 C 
BRANCH  18  21
ATOM     19  O   UNL     1       1.520  10.252  19.679  0.00  0.00    +0.000 OA
ATOM     20  C   UNL     1       1.010  10.222  18.569  0.00  0.00    +0.000 C 
ATOM     21  N   UNL     1       1.410   9.342  17.590  0.00  0.00    +0.000 N 
ATOM     22  N   UNL     1      -0.025  11.013  18.123  0.00  0.00    +0.000 N 
ATOM     23  H   UNL     1       1.289   9.672  16.642  0.00  0.00    +0.000 HD
ATOM     24  H   UNL     1      -0.598  10.606  17.396  0.00  0.00    +0.000 HD
BRANCH  22  25
ATOM     25  C   UNL     1      -0.513  12.148  18.791  0.00  0.00    +0.000 A 
ATOM     26  C   UNL     1       0.087  13.405  18.687  0.00  0.00    +0.000 A 
ATOM     27  C   UNL     1      -0.440  14.506  19.361  0.00  0.00    +0.000 A 
ATOM     28  C   UNL     1      -1.576  14.353  20.151  0.00  0.00    +0.000 A 
ATOM     29  C   UNL     1      -2.182  13.103  20.253  0.00  0.00    +0.000 A 
ATOM     30 BR   UNL     1      -3.708  12.891  21.348  0.00  0.00    +0.000 Br
ATOM     31  C   UNL     1      -1.668  12.001  19.566  0.00  0.00    +0.000 A 
ENDBRANCH  22  25
ENDBRANCH  18  21
ENDBRANCH  17  18
ENDBRANCH   1  17
TORSDOF 6
ENDMDL
MODEL 9
REMARK VINA RESULT:      -7.9      2.155      2.390
REMARK  Name = 
REMARK  6 active torsions:
REMARK  status: ('A' for Active; 'I' for Inactive)
REMARK    1  A    between atoms: N_3  and  C_4
REMARK    2  A    between atoms: C_4  and  C_5
REMARK    3  A    between atoms: C_5  and  C_6
REMARK    4  A    between atoms: C_6  and  N_7
REMARK    5  A    between atoms: C_8  and  C_9
REMARK    6  A    between atoms: N_22  and  C_23
REMARK                            x       y       z     vdW  Elec       q    Type
REMARK                         _______ _______ _______ _____ _____    ______ ____
ROOT
ATOM      1  C   UNL     1       6.279   6.334  18.176  0.00  0.00    +0.000 C 
ENDROOT
BRANCH   1   2
ATOM      2  N   UNL     1       5.734   5.325  17.287  0.00  0.00    +0.000 N 
ATOM      3  C   UNL     1       4.643   4.492  17.543  0.00  0.00    +0.000 A 
ATOM      4  N   UNL     1       4.356   3.780  16.457  0.00  0.00    +0.000 NA
ATOM      5  C   UNL     1       5.310   4.083  15.527  0.00  0.00    +0.000 A 
ATOM      6  C   UNL     1       5.518   3.617  14.223  0.00  0.00    +0.000 A 
ATOM      7  C   UNL     1       6.578   4.172  13.501  0.00  0.00    +0.000 A 
ATOM      8  C   UNL     1       7.384   5.121  14.110  0.00  0.00    +0.000 A 
ATOM      9  N   UNL     1       7.249   5.556  15.379  0.00  0.00    +0.000 NA
ATOM     10  C   UNL     1       6.191   5.025  16.024  0.00  0.00    +0.000 A 
BRANCH   3  11
ATOM     11  C   UNL     1       3.873   4.351  18.798  0.00  0.00    +0.000 A 
ATOM     12  C   UNL     1       3.004   5.386  19.174  0.00  0.00    +0.000 A 
ATOM     13  C   UNL     1       2.196   5.224  20.290  0.00  0.00    +0.000 A 
ATOM     14  N   UNL     1       2.199   4.119  21.062  0.00  0.00    +0.000 NA
ATOM     15  C   UNL     1       3.031   3.129  20.687  0.00  0.00    +0.000 A 
ATOM     16  C   UNL     1       3.869   3.197  19.582  0.00  0.00    +0.000 A 
ENDBRANCH   3  11
ENDBRANCH   1   2
BRANCH   1  17
ATOM     17  C   UNL     1       7.770   6.683  18.099  0.00  0.00    +0.000 C 
BRANCH  17  18
ATOM     18  C   UNL     1       8.064   8.170  17.921  0.00  0.00    +0.000 C 
BRANCH  18  21
ATOM     19  O   UNL     1       8.881  10.783  18.078  0.00  0.00    +0.000 OA
ATOM     20  C   UNL     1       9.084  10.063  19.044  0.00  0.00    +0.000 C 
ATOM     21  N   UNL     1       8.777   8.721  19.049  0.00  0.00    +0.000 N 
ATOM     22  N   UNL     1       9.648  10.441  20.241  0.00  0.00    +0.000 N 
ATOM     23  H   UNL     1       8.544   8.340  19.956  0.00  0.00    +0.000 HD
ATOM     24  H   UNL     1      10.129   9.706  20.744  0.00  0.00    +0.000 HD
BRANCH  22  25
ATOM     25  C   UNL     1       9.873  11.770  20.639  0.00  0.00    +0.000 A 
ATOM     26  C   UNL     1      10.783  12.610  19.994  0.00  0.00    +0.000 A 
ATOM     27  C   UNL     1      10.965  13.926  20.419  0.00  0.00    +0.000 A 
ATOM     28  C   UNL     1      10.232  14.410  21.500  0.00  0.00    +0.000 A 
ATOM     29  C   UNL     1       9.317  13.578  22.141  0.00  0.00    +0.000 A 
ATOM     30 BR   UNL     1       8.344  14.227  23.626  0.00  0.00    +0.000 Br
ATOM     31  C   UNL     1       9.120  12.265  21.709  0.00  0.00    +0.000 A 
ENDBRANCH  22  25
ENDBRANCH  18  21
ENDBRANCH  17  18
ENDBRANCH   1  17
TORSDOF 6
ENDMDL
