MODEL 1
REMARK VINA RESULT:      -8.2      0.000      0.000
REMARK  Name = 
REMARK  4 active torsions:
REMARK  status: ('A' for Active; 'I' for Inactive)
REMARK    1  A    between atoms: C_1  and  O_2
REMARK    2  A    between atoms: O_2  and  C_3
REMARK    3  A    between atoms: C_6  and  C_7
REMARK    4  A    between atoms: C_11  and  C_12
REMARK                            x       y       z     vdW  Elec       q    Type
REMARK                         _______ _______ _______ _____ _____    ______ ____
ROOT
ATOM      1  C   UNL     1       2.260   7.623  19.296  0.00  0.00    +0.000 A 
ATOM      2  C   UNL     1       2.988   7.959  18.034  0.00  0.00    +0.000 A 
ATOM      3  N   UNL     1       3.797   7.180  17.380  0.00  0.00    +0.000 NA
ATOM      4  C   UNL     1       3.993   5.929  17.910  0.00  0.00    +0.000 A 
ATOM      5  C   UNL     1       4.755   4.849  17.498  0.00  0.00    +0.000 A 
ATOM      6  C   UNL     1       4.525   3.866  18.484  0.00  0.00    +0.000 A 
ATOM      7  N   UNL     1       3.694   4.265  19.446  0.00  0.00    +0.000 NA
ATOM      8  N   UNL     1       3.360   5.530  19.096  0.00  0.00    +0.000 N 
ATOM      9  C   UNL     1       2.500   6.390  19.770  0.00  0.00    +0.000 A 
ENDROOT
BRANCH   1  13
ATOM     10  C   UNL     1      -0.380  10.376  21.213  0.00  0.00    +0.000 A 
ATOM     11  C   UNL     1      -0.042  10.541  19.869  0.00  0.00    +0.000 A 
ATOM     12  C   UNL     1       0.816   9.637  19.235  0.00  0.00    +0.000 A 
ATOM     13  C   UNL     1       1.358   8.567  19.950  0.00  0.00    +0.000 A 
ATOM     14  C   UNL     1       1.042   8.419  21.306  0.00  0.00    +0.000 A 
ATOM     15  C   UNL     1       0.176   9.320  21.935  0.00  0.00    +0.000 A 
BRANCH  10  17
ATOM     16  C   UNL     1      -1.464  11.250  23.123  0.00  0.00    +0.000 C 
ATOM     17  O   UNL     1      -1.223  11.325  21.722  0.00  0.00    +0.000 OA
ENDBRANCH  10  17
ENDBRANCH   1  13
BRANCH   5  18
ATOM     18  C   UNL     1       5.577   4.792  16.301  0.00  0.00    +0.000 A 
ATOM     19  C   UNL     1       5.147   4.101  15.165  0.00  0.00    +0.000 A 
ATOM     20  C   UNL     1       5.935   4.095  14.012  0.00  0.00    +0.000 A 
ATOM     21  C   UNL     1       7.135   4.785  14.032  0.00  0.00    +0.000 A 
ATOM     22  N   UNL     1       7.591   5.462  15.106  0.00  0.00    +0.000 NA
ATOM     23  C   UNL     1       6.805   5.444  16.214  0.00  0.00    +0.000 A 
ENDBRANCH   5  18
TORSDOF 3
ENDMDL
MODEL 2
REMARK VINA RESULT:      -8.1      0.762      1.260
REMARK  Name = 
REMARK  4 active torsions:
REMARK  status: ('A' for Active; 'I' for Inactive)
REMARK    1  A    between atoms: C_1  and  O_2
REMARK    2  A    between atoms: O_2  and  C_3
REMARK    3  A    between atoms: C_6  and  C_7
REMARK    4  A    between atoms: C_11  and  C_12
REMARK                            x       y       z     vdW  Elec       q    Type
REMARK                         _______ _______ _______ _____ _____    ______ ____
ROOT
ATOM      1  C   UNL     1       2.498   7.265  18.842  0.00  0.00    +0.000 A 
ATOM      2  C   UNL     1       3.412   7.709  17.744  0.00  0.00    +0.000 A 
ATOM      3  N   UNL     1       4.165   6.944  17.011  0.00  0.00    +0.000 NA
ATOM      4  C   UNL     1       4.106   5.599  17.281  0.00  0.00    +0.000 A 
ATOM      5  C   UNL     1       4.739   4.505  16.717  0.00  0.00    +0.000 A 
ATOM      6  C   UNL     1       4.248   3.403  17.450  0.00  0.00    +0.000 A 
ATOM      7  N   UNL     1       3.379   3.746  18.402  0.00  0.00    +0.000 NA
ATOM      8  N   UNL     1       3.285   5.093  18.299  0.00  0.00    +0.000 N 
ATOM      9  C   UNL     1       2.491   5.941  19.064  0.00  0.00    +0.000 A 
ENDROOT
BRANCH   1  13
ATOM     10  C   UNL     1       0.110  10.022  21.059  0.00  0.00    +0.000 A 
ATOM     11  C   UNL     1       0.529   8.824  21.640  0.00  0.00    +0.000 A 
ATOM     12  C   UNL     1       1.317   7.922  20.921  0.00  0.00    +0.000 A 
ATOM     13  C   UNL     1       1.679   8.205  19.601  0.00  0.00    +0.000 A 
ATOM     14  C   UNL     1       1.235   9.394  19.009  0.00  0.00    +0.000 A 
ATOM     15  C   UNL     1       0.453  10.299  19.736  0.00  0.00    +0.000 A 
BRANCH  10  17
ATOM     16  C   UNL     1      -0.902  10.328  23.173  0.00  0.00    +0.000 C 
ATOM     17  O   UNL     1      -0.659  10.820  21.860  0.00  0.00    +0.000 OA
ENDBRANCH  10  17
ENDBRANCH   1  13
BRANCH   5  18
ATOM     18  C   UNL     1       5.678   4.539  15.609  0.00  0.00    +0.000 A 
ATOM     19  C   UNL     1       5.398   3.882  14.407  0.00  0.00    +0.000 A 
ATOM     20  C   UNL     1       6.297   3.964  13.341  0.00  0.00    +0.000 A 
ATOM     21  C   UNL     1       7.452   4.707  13.511  0.00  0.00    +0.000 A 
ATOM     22  N   UNL     1       7.764   5.355  14.653  0.00  0.00    +0.000 NA
ATOM     23  C   UNL     1       6.873   5.251  15.673  0.00  0.00    +0.000 A 
ENDBRANCH   5  18
TORSDOF 3
ENDMDL
MODEL 3
REMARK VINA RESULT:      -7.7      1.091      1.518
REMARK  Name = 
REMARK  4 active torsions:
REMARK  status: ('A' for Active; 'I' for Inactive)
REMARK    1  A    between atoms: C_1  and  O_2
REMARK    2  A    between atoms: O_2  and  C_3
REMARK    3  A    between atoms: C_6  and  C_7
REMARK    4  A    between atoms: C_11  and  C_12
REMARK                            x       y       z     vdW  Elec       q    Type
REMARK                         _______ _______ _______ _____ _____    ______ ____
ROOT
ATOM      1  C   UNL     1       1.863   8.324  19.110  0.00  0.00    +0.000 A 
ATOM      2  C   UNL     1       2.628   8.449  17.830  0.00  0.00    +0.000 A 
ATOM      3  N   UNL     1       3.498   7.603  17.367  0.00  0.00    +0.000 NA
ATOM      4  C   UNL     1       3.728   6.489  18.135  0.00  0.00    +0.000 A 
ATOM      5  C   UNL     1       4.556   5.392  17.967  0.00  0.00    +0.000 A 
ATOM      6  C   UNL     1       4.328   4.605  19.116  0.00  0.00    +0.000 A 
ATOM      7  N   UNL     1       3.440   5.138  19.955  0.00  0.00    +0.000 NA
ATOM      8  N   UNL     1       3.065   6.293  19.355  0.00  0.00    +0.000 N 
ATOM      9  C   UNL     1       2.139   7.220  19.821  0.00  0.00    +0.000 A 
ENDROOT
BRANCH   1  13
ATOM     10  C   UNL     1      -0.970  11.264  20.355  0.00  0.00    +0.000 A 
ATOM     11  C   UNL     1      -0.250  10.533  21.301  0.00  0.00    +0.000 A 
ATOM     12  C   UNL     1       0.684   9.574  20.897  0.00  0.00    +0.000 A 
ATOM     13  C   UNL     1       0.893   9.328  19.538  0.00  0.00    +0.000 A 
ATOM     14  C   UNL     1       0.150  10.042  18.590  0.00  0.00    +0.000 A 
ATOM     15  C   UNL     1      -0.779  11.007  18.998  0.00  0.00    +0.000 A 
BRANCH  10  17
ATOM     16  C   UNL     1      -1.599  13.534  20.559  0.00  0.00    +0.000 C 
ATOM     17  O   UNL     1      -1.857  12.169  20.871  0.00  0.00    +0.000 OA
ENDBRANCH  10  17
ENDBRANCH   1  13
BRANCH   5  18
ATOM     18  C   UNL     1       5.429   5.149  16.831  0.00  0.00    +0.000 A 
ATOM     19  C   UNL     1       5.074   4.240  15.831  0.00  0.00    +0.000 A 
ATOM     20  C   UNL     1       5.910   4.053  14.728  0.00  0.00    +0.000 A 
ATOM     21  C   UNL     1       7.081   4.788  14.659  0.00  0.00    +0.000 A 
ATOM     22  N   UNL     1       7.465   5.674  15.602  0.00  0.00    +0.000 NA
ATOM     23  C   UNL     1       6.634   5.828  16.665  0.00  0.00    +0.000 A 
ENDBRANCH   5  18
TORSDOF 3
ENDMDL
MODEL 4
REMARK VINA RESULT:      -7.6      1.174      1.291
REMARK  Name = 
REMARK  4 active torsions:
REMARK  status: ('A' for Active; 'I' for Inactive)
REMARK    1  A    between atoms: C_1  and  O_2
REMARK    2  A    between atoms: O_2  and  C_3
REMARK    3  A    between atoms: C_6  and  C_7
REMARK    4  A    between atoms: C_11  and  C_12
REMARK                            x       y       z     vdW  Elec       q    Type
REMARK                         _______ _______ _______ _____ _____    ______ ____
ROOT
ATOM      1  C   UNL     1       1.808   8.442  19.068  0.00  0.00    +0.000 A 
ATOM      2  C   UNL     1       2.593   8.538  17.798  0.00  0.00    +0.000 A 
ATOM      3  N   UNL     1       3.462   7.675  17.362  0.00  0.00    +0.000 NA
ATOM      4  C   UNL     1       3.670   6.573  18.153  0.00  0.00    +0.000 A 
ATOM      5  C   UNL     1       4.490   5.466  18.016  0.00  0.00    +0.000 A 
ATOM      6  C   UNL     1       4.238   4.702  19.175  0.00  0.00    +0.000 A 
ATOM      7  N   UNL     1       3.343   5.257  19.991  0.00  0.00    +0.000 NA
ATOM      8  N   UNL     1       2.987   6.405  19.366  0.00  0.00    +0.000 N 
ATOM      9  C   UNL     1       2.063   7.348  19.802  0.00  0.00    +0.000 A 
ENDROOT
BRANCH   1  13
ATOM     10  C   UNL     1      -1.022  11.417  20.234  0.00  0.00    +0.000 A 
ATOM     11  C   UNL     1      -0.837  11.109  18.886  0.00  0.00    +0.000 A 
ATOM     12  C   UNL     1       0.083  10.130  18.500  0.00  0.00    +0.000 A 
ATOM     13  C   UNL     1       0.841   9.461  19.464  0.00  0.00    +0.000 A 
ATOM     14  C   UNL     1       0.675   9.791  20.815  0.00  0.00    +0.000 A 
ATOM     15  C   UNL     1      -0.253  10.766  21.199  0.00  0.00    +0.000 A 
BRANCH  10  17
ATOM     16  C   UNL     1      -1.421  13.702  20.692  0.00  0.00    +0.000 C 
ATOM     17  O   UNL     1      -1.945  12.394  20.487  0.00  0.00    +0.000 OA
ENDBRANCH  10  17
ENDBRANCH   1  13
BRANCH   5  18
ATOM     18  C   UNL     1       5.378   5.195  16.898  0.00  0.00    +0.000 A 
ATOM     19  C   UNL     1       5.045   4.246  15.927  0.00  0.00    +0.000 A 
ATOM     20  C   UNL     1       5.894   4.033  14.840  0.00  0.00    +0.000 A 
ATOM     21  C   UNL     1       7.055   4.781  14.755  0.00  0.00    +0.000 A 
ATOM     22  N   UNL     1       7.418   5.705  15.669  0.00  0.00    +0.000 NA
ATOM     23  C   UNL     1       6.574   5.885  16.718  0.00  0.00    +0.000 A 
ENDBRANCH   5  18
TORSDOF 3
ENDMDL
MODEL 5
REMARK VINA RESULT:      -7.6      3.547      8.418
REMARK  Name = 
REMARK  4 active torsions:
REMARK  status: ('A' for Active; 'I' for Inactive)
REMARK    1  A    between atoms: C_1  and  O_2
REMARK    2  A    between atoms: O_2  and  C_3
REMARK    3  A    between atoms: C_6  and  C_7
REMARK    4  A    between atoms: C_11  and  C_12
REMARK                            x       y       z     vdW  Elec       q    Type
REMARK                         _______ _______ _______ _____ _____    ______ ____
ROOT
ATOM      1  C   UNL     1       2.886   7.163  18.216  0.00  0.00    +0.000 A 
ATOM      2  C   UNL     1       2.428   8.457  17.623  0.00  0.00    +0.000 A 
ATOM      3  N   UNL     1       1.703   9.361  18.212  0.00  0.00    +0.000 NA
ATOM      4  C   UNL     1       1.328   9.089  19.504  0.00  0.00    +0.000 A 
ATOM      5  C   UNL     1       0.584   9.800  20.430  0.00  0.00    +0.000 A 
ATOM      6  C   UNL     1       0.561   8.968  21.569  0.00  0.00    +0.000 A 
ATOM      7  N   UNL     1       1.225   7.824  21.403  0.00  0.00    +0.000 NA
ATOM      8  N   UNL     1       1.702   7.896  20.137  0.00  0.00    +0.000 N 
ATOM      9  C   UNL     1       2.479   6.950  19.478  0.00  0.00    +0.000 A 
ENDROOT
BRANCH   1  13
ATOM     10  C   UNL     1       5.303   4.387  16.054  0.00  0.00    +0.000 A 
ATOM     11  C   UNL     1       5.499   5.761  15.903  0.00  0.00    +0.000 A 
ATOM     12  C   UNL     1       4.715   6.673  16.615  0.00  0.00    +0.000 A 
ATOM     13  C   UNL     1       3.712   6.215  17.474  0.00  0.00    +0.000 A 
ATOM     14  C   UNL     1       3.498   4.837  17.603  0.00  0.00    +0.000 A 
ATOM     15  C   UNL     1       4.291   3.927  16.895  0.00  0.00    +0.000 A 
BRANCH  10  17
ATOM     16  C   UNL     1       6.221   3.934  13.923  0.00  0.00    +0.000 C 
ATOM     17  O   UNL     1       6.128   3.596  15.303  0.00  0.00    +0.000 OA
ENDBRANCH  10  17
ENDBRANCH   1  13
BRANCH   5  18
ATOM     18  C   UNL     1      -0.005  11.112  20.224  0.00  0.00    +0.000 A 
ATOM     19  C   UNL     1      -1.245  11.255  19.595  0.00  0.00    +0.000 A 
ATOM     20  C   UNL     1      -1.810  12.524  19.446  0.00  0.00    +0.000 A 
ATOM     21  C   UNL     1      -1.114  13.615  19.936  0.00  0.00    +0.000 A 
ATOM     22  N   UNL     1       0.085  13.524  20.547  0.00  0.00    +0.000 NA
ATOM     23  C   UNL     1       0.612  12.279  20.671  0.00  0.00    +0.000 A 
ENDBRANCH   5  18
TORSDOF 3
ENDMDL
MODEL 6
REMARK VINA RESULT:      -7.5      3.589      8.512
REMARK  Name = 
REMARK  4 active torsions:
REMARK  status: ('A' for Active; 'I' for Inactive)
REMARK    1  A    between atoms: C_1  and  O_2
REMARK    2  A    between atoms: O_2  and  C_3
REMARK    3  A    between atoms: C_6  and  C_7
REMARK    4  A    between atoms: C_11  and  C_12
REMARK                            x       y       z     vdW  Elec       q    Type
REMARK                         _______ _______ _______ _____ _____    ______ ____
ROOT
ATOM      1  C   UNL     1       2.756   7.310  18.351  0.00  0.00    +0.000 A 
ATOM      2  C   UNL     1       2.231   8.572  17.742  0.00  0.00    +0.000 A 
ATOM      3  N   UNL     1       1.492   9.463  18.333  0.00  0.00    +0.000 NA
ATOM      4  C   UNL     1       1.169   9.209  19.643  0.00  0.00    +0.000 A 
ATOM      5  C   UNL     1       0.428   9.914  20.576  0.00  0.00    +0.000 A 
ATOM      6  C   UNL     1       0.473   9.111  21.735  0.00  0.00    +0.000 A 
ATOM      7  N   UNL     1       1.174   7.988  21.574  0.00  0.00    +0.000 NA
ATOM      8  N   UNL     1       1.608   8.046  20.292  0.00  0.00    +0.000 N 
ATOM      9  C   UNL     1       2.399   7.114  19.629  0.00  0.00    +0.000 A 
ENDROOT
BRANCH   1  13
ATOM     10  C   UNL     1       5.205   4.585  16.160  0.00  0.00    +0.000 A 
ATOM     11  C   UNL     1       4.153   4.113  16.947  0.00  0.00    +0.000 A 
ATOM     12  C   UNL     1       3.344   5.002  17.660  0.00  0.00    +0.000 A 
ATOM     13  C   UNL     1       3.594   6.376  17.604  0.00  0.00    +0.000 A 
ATOM     14  C   UNL     1       4.666   6.846  16.836  0.00  0.00    +0.000 A 
ATOM     15  C   UNL     1       5.469   5.954  16.117  0.00  0.00    +0.000 A 
BRANCH  10  17
ATOM     16  C   UNL     1       6.280   3.910  14.166  0.00  0.00    +0.000 C 
ATOM     17  O   UNL     1       5.927   3.620  15.514  0.00  0.00    +0.000 OA
ENDBRANCH  10  17
ENDBRANCH   1  13
BRANCH   5  18
ATOM     18  C   UNL     1      -0.216  11.199  20.359  0.00  0.00    +0.000 A 
ATOM     19  C   UNL     1      -1.379  11.301  19.590  0.00  0.00    +0.000 A 
ATOM     20  C   UNL     1      -2.003  12.540  19.430  0.00  0.00    +0.000 A 
ATOM     21  C   UNL     1      -1.444  13.643  20.051  0.00  0.00    +0.000 A 
ATOM     22  N   UNL     1      -0.322  13.592  20.799  0.00  0.00    +0.000 NA
ATOM     23  C   UNL     1       0.265  12.374  20.931  0.00  0.00    +0.000 A 
ENDBRANCH   5  18
TORSDOF 3
ENDMDL
MODEL 7
REMARK VINA RESULT:      -7.5      3.598      8.465
REMARK  Name = 
REMARK  4 active torsions:
REMARK  status: ('A' for Active; 'I' for Inactive)
REMARK    1  A    between atoms: C_1  and  O_2
REMARK    2  A    between atoms: O_2  and  C_3
REMARK    3  A    between atoms: C_6  and  C_7
REMARK    4  A    between atoms: C_11  and  C_12
REMARK                            x       y       z     vdW  Elec       q    Type
REMARK                         _______ _______ _______ _____ _____    ______ ____
ROOT
ATOM      1  C   UNL     1       2.793   7.244  18.316  0.00  0.00    +0.000 A 
ATOM      2  C   UNL     1       2.366   8.535  17.694  0.00  0.00    +0.000 A 
ATOM      3  N   UNL     1       1.669   9.473  18.263  0.00  0.00    +0.000 NA
ATOM      4  C   UNL     1       1.294   9.242  19.564  0.00  0.00    +0.000 A 
ATOM      5  C   UNL     1       0.573   9.995  20.475  0.00  0.00    +0.000 A 
ATOM      6  C   UNL     1       0.535   9.192  21.635  0.00  0.00    +0.000 A 
ATOM      7  N   UNL     1       1.168   8.028  21.494  0.00  0.00    +0.000 NA
ATOM      8  N   UNL     1       1.640   8.055  20.225  0.00  0.00    +0.000 N 
ATOM      9  C   UNL     1       2.388   7.073  19.585  0.00  0.00    +0.000 A 
ENDROOT
BRANCH   1  13
ATOM     10  C   UNL     1       5.124   4.353  16.212  0.00  0.00    +0.000 A 
ATOM     11  C   UNL     1       5.413   5.714  16.095  0.00  0.00    +0.000 A 
ATOM     12  C   UNL     1       4.657   6.663  16.788  0.00  0.00    +0.000 A 
ATOM     13  C   UNL     1       3.590   6.258  17.594  0.00  0.00    +0.000 A 
ATOM     14  C   UNL     1       3.284   4.894  17.688  0.00  0.00    +0.000 A 
ATOM     15  C   UNL     1       4.048   3.946  16.999  0.00  0.00    +0.000 A 
BRANCH  10  17
ATOM     16  C   UNL     1       6.321   4.007  14.203  0.00  0.00    +0.000 C 
ATOM     17  O   UNL     1       5.930   3.522  15.483  0.00  0.00    +0.000 OA
ENDBRANCH  10  17
ENDBRANCH   1  13
BRANCH   5  18
ATOM     18  C   UNL     1       0.018  11.317  20.240  0.00  0.00    +0.000 A 
ATOM     19  C   UNL     1       0.826  12.457  20.292  0.00  0.00    +0.000 A 
ATOM     20  C   UNL     1       0.279  13.713  20.022  0.00  0.00    +0.000 A 
ATOM     21  C   UNL     1      -1.066  13.790  19.705  0.00  0.00    +0.000 A 
ATOM     22  N   UNL     1      -1.883  12.718  19.647  0.00  0.00    +0.000 NA
ATOM     23  C   UNL     1      -1.323  11.511  19.920  0.00  0.00    +0.000 A 
ENDBRANCH   5  18
TORSDOF 3
ENDMDL
MODEL 8
REMARK VINA RESULT:      -7.4      1.393      2.195
REMARK  Name = 
REMARK  4 active torsions:
REMARK  status: ('A' for Active; 'I' for Inactive)
REMARK    1  A    between atoms: C_1  and  O_2
REMARK    2  A    between atoms: O_2  and  C_3
REMARK    3  A    between atoms: C_6  and  C_7
REMARK    4  A    between atoms: C_11  and  C_12
REMARK                            x       y       z     vdW  Elec       q    Type
REMARK                         _______ _______ _______ _____ _____    ______ ____
ROOT
ATOM      1  C   UNL     1       1.125   8.488  20.491  0.00  0.00    +0.000 A 
ATOM      2  C   UNL     1       1.818   8.786  19.199  0.00  0.00    +0.000 A 
ATOM      3  N   UNL     1       2.570   7.970  18.522  0.00  0.00    +0.000 NA
ATOM      4  C   UNL     1       2.737   6.716  19.056  0.00  0.00    +0.000 A 
ATOM      5  C   UNL     1       3.440   5.604  18.626  0.00  0.00    +0.000 A 
ATOM      6  C   UNL     1       3.208   4.638  19.628  0.00  0.00    +0.000 A 
ATOM      7  N   UNL     1       2.430   5.077  20.617  0.00  0.00    +0.000 NA
ATOM      8  N   UNL     1       2.134   6.352  20.268  0.00  0.00    +0.000 N 
ATOM      9  C   UNL     1       1.334   7.250  20.966  0.00  0.00    +0.000 A 
ENDROOT
BRANCH   1  13
ATOM     10  C   UNL     1      -1.321  11.373  22.470  0.00  0.00    +0.000 A 
ATOM     11  C   UNL     1      -0.844  10.258  23.162  0.00  0.00    +0.000 A 
ATOM     12  C   UNL     1      -0.036   9.315  22.520  0.00  0.00    +0.000 A 
ATOM     13  C   UNL     1       0.286   9.472  21.169  0.00  0.00    +0.000 A 
ATOM     14  C   UNL     1      -0.217  10.575  20.469  0.00  0.00    +0.000 A 
ATOM     15  C   UNL     1      -1.018  11.522  21.117  0.00  0.00    +0.000 A 
BRANCH  10  17
ATOM     16  C   UNL     1      -3.359  12.561  22.622  0.00  0.00    +0.000 C 
ATOM     17  O   UNL     1      -2.104  12.221  23.203  0.00  0.00    +0.000 OA
ENDBRANCH  10  17
ENDBRANCH   1  13
BRANCH   5  18
ATOM     18  C   UNL     1       4.214   5.505  17.400  0.00  0.00    +0.000 A 
ATOM     19  C   UNL     1       4.449   4.268  16.795  0.00  0.00    +0.000 A 
ATOM     20  C   UNL     1       5.160   4.202  15.595  0.00  0.00    +0.000 A 
ATOM     21  C   UNL     1       5.614   5.382  15.034  0.00  0.00    +0.000 A 
ATOM     22  N   UNL     1       5.414   6.598  15.584  0.00  0.00    +0.000 NA
ATOM     23  C   UNL     1       4.724   6.629  16.754  0.00  0.00    +0.000 A 
ENDBRANCH   5  18
TORSDOF 3
ENDMDL
MODEL 9
REMARK VINA RESULT:      -7.4      3.576      8.548
REMARK  Name = 
REMARK  4 active torsions:
REMARK  status: ('A' for Active; 'I' for Inactive)
REMARK    1  A    between atoms: C_1  and  O_2
REMARK    2  A    between atoms: O_2  and  C_3
REMARK    3  A    between atoms: C_6  and  C_7
REMARK    4  A    between atoms: C_11  and  C_12
REMARK                            x       y       z     vdW  Elec       q    Type
REMARK                         _______ _______ _______ _____ _____    ______ ____
ROOT
ATOM      1  C   UNL     1       2.769   7.317  18.335  0.00  0.00    +0.000 A 
ATOM      2  C   UNL     1       2.278   8.603  17.749  0.00  0.00    +0.000 A 
ATOM      3  N   UNL     1       1.552   9.497  18.351  0.00  0.00    +0.000 NA
ATOM      4  C   UNL     1       1.210   9.223  19.652  0.00  0.00    +0.000 A 
ATOM      5  C   UNL     1       0.474   9.924  20.592  0.00  0.00    +0.000 A 
ATOM      6  C   UNL     1       0.489   9.095  21.733  0.00  0.00    +0.000 A 
ATOM      7  N   UNL     1       1.167   7.961  21.555  0.00  0.00    +0.000 NA
ATOM      8  N   UNL     1       1.616   8.036  20.279  0.00  0.00    +0.000 N 
ATOM      9  C   UNL     1       2.393   7.101  19.605  0.00  0.00    +0.000 A 
ENDROOT
BRANCH   1  13
ATOM     10  C   UNL     1       5.180   4.586  16.111  0.00  0.00    +0.000 A 
ATOM     11  C   UNL     1       4.162   4.114  16.940  0.00  0.00    +0.000 A 
ATOM     12  C   UNL     1       3.365   5.005  17.665  0.00  0.00    +0.000 A 
ATOM     13  C   UNL     1       3.594   6.381  17.577  0.00  0.00    +0.000 A 
ATOM     14  C   UNL     1       4.634   6.851  16.766  0.00  0.00    +0.000 A 
ATOM     15  C   UNL     1       5.425   5.957  16.036  0.00  0.00    +0.000 A 
BRANCH  10  17
ATOM     16  C   UNL     1       6.359   3.965  14.158  0.00  0.00    +0.000 C 
ATOM     17  O   UNL     1       5.894   3.619  15.458  0.00  0.00    +0.000 OA
ENDBRANCH  10  17
ENDBRANCH   1  13
BRANCH   5  18
ATOM     18  C   UNL     1      -0.139  11.227  20.396  0.00  0.00    +0.000 A 
ATOM     19  C   UNL     1       0.417  12.377  20.964  0.00  0.00    +0.000 A 
ATOM     20  C   UNL     1      -0.166  13.623  20.729  0.00  0.00    +0.000 A 
ATOM     21  C   UNL     1      -1.292  13.681  19.926  0.00  0.00    +0.000 A 
ATOM     22  N   UNL     1      -1.864  12.598  19.360  0.00  0.00    +0.000 NA
ATOM     23  C   UNL     1      -1.277  11.400  19.613  0.00  0.00    +0.000 A 
ENDBRANCH   5  18
TORSDOF 3
ENDMDL
