MODEL 1
REMARK VINA RESULT:      -6.5      0.000      0.000
REMARK  Name = 
REMARK  7 active torsions:
REMARK  status: ('A' for Active; 'I' for Inactive)
REMARK    1  A    between atoms: C_1  and  O_2
REMARK    2  A    between atoms: O_2  and  C_3
REMARK    3  A    between atoms: C_6  and  C_7
REMARK    4  A    between atoms: C_7  and  C_8
REMARK    5  A    between atoms: C_8  and  N_9
REMARK    6  A    between atoms: N_9  and  C_10
REMARK    7  A    between atoms: C_10  and  N_12
REMARK                            x       y       z     vdW  Elec       q    Type
REMARK                         _______ _______ _______ _____ _____    ______ ____
ROOT
ATOM      1  N   UNL     1       5.165   6.288  16.499  0.00  0.00    +0.000 N 
ATOM      2  H   UNL     1       4.494   6.206  15.735  0.00  0.00    +0.000 HD
ENDROOT
BRANCH   1   3
ATOM      3  C   UNL     1       6.053   5.248  16.560  0.00  0.00    +0.000 C 
ATOM      4  S   UNL     1       7.116   4.954  17.819  0.00  0.00    +0.000 S 
BRANCH   3   5
ATOM      5  N   UNL     1       6.041   4.355  15.523  0.00  0.00    +0.000 N 
ATOM      6  C   UNL     1       6.734   4.530  14.357  0.00  0.00    +0.000 A 
ATOM      7  N   UNL     1       7.714   5.371  14.124  0.00  0.00    +0.000 NA
ATOM      8  C   UNL     1       8.006   5.352  12.777  0.00  0.00    +0.000 A 
ATOM      9  C   UNL     1       7.237   4.496  12.014  0.00  0.00    +0.000 A 
ATOM     10  S   UNL     1       6.168   3.618  13.033  0.00  0.00    +0.000 S 
ATOM     11  H   UNL     1       5.276   3.694  15.506  0.00  0.00    +0.000 HD
ENDBRANCH   3   5
ENDBRANCH   1   3
BRANCH   1  12
ATOM     12  C   UNL     1       4.679   7.004  17.671  0.00  0.00    +0.000 C 
BRANCH  12  13
ATOM     13  C   UNL     1       3.161   7.197  17.653  0.00  0.00    +0.000 C 
BRANCH  13  17
ATOM     14  C   UNL     1       1.360   3.996  19.931  0.00  0.00    +0.000 A 
ATOM     15  C   UNL     1       1.844   5.138  20.571  0.00  0.00    +0.000 A 
ATOM     16  C   UNL     1       2.397   6.187  19.833  0.00  0.00    +0.000 A 
ATOM     17  C   UNL     1       2.485   6.101  18.439  0.00  0.00    +0.000 A 
ATOM     18  C   UNL     1       2.011   4.943  17.800  0.00  0.00    +0.000 A 
ATOM     19  C   UNL     1       1.453   3.898  18.542  0.00  0.00    +0.000 A 
BRANCH  14  21
ATOM     20  C   UNL     1       1.759   2.572  21.777  0.00  0.00    +0.000 C 
ATOM     21  O   UNL     1       0.869   3.030  20.766  0.00  0.00    +0.000 OA
ENDBRANCH  14  21
ENDBRANCH  13  17
ENDBRANCH  12  13
ENDBRANCH   1  12
TORSDOF 6
ENDMDL
MODEL 2
REMARK VINA RESULT:      -6.3      1.125      1.651
REMARK  Name = 
REMARK  7 active torsions:
REMARK  status: ('A' for Active; 'I' for Inactive)
REMARK    1  A    between atoms: C_1  and  O_2
REMARK    2  A    between atoms: O_2  and  C_3
REMARK    3  A    between atoms: C_6  and  C_7
REMARK    4  A    between atoms: C_7  and  C_8
REMARK    5  A    between atoms: C_8  and  N_9
REMARK    6  A    between atoms: N_9  and  C_10
REMARK    7  A    between atoms: C_10  and  N_12
REMARK                            x       y       z     vdW  Elec       q    Type
REMARK                         _______ _______ _______ _____ _____    ______ ____
ROOT
ATOM      1  N   UNL     1       5.688   7.055  17.817  0.00  0.00    +0.000 N 
ATOM      2  H   UNL     1       6.217   7.927  17.816  0.00  0.00    +0.000 HD
ENDROOT
BRANCH   1   3
ATOM      3  C   UNL     1       6.459   5.948  18.049  0.00  0.00    +0.000 C 
ATOM      4  S   UNL     1       7.696   5.846  19.171  0.00  0.00    +0.000 S 
BRANCH   3   5
ATOM      5  N   UNL     1       6.165   4.822  17.330  0.00  0.00    +0.000 N 
ATOM      6  C   UNL     1       6.502   4.645  16.016  0.00  0.00    +0.000 A 
ATOM      7  N   UNL     1       7.368   5.332  15.310  0.00  0.00    +0.000 NA
ATOM      8  C   UNL     1       7.272   4.948  13.989  0.00  0.00    +0.000 A 
ATOM      9  C   UNL     1       6.328   3.978  13.721  0.00  0.00    +0.000 A 
ATOM     10  S   UNL     1       5.596   3.463  15.187  0.00  0.00    +0.000 S 
ATOM     11  H   UNL     1       5.433   4.229  17.698  0.00  0.00    +0.000 HD
ENDBRANCH   3   5
ENDBRANCH   1   3
BRANCH   1  12
ATOM     12  C   UNL     1       4.505   7.052  16.967  0.00  0.00    +0.000 C 
BRANCH  12  13
ATOM     13  C   UNL     1       3.245   7.499  17.713  0.00  0.00    +0.000 C 
BRANCH  13  17
ATOM     14  C   UNL     1       1.493   4.265  19.982  0.00  0.00    +0.000 A 
ATOM     15  C   UNL     1       1.813   4.094  18.634  0.00  0.00    +0.000 A 
ATOM     16  C   UNL     1       2.410   5.129  17.909  0.00  0.00    +0.000 A 
ATOM     17  C   UNL     1       2.682   6.356  18.521  0.00  0.00    +0.000 A 
ATOM     18  C   UNL     1       2.343   6.529  19.873  0.00  0.00    +0.000 A 
ATOM     19  C   UNL     1       1.752   5.490  20.597  0.00  0.00    +0.000 A 
BRANCH  14  21
ATOM     20  C   UNL     1       1.609   2.576  21.634  0.00  0.00    +0.000 C 
ATOM     21  O   UNL     1       0.888   3.189  20.572  0.00  0.00    +0.000 OA
ENDBRANCH  14  21
ENDBRANCH  13  17
ENDBRANCH  12  13
ENDBRANCH   1  12
TORSDOF 6
ENDMDL
MODEL 3
REMARK VINA RESULT:      -6.2      0.883      1.581
REMARK  Name = 
REMARK  7 active torsions:
REMARK  status: ('A' for Active; 'I' for Inactive)
REMARK    1  A    between atoms: C_1  and  O_2
REMARK    2  A    between atoms: O_2  and  C_3
REMARK    3  A    between atoms: C_6  and  C_7
REMARK    4  A    between atoms: C_7  and  C_8
REMARK    5  A    between atoms: C_8  and  N_9
REMARK    6  A    between atoms: N_9  and  C_10
REMARK    7  A    between atoms: C_10  and  N_12
REMARK                            x       y       z     vdW  Elec       q    Type
REMARK                         _______ _______ _______ _____ _____    ______ ____
ROOT
ATOM      1  N   UNL     1       5.260   6.041  16.465  0.00  0.00    +0.000 N 
ATOM      2  H   UNL     1       4.545   5.388  16.145  0.00  0.00    +0.000 HD
ENDROOT
BRANCH   1   3
ATOM      3  C   UNL     1       6.536   5.562  16.334  0.00  0.00    +0.000 C 
ATOM      4  S   UNL     1       7.428   4.836  17.550  0.00  0.00    +0.000 S 
BRANCH   3   5
ATOM      5  N   UNL     1       7.111   5.649  15.096  0.00  0.00    +0.000 N 
ATOM      6  C   UNL     1       6.726   4.897  14.021  0.00  0.00    +0.000 A 
ATOM      7  N   UNL     1       5.619   4.206  13.879  0.00  0.00    +0.000 NA
ATOM      8  C   UNL     1       5.709   3.451  12.729  0.00  0.00    +0.000 A 
ATOM      9  C   UNL     1       6.887   3.584  12.023  0.00  0.00    +0.000 A 
ATOM     10  S   UNL     1       7.884   4.762  12.778  0.00  0.00    +0.000 S 
ATOM     11  H   UNL     1       8.028   6.073  15.053  0.00  0.00    +0.000 HD
ENDBRANCH   3   5
ENDBRANCH   1   3
BRANCH   1  12
ATOM     12  C   UNL     1       4.839   6.937  17.534  0.00  0.00    +0.000 C 
BRANCH  12  13
ATOM     13  C   UNL     1       3.320   7.115  17.586  0.00  0.00    +0.000 C 
BRANCH  13  17
ATOM     14  C   UNL     1       1.402   4.132  20.056  0.00  0.00    +0.000 A 
ATOM     15  C   UNL     1       1.519   3.944  18.678  0.00  0.00    +0.000 A 
ATOM     16  C   UNL     1       2.168   4.893  17.884  0.00  0.00    +0.000 A 
ATOM     17  C   UNL     1       2.698   6.052  18.459  0.00  0.00    +0.000 A 
ATOM     18  C   UNL     1       2.564   6.245  19.843  0.00  0.00    +0.000 A 
ATOM     19  C   UNL     1       1.919   5.291  20.635  0.00  0.00    +0.000 A 
BRANCH  14  21
ATOM     20  C   UNL     1       1.435   2.489  21.758  0.00  0.00    +0.000 C 
ATOM     21  O   UNL     1       0.722   3.146  20.717  0.00  0.00    +0.000 OA
ENDBRANCH  14  21
ENDBRANCH  13  17
ENDBRANCH  12  13
ENDBRANCH   1  12
TORSDOF 6
ENDMDL
MODEL 4
REMARK VINA RESULT:      -6.2      2.145      2.912
REMARK  Name = 
REMARK  7 active torsions:
REMARK  status: ('A' for Active; 'I' for Inactive)
REMARK    1  A    between atoms: C_1  and  O_2
REMARK    2  A    between atoms: O_2  and  C_3
REMARK    3  A    between atoms: C_6  and  C_7
REMARK    4  A    between atoms: C_7  and  C_8
REMARK    5  A    between atoms: C_8  and  N_9
REMARK    6  A    between atoms: N_9  and  C_10
REMARK    7  A    between atoms: C_10  and  N_12
REMARK                            x       y       z     vdW  Elec       q    Type
REMARK                         _______ _______ _______ _____ _____    ______ ____
ROOT
ATOM      1  N   UNL     1       6.620   4.245  17.023  0.00  0.00    +0.000 N 
ATOM      2  H   UNL     1       7.334   3.518  16.980  0.00  0.00    +0.000 HD
ENDROOT
BRANCH   1   3
ATOM      3  C   UNL     1       7.065   5.475  16.621  0.00  0.00    +0.000 C 
ATOM      4  S   UNL     1       7.247   6.812  17.612  0.00  0.00    +0.000 S 
BRANCH   3   5
ATOM      5  N   UNL     1       7.429   5.609  15.309  0.00  0.00    +0.000 N 
ATOM      6  C   UNL     1       6.838   4.929  14.280  0.00  0.00    +0.000 A 
ATOM      7  N   UNL     1       5.695   4.286  14.294  0.00  0.00    +0.000 NA
ATOM      8  C   UNL     1       5.559   3.591  13.111  0.00  0.00    +0.000 A 
ATOM      9  C   UNL     1       6.607   3.719  12.224  0.00  0.00    +0.000 A 
ATOM     10  S   UNL     1       7.766   4.820  12.855  0.00  0.00    +0.000 S 
ATOM     11  H   UNL     1       8.344   6.001  15.132  0.00  0.00    +0.000 HD
ENDBRANCH   3   5
ENDBRANCH   1   3
BRANCH   1  12
ATOM     12  C   UNL     1       5.606   4.050  18.051  0.00  0.00    +0.000 C 
BRANCH  12  13
ATOM     13  C   UNL     1       4.184   4.235  17.515  0.00  0.00    +0.000 C 
BRANCH  13  17
ATOM     14  C   UNL     1       2.182   7.616  19.312  0.00  0.00    +0.000 A 
ATOM     15  C   UNL     1       2.233   6.388  19.973  0.00  0.00    +0.000 A 
ATOM     16  C   UNL     1       2.908   5.304  19.407  0.00  0.00    +0.000 A 
ATOM     17  C   UNL     1       3.531   5.432  18.162  0.00  0.00    +0.000 A 
ATOM     18  C   UNL     1       3.464   6.664  17.493  0.00  0.00    +0.000 A 
ATOM     19  C   UNL     1       2.792   7.749  18.064  0.00  0.00    +0.000 A 
BRANCH  14  21
ATOM     20  C   UNL     1       1.230   8.372  21.341  0.00  0.00    +0.000 C 
ATOM     21  O   UNL     1       1.467   8.589  19.956  0.00  0.00    +0.000 OA
ENDBRANCH  14  21
ENDBRANCH  13  17
ENDBRANCH  12  13
ENDBRANCH   1  12
TORSDOF 6
ENDMDL
MODEL 5
REMARK VINA RESULT:      -6.1      3.486      5.068
REMARK  Name = 
REMARK  7 active torsions:
REMARK  status: ('A' for Active; 'I' for Inactive)
REMARK    1  A    between atoms: C_1  and  O_2
REMARK    2  A    between atoms: O_2  and  C_3
REMARK    3  A    between atoms: C_6  and  C_7
REMARK    4  A    between atoms: C_7  and  C_8
REMARK    5  A    between atoms: C_8  and  N_9
REMARK    6  A    between atoms: N_9  and  C_10
REMARK    7  A    between atoms: C_10  and  N_12
REMARK                            x       y       z     vdW  Elec       q    Type
REMARK                         _______ _______ _______ _____ _____    ______ ____
ROOT
ATOM      1  N   UNL     1       2.476   4.245  17.961  0.00  0.00    +0.000 N 
ATOM      2  H   UNL     1       1.686   4.011  17.360  0.00  0.00    +0.000 HD
ENDROOT
BRANCH   1   3
ATOM      3  C   UNL     1       3.525   3.370  17.852  0.00  0.00    +0.000 C 
ATOM      4  S   UNL     1       3.539   1.800  18.429  0.00  0.00    +0.000 S 
BRANCH   3   5
ATOM      5  N   UNL     1       4.633   3.806  17.181  0.00  0.00    +0.000 N 
ATOM      6  C   UNL     1       5.678   4.459  17.775  0.00  0.00    +0.000 A 
ATOM      7  N   UNL     1       5.955   4.532  19.055  0.00  0.00    +0.000 NA
ATOM      8  C   UNL     1       6.983   5.433  19.238  0.00  0.00    +0.000 A 
ATOM      9  C   UNL     1       7.463   6.027  18.089  0.00  0.00    +0.000 A 
ATOM     10  S   UNL     1       6.659   5.370  16.720  0.00  0.00    +0.000 S 
ATOM     11  H   UNL     1       4.546   3.902  16.178  0.00  0.00    +0.000 HD
ENDBRANCH   3   5
ENDBRANCH   1   3
BRANCH   1  12
ATOM     12  C   UNL     1       2.128   4.937  19.195  0.00  0.00    +0.000 C 
BRANCH  12  13
ATOM     13  C   UNL     1       3.008   6.163  19.448  0.00  0.00    +0.000 C 
BRANCH  13  17
ATOM     14  C   UNL     1       0.804   9.865  19.111  0.00  0.00    +0.000 A 
ATOM     15  C   UNL     1       1.415   9.298  17.991  0.00  0.00    +0.000 A 
ATOM     16  C   UNL     1       2.099   8.085  18.093  0.00  0.00    +0.000 A 
ATOM     17  C   UNL     1       2.194   7.428  19.324  0.00  0.00    +0.000 A 
ATOM     18  C   UNL     1       1.592   8.010  20.451  0.00  0.00    +0.000 A 
ATOM     19  C   UNL     1       0.903   9.221  20.344  0.00  0.00    +0.000 A 
BRANCH  14  21
ATOM     20  C   UNL     1      -1.096  11.004  18.281  0.00  0.00    +0.000 C 
ATOM     21  O   UNL     1       0.190  11.067  18.887  0.00  0.00    +0.000 OA
ENDBRANCH  14  21
ENDBRANCH  13  17
ENDBRANCH  12  13
ENDBRANCH   1  12
TORSDOF 6
ENDMDL
MODEL 6
REMARK VINA RESULT:      -6.0      3.176      4.611
REMARK  Name = 
REMARK  7 active torsions:
REMARK  status: ('A' for Active; 'I' for Inactive)
REMARK    1  A    between atoms: C_1  and  O_2
REMARK    2  A    between atoms: O_2  and  C_3
REMARK    3  A    between atoms: C_6  and  C_7
REMARK    4  A    between atoms: C_7  and  C_8
REMARK    5  A    between atoms: C_8  and  N_9
REMARK    6  A    between atoms: N_9  and  C_10
REMARK    7  A    between atoms: C_10  and  N_12
REMARK                            x       y       z     vdW  Elec       q    Type
REMARK                         _______ _______ _______ _____ _____    ______ ____
ROOT
ATOM      1  N   UNL     1       2.702   3.662  18.356  0.00  0.00    +0.000 N 
ATOM      2  H   UNL     1       2.073   3.095  17.787  0.00  0.00    +0.000 HD
ENDROOT
BRANCH   1   3
ATOM      3  C   UNL     1       3.902   3.054  18.617  0.00  0.00    +0.000 C 
ATOM      4  S   UNL     1       4.316   2.308  20.056  0.00  0.00    +0.000 S 
BRANCH   3   5
ATOM      5  N   UNL     1       4.818   3.022  17.602  0.00  0.00    +0.000 N 
ATOM      6  C   UNL     1       5.203   4.121  16.886  0.00  0.00    +0.000 A 
ATOM      7  N   UNL     1       5.019   5.383  17.191  0.00  0.00    +0.000 NA
ATOM      8  C   UNL     1       5.396   6.162  16.117  0.00  0.00    +0.000 A 
ATOM      9  C   UNL     1       5.857   5.470  15.016  0.00  0.00    +0.000 A 
ATOM     10  S   UNL     1       5.903   3.789  15.367  0.00  0.00    +0.000 S 
ATOM     11  H   UNL     1       4.998   2.118  17.185  0.00  0.00    +0.000 HD
ENDBRANCH   3   5
ENDBRANCH   1   3
BRANCH   1  12
ATOM     12  C   UNL     1       2.042   4.576  19.279  0.00  0.00    +0.000 C 
BRANCH  12  13
ATOM     13  C   UNL     1       2.955   5.721  19.723  0.00  0.00    +0.000 C 
BRANCH  13  17
ATOM     14  C   UNL     1       1.228   9.600  18.917  0.00  0.00    +0.000 A 
ATOM     15  C   UNL     1       1.913   8.906  17.918  0.00  0.00    +0.000 A 
ATOM     16  C   UNL     1       2.443   7.638  18.169  0.00  0.00    +0.000 A 
ATOM     17  C   UNL     1       2.306   7.052  19.431  0.00  0.00    +0.000 A 
ATOM     18  C   UNL     1       1.630   7.759  20.438  0.00  0.00    +0.000 A 
ATOM     19  C   UNL     1       1.096   9.026  20.182  0.00  0.00    +0.000 A 
BRANCH  14  21
ATOM     20  C   UNL     1       0.988  11.878  19.508  0.00  0.00    +0.000 C 
ATOM     21  O   UNL     1       0.782  10.841  18.556  0.00  0.00    +0.000 OA
ENDBRANCH  14  21
ENDBRANCH  13  17
ENDBRANCH  12  13
ENDBRANCH   1  12
TORSDOF 6
ENDMDL
MODEL 7
REMARK VINA RESULT:      -6.0      0.473      1.199
REMARK  Name = 
REMARK  7 active torsions:
REMARK  status: ('A' for Active; 'I' for Inactive)
REMARK    1  A    between atoms: C_1  and  O_2
REMARK    2  A    between atoms: O_2  and  C_3
REMARK    3  A    between atoms: C_6  and  C_7
REMARK    4  A    between atoms: C_7  and  C_8
REMARK    5  A    between atoms: C_8  and  N_9
REMARK    6  A    between atoms: N_9  and  C_10
REMARK    7  A    between atoms: C_10  and  N_12
REMARK                            x       y       z     vdW  Elec       q    Type
REMARK                         _______ _______ _______ _____ _____    ______ ____
ROOT
ATOM      1  N   UNL     1       5.579   6.309  16.532  0.00  0.00    +0.000 N 
ATOM      2  H   UNL     1       5.466   6.556  15.548  0.00  0.00    +0.000 HD
ENDROOT
BRANCH   1   3
ATOM      3  C   UNL     1       5.769   4.969  16.740  0.00  0.00    +0.000 C 
ATOM      4  S   UNL     1       5.841   4.222  18.236  0.00  0.00    +0.000 S 
BRANCH   3   5
ATOM      5  N   UNL     1       5.869   4.173  15.632  0.00  0.00    +0.000 N 
ATOM      6  C   UNL     1       6.636   4.476  14.541  0.00  0.00    +0.000 A 
ATOM      7  N   UNL     1       7.594   5.368  14.456  0.00  0.00    +0.000 NA
ATOM      8  C   UNL     1       7.983   5.481  13.138  0.00  0.00    +0.000 A 
ATOM      9  C   UNL     1       7.307   4.670  12.249  0.00  0.00    +0.000 A 
ATOM     10  S   UNL     1       6.205   3.667  13.104  0.00  0.00    +0.000 S 
ATOM     11  H   UNL     1       5.136   3.489  15.500  0.00  0.00    +0.000 HD
ENDBRANCH   3   5
ENDBRANCH   1   3
BRANCH   1  12
ATOM     12  C   UNL     1       4.885   7.181  17.470  0.00  0.00    +0.000 C 
BRANCH  12  13
ATOM     13  C   UNL     1       3.365   7.132  17.301  0.00  0.00    +0.000 C 
BRANCH  13  17
ATOM     14  C   UNL     1       1.521   4.254  19.946  0.00  0.00    +0.000 A 
ATOM     15  C   UNL     1       1.480   4.074  18.562  0.00  0.00    +0.000 A 
ATOM     16  C   UNL     1       2.105   4.987  17.708  0.00  0.00    +0.000 A 
ATOM     17  C   UNL     1       2.768   6.103  18.229  0.00  0.00    +0.000 A 
ATOM     18  C   UNL     1       2.792   6.289  19.621  0.00  0.00    +0.000 A 
ATOM     19  C   UNL     1       2.171   5.370  20.473  0.00  0.00    +0.000 A 
BRANCH  14  21
ATOM     20  C   UNL     1       1.598   2.657  21.689  0.00  0.00    +0.000 C 
ATOM     21  O   UNL     1       0.849   3.308  20.670  0.00  0.00    +0.000 OA
ENDBRANCH  14  21
ENDBRANCH  13  17
ENDBRANCH  12  13
ENDBRANCH   1  12
TORSDOF 6
ENDMDL
MODEL 8
REMARK VINA RESULT:      -6.0      1.130      1.132
REMARK  Name = 
REMARK  7 active torsions:
REMARK  status: ('A' for Active; 'I' for Inactive)
REMARK    1  A    between atoms: C_1  and  O_2
REMARK    2  A    between atoms: O_2  and  C_3
REMARK    3  A    between atoms: C_6  and  C_7
REMARK    4  A    between atoms: C_7  and  C_8
REMARK    5  A    between atoms: C_8  and  N_9
REMARK    6  A    between atoms: N_9  and  C_10
REMARK    7  A    between atoms: C_10  and  N_12
REMARK                            x       y       z     vdW  Elec       q    Type
REMARK                         _______ _______ _______ _____ _____    ______ ____
ROOT
ATOM      1  N   UNL     1       6.562   6.649  16.579  0.00  0.00    +0.000 N 
ATOM      2  H   UNL     1       6.669   6.985  15.622  0.00  0.00    +0.000 HD
ENDROOT
BRANCH   1   3
ATOM      3  C   UNL     1       6.977   5.356  16.753  0.00  0.00    +0.000 C 
ATOM      4  S   UNL     1       7.734   4.758  18.121  0.00  0.00    +0.000 S 
BRANCH   3   5
ATOM      5  N   UNL     1       6.715   4.474  15.741  0.00  0.00    +0.000 N 
ATOM      6  C   UNL     1       7.130   4.649  14.449  0.00  0.00    +0.000 A 
ATOM      7  N   UNL     1       8.046   5.476  14.006  0.00  0.00    +0.000 NA
ATOM      8  C   UNL     1       8.027   5.466  12.627  0.00  0.00    +0.000 A 
ATOM      9  C   UNL     1       7.090   4.631  12.053  0.00  0.00    +0.000 A 
ATOM     10  S   UNL     1       6.262   3.760  13.282  0.00  0.00    +0.000 S 
ATOM     11  H   UNL     1       5.954   3.826  15.893  0.00  0.00    +0.000 HD
ENDBRANCH   3   5
ENDBRANCH   1   3
BRANCH   1  12
ATOM     12  C   UNL     1       5.465   7.252  17.324  0.00  0.00    +0.000 C 
BRANCH  12  13
ATOM     13  C   UNL     1       4.099   6.705  16.903  0.00  0.00    +0.000 C 
BRANCH  13  17
ATOM     14  C   UNL     1       2.929   3.627  19.700  0.00  0.00    +0.000 A 
ATOM     15  C   UNL     1       3.199   4.922  20.143  0.00  0.00    +0.000 A 
ATOM     16  C   UNL     1       3.545   5.926  19.235  0.00  0.00    +0.000 A 
ATOM     17  C   UNL     1       3.640   5.641  17.869  0.00  0.00    +0.000 A 
ATOM     18  C   UNL     1       3.383   4.332  17.429  0.00  0.00    +0.000 A 
ATOM     19  C   UNL     1       3.031   3.332  18.341  0.00  0.00    +0.000 A 
BRANCH  14  21
ATOM     20  C   UNL     1       1.302   2.787  21.198  0.00  0.00    +0.000 C 
ATOM     21  O   UNL     1       2.628   2.730  20.689  0.00  0.00    +0.000 OA
ENDBRANCH  14  21
ENDBRANCH  13  17
ENDBRANCH  12  13
ENDBRANCH   1  12
TORSDOF 6
ENDMDL
MODEL 9
REMARK VINA RESULT:      -6.0      1.046      1.297
REMARK  Name = 
REMARK  7 active torsions:
REMARK  status: ('A' for Active; 'I' for Inactive)
REMARK    1  A    between atoms: C_1  and  O_2
REMARK    2  A    between atoms: O_2  and  C_3
REMARK    3  A    between atoms: C_6  and  C_7
REMARK    4  A    between atoms: C_7  and  C_8
REMARK    5  A    between atoms: C_8  and  N_9
REMARK    6  A    between atoms: N_9  and  C_10
REMARK    7  A    between atoms: C_10  and  N_12
REMARK                            x       y       z     vdW  Elec       q    Type
REMARK                         _______ _______ _______ _____ _____    ______ ____
ROOT
ATOM      1  N   UNL     1       5.742   6.487  16.422  0.00  0.00    +0.000 N 
ATOM      2  H   UNL     1       5.085   6.526  15.642  0.00  0.00    +0.000 HD
ENDROOT
BRANCH   1   3
ATOM      3  C   UNL     1       6.784   5.622  16.216  0.00  0.00    +0.000 C 
ATOM      4  S   UNL     1       7.481   4.651  17.387  0.00  0.00    +0.000 S 
BRANCH   3   5
ATOM      5  N   UNL     1       7.264   5.516  14.940  0.00  0.00    +0.000 N 
ATOM      6  C   UNL     1       6.662   4.781  13.957  0.00  0.00    +0.000 A 
ATOM      7  N   UNL     1       5.439   4.306  13.944  0.00  0.00    +0.000 NA
ATOM      8  C   UNL     1       5.296   3.473  12.854  0.00  0.00    +0.000 A 
ATOM      9  C   UNL     1       6.418   3.331  12.064  0.00  0.00    +0.000 A 
ATOM     10  S   UNL     1       7.672   4.346  12.655  0.00  0.00    +0.000 S 
ATOM     11  H   UNL     1       8.237   5.754  14.803  0.00  0.00    +0.000 HD
ENDBRANCH   3   5
ENDBRANCH   1   3
BRANCH   1  12
ATOM     12  C   UNL     1       5.161   6.755  17.731  0.00  0.00    +0.000 C 
BRANCH  12  13
ATOM     13  C   UNL     1       3.641   6.929  17.673  0.00  0.00    +0.000 C 
BRANCH  13  17
ATOM     14  C   UNL     1       1.794   3.578  19.681  0.00  0.00    +0.000 A 
ATOM     15  C   UNL     1       2.730   4.374  20.343  0.00  0.00    +0.000 A 
ATOM     16  C   UNL     1       3.303   5.477  19.705  0.00  0.00    +0.000 A 
ATOM     17  C   UNL     1       2.956   5.790  18.387  0.00  0.00    +0.000 A 
ATOM     18  C   UNL     1       2.025   4.978  17.720  0.00  0.00    +0.000 A 
ATOM     19  C   UNL     1       1.449   3.879  18.363  0.00  0.00    +0.000 A 
BRANCH  14  21
ATOM     20  C   UNL     1       1.542   2.574  21.808  0.00  0.00    +0.000 C 
ATOM     21  O   UNL     1       1.328   2.514  20.404  0.00  0.00    +0.000 OA
ENDBRANCH  14  21
ENDBRANCH  13  17
ENDBRANCH  12  13
ENDBRANCH   1  12
TORSDOF 6
ENDMDL
