MODEL 1
REMARK VINA RESULT:      -7.6      0.000      0.000
REMARK  Name = 
REMARK  6 active torsions:
REMARK  status: ('A' for Active; 'I' for Inactive)
REMARK    1  A    between atoms: O_1  and  N_2
REMARK    2  A    between atoms: C_3  and  C_4
REMARK    3  A    between atoms: N_7  and  C_8
REMARK    4  A    between atoms: C_8  and  C_9
REMARK    5  A    between atoms: C_10  and  C_11
REMARK    6  A    between atoms: C_11  and  N_12
REMARK                            x       y       z     vdW  Elec       q    Type
REMARK                         _______ _______ _______ _____ _____    ______ ____
ROOT
ATOM      1  C   UNL     1       3.137   8.092  17.626  0.00  0.00    +0.000 C 
ATOM      2  C   UNL     1       1.845   8.385  17.886  0.00  0.00    +0.000 C 
ENDROOT
BRANCH   1   3
ATOM      3  C   UNL     1       3.730   6.699  17.601  0.00  0.00    +0.000 C 
BRANCH   3   7
ATOM      4  C   UNL     1       1.639   4.049  20.164  0.00  0.00    +0.000 A 
ATOM      5  C   UNL     1       1.674   3.820  18.798  0.00  0.00    +0.000 A 
ATOM      6  C   UNL     1       2.359   4.704  17.979  0.00  0.00    +0.000 A 
ATOM      7  N   UNL     1       2.968   5.796  18.500  0.00  0.00    +0.000 N 
ATOM      8  C   UNL     1       2.879   6.072  19.819  0.00  0.00    +0.000 A 
ATOM      9  C   UNL     1       2.200   5.215  20.682  0.00  0.00    +0.000 A 
BRANCH   4  11
ATOM     10  N   UNL     1       1.553   2.279  21.922  0.00  0.00    +0.000 NA
ATOM     11  C   UNL     1       0.990   3.098  21.088  0.00  0.00    +0.000 C 
BRANCH  10  12
ATOM     12  O   UNL     1       2.946   2.394  21.964  0.00  0.00    +0.000 OA
ATOM     13  H   UNL     1       3.205   1.560  22.409  0.00  0.00    +0.000 HD
ENDBRANCH  10  12
ENDBRANCH   4  11
ENDBRANCH   3   7
ENDBRANCH   1   3
BRANCH   2  14
ATOM     14  C   UNL     1       1.267   9.779  17.983  0.00  0.00    +0.000 C 
BRANCH  14  15
ATOM     15  N   UNL     1       0.717   9.999  19.340  0.00  0.00    +0.000 N 
ATOM     16  C   UNL     1       0.900   9.061  20.298  0.00  0.00    +0.000 A 
ATOM     17  C   UNL     1       0.419   9.252  21.585  0.00  0.00    +0.000 A 
ATOM     18  C   UNL     1      -0.378  10.361  21.858  0.00  0.00    +0.000 A 
ATOM     19  C   UNL     1      -0.964  10.531  23.117  0.00  0.00    +0.000 A 
ATOM     20  C   UNL     1      -1.969  11.479  23.292  0.00  0.00    +0.000 A 
ATOM     21  C   UNL     1      -2.307  12.340  22.251  0.00  0.00    +0.000 A 
ATOM     22  C   UNL     1      -1.601  12.294  21.048  0.00  0.00    +0.000 A 
ATOM     23  C   UNL     1      -0.656  11.280  20.828  0.00  0.00    +0.000 A 
ATOM     24  C   UNL     1      -0.023  11.106  19.595  0.00  0.00    +0.000 A 
ENDBRANCH  14  15
ENDBRANCH   2  14
TORSDOF 6
ENDMDL
MODEL 2
REMARK VINA RESULT:      -7.4      0.314      1.025
REMARK  Name = 
REMARK  6 active torsions:
REMARK  status: ('A' for Active; 'I' for Inactive)
REMARK    1  A    between atoms: O_1  and  N_2
REMARK    2  A    between atoms: C_3  and  C_4
REMARK    3  A    between atoms: N_7  and  C_8
REMARK    4  A    between atoms: C_8  and  C_9
REMARK    5  A    between atoms: C_10  and  C_11
REMARK    6  A    between atoms: C_11  and  N_12
REMARK                            x       y       z     vdW  Elec       q    Type
REMARK                         _______ _______ _______ _____ _____    ______ ____
ROOT
ATOM      1  C   UNL     1       3.289   7.874  17.355  0.00  0.00    +0.000 C 
ATOM      2  C   UNL     1       2.223   8.233  18.102  0.00  0.00    +0.000 C 
ENDROOT
BRANCH   1   3
ATOM      3  C   UNL     1       3.984   6.531  17.410  0.00  0.00    +0.000 C 
BRANCH   3   7
ATOM      4  C   UNL     1       1.838   3.982  20.029  0.00  0.00    +0.000 A 
ATOM      5  C   UNL     1       2.744   4.901  20.533  0.00  0.00    +0.000 A 
ATOM      6  C   UNL     1       3.439   5.719  19.656  0.00  0.00    +0.000 A 
ATOM      7  N   UNL     1       3.257   5.609  18.319  0.00  0.00    +0.000 N 
ATOM      8  C   UNL     1       2.434   4.667  17.810  0.00  0.00    +0.000 A 
ATOM      9  C   UNL     1       1.715   3.821  18.650  0.00  0.00    +0.000 A 
BRANCH   4  11
ATOM     10  N   UNL     1       1.416   2.349  21.870  0.00  0.00    +0.000 NA
ATOM     11  C   UNL     1       1.017   3.140  20.921  0.00  0.00    +0.000 C 
BRANCH  10  12
ATOM     12  O   UNL     1       2.798   2.384  22.080  0.00  0.00    +0.000 OA
ATOM     13  H   UNL     1       2.856   2.332  23.058  0.00  0.00    +0.000 HD
ENDBRANCH  10  12
ENDBRANCH   4  11
ENDBRANCH   3   7
ENDBRANCH   1   3
BRANCH   2  14
ATOM     14  C   UNL     1       1.573   9.598  18.099  0.00  0.00    +0.000 C 
BRANCH  14  15
ATOM     15  N   UNL     1       0.953   9.860  19.419  0.00  0.00    +0.000 N 
ATOM     16  C   UNL     1       1.058   8.937  20.404  0.00  0.00    +0.000 A 
ATOM     17  C   UNL     1       0.511   9.167  21.657  0.00  0.00    +0.000 A 
ATOM     18  C   UNL     1      -0.272  10.300  21.863  0.00  0.00    +0.000 A 
ATOM     19  C   UNL     1      -0.923  10.511  23.083  0.00  0.00    +0.000 A 
ATOM     20  C   UNL     1      -1.912  11.486  23.183  0.00  0.00    +0.000 A 
ATOM     21  C   UNL     1      -2.168  12.333  22.108  0.00  0.00    +0.000 A 
ATOM     22  C   UNL     1      -1.398  12.245  20.948  0.00  0.00    +0.000 A 
ATOM     23  C   UNL     1      -0.468  11.204  20.801  0.00  0.00    +0.000 A 
ATOM     24  C   UNL     1       0.229  10.989  19.610  0.00  0.00    +0.000 A 
ENDBRANCH  14  15
ENDBRANCH   2  14
TORSDOF 6
ENDMDL
MODEL 3
REMARK VINA RESULT:      -7.4      6.725      8.539
REMARK  Name = 
REMARK  6 active torsions:
REMARK  status: ('A' for Active; 'I' for Inactive)
REMARK    1  A    between atoms: O_1  and  N_2
REMARK    2  A    between atoms: C_3  and  C_4
REMARK    3  A    between atoms: N_7  and  C_8
REMARK    4  A    between atoms: C_8  and  C_9
REMARK    5  A    between atoms: C_10  and  C_11
REMARK    6  A    between atoms: C_11  and  N_12
REMARK                            x       y       z     vdW  Elec       q    Type
REMARK                         _______ _______ _______ _____ _____    ______ ____
ROOT
ATOM      1  C   UNL     1       8.133   8.061  18.239  0.00  0.00    +0.000 C 
ATOM      2  C   UNL     1       8.495   9.349  18.060  0.00  0.00    +0.000 C 
ENDROOT
BRANCH   1   3
ATOM      3  C   UNL     1       7.495   7.177  17.188  0.00  0.00    +0.000 C 
BRANCH   3   7
ATOM      4  C   UNL     1       4.038   5.218  18.662  0.00  0.00    +0.000 A 
ATOM      5  C   UNL     1       3.926   6.196  17.686  0.00  0.00    +0.000 A 
ATOM      6  C   UNL     1       5.071   6.826  17.224  0.00  0.00    +0.000 A 
ATOM      7  N   UNL     1       6.285   6.514  17.736  0.00  0.00    +0.000 N 
ATOM      8  C   UNL     1       6.401   5.617  18.740  0.00  0.00    +0.000 A 
ATOM      9  C   UNL     1       5.280   4.958  19.238  0.00  0.00    +0.000 A 
BRANCH   4  11
ATOM     10  N   UNL     1       2.051   4.761  20.102  0.00  0.00    +0.000 NA
ATOM     11  C   UNL     1       2.861   4.462  19.133  0.00  0.00    +0.000 C 
BRANCH  10  12
ATOM     12  O   UNL     1       2.326   5.995  20.700  0.00  0.00    +0.000 OA
ATOM     13  H   UNL     1       1.915   6.623  20.068  0.00  0.00    +0.000 HD
ENDBRANCH  10  12
ENDBRANCH   4  11
ENDBRANCH   3   7
ENDBRANCH   1   3
BRANCH   2  14
ATOM     14  C   UNL     1       9.065  10.253  19.130  0.00  0.00    +0.000 C 
BRANCH  14  15
ATOM     15  N   UNL     1       9.638  11.468  18.505  0.00  0.00    +0.000 N 
ATOM     16  C   UNL     1      10.924  11.463  18.084  0.00  0.00    +0.000 A 
ATOM     17  C   UNL     1      11.477  12.576  17.471  0.00  0.00    +0.000 A 
ATOM     18  C   UNL     1      10.744  13.759  17.411  0.00  0.00    +0.000 A 
ATOM     19  C   UNL     1      11.308  14.929  16.892  0.00  0.00    +0.000 A 
ATOM     20  C   UNL     1      10.674  16.153  17.091  0.00  0.00    +0.000 A 
ATOM     21  C   UNL     1       9.420  16.200  17.696  0.00  0.00    +0.000 A 
ATOM     22  C   UNL     1       8.772  15.018  18.055  0.00  0.00    +0.000 A 
ATOM     23  C   UNL     1       9.442  13.790  17.949  0.00  0.00    +0.000 A 
ATOM     24  C   UNL     1       8.891  12.596  18.420  0.00  0.00    +0.000 A 
ENDBRANCH  14  15
ENDBRANCH   2  14
TORSDOF 6
ENDMDL
MODEL 4
REMARK VINA RESULT:      -7.3      0.841      1.731
REMARK  Name = 
REMARK  6 active torsions:
REMARK  status: ('A' for Active; 'I' for Inactive)
REMARK    1  A    between atoms: O_1  and  N_2
REMARK    2  A    between atoms: C_3  and  C_4
REMARK    3  A    between atoms: N_7  and  C_8
REMARK    4  A    between atoms: C_8  and  C_9
REMARK    5  A    between atoms: C_10  and  C_11
REMARK    6  A    between atoms: C_11  and  N_12
REMARK                            x       y       z     vdW  Elec       q    Type
REMARK                         _______ _______ _______ _____ _____    ______ ____
ROOT
ATOM      1  C   UNL     1       3.745   7.577  17.290  0.00  0.00    +0.000 C 
ATOM      2  C   UNL     1       2.545   8.086  17.639  0.00  0.00    +0.000 C 
ENDROOT
BRANCH   1   3
ATOM      3  C   UNL     1       4.131   6.115  17.366  0.00  0.00    +0.000 C 
BRANCH   3   7
ATOM      4  C   UNL     1       1.775   4.009  20.190  0.00  0.00    +0.000 A 
ATOM      5  C   UNL     1       1.718   3.678  18.845  0.00  0.00    +0.000 A 
ATOM      6  C   UNL     1       2.493   4.386  17.940  0.00  0.00    +0.000 A 
ATOM      7  N   UNL     1       3.280   5.407  18.355  0.00  0.00    +0.000 N 
ATOM      8  C   UNL     1       3.289   5.788  19.651  0.00  0.00    +0.000 A 
ATOM      9  C   UNL     1       2.526   5.109  20.598  0.00  0.00    +0.000 A 
BRANCH   4  11
ATOM     10  N   UNL     1       1.495   2.394  22.073  0.00  0.00    +0.000 NA
ATOM     11  C   UNL     1       1.029   3.238  21.205  0.00  0.00    +0.000 C 
BRANCH  10  12
ATOM     12  O   UNL     1       2.889   2.283  22.052  0.00  0.00    +0.000 OA
ATOM     13  H   UNL     1       3.077   1.923  22.944  0.00  0.00    +0.000 HD
ENDBRANCH  10  12
ENDBRANCH   4  11
ENDBRANCH   3   7
ENDBRANCH   1   3
BRANCH   2  14
ATOM     14  C   UNL     1       2.183   9.555  17.632  0.00  0.00    +0.000 C 
BRANCH  14  15
ATOM     15  N   UNL     1       1.261   9.848  18.754  0.00  0.00    +0.000 N 
ATOM     16  C   UNL     1       0.346  10.838  18.629  0.00  0.00    +0.000 A 
ATOM     17  C   UNL     1      -0.547  11.116  19.652  0.00  0.00    +0.000 A 
ATOM     18  C   UNL     1      -0.413  10.460  20.873  0.00  0.00    +0.000 A 
ATOM     19  C   UNL     1      -1.232  10.789  21.959  0.00  0.00    +0.000 A 
ATOM     20  C   UNL     1      -0.909  10.334  23.234  0.00  0.00    +0.000 A 
ATOM     21  C   UNL     1       0.155   9.452  23.413  0.00  0.00    +0.000 A 
ATOM     22  C   UNL     1       0.864   8.979  22.309  0.00  0.00    +0.000 A 
ATOM     23  C   UNL     1       0.611   9.507  21.034  0.00  0.00    +0.000 A 
ATOM     24  C   UNL     1       1.383   9.169  19.920  0.00  0.00    +0.000 A 
ENDBRANCH  14  15
ENDBRANCH   2  14
TORSDOF 6
ENDMDL
MODEL 5
REMARK VINA RESULT:      -7.3      6.727     10.013
REMARK  Name = 
REMARK  6 active torsions:
REMARK  status: ('A' for Active; 'I' for Inactive)
REMARK    1  A    between atoms: O_1  and  N_2
REMARK    2  A    between atoms: C_3  and  C_4
REMARK    3  A    between atoms: N_7  and  C_8
REMARK    4  A    between atoms: C_8  and  C_9
REMARK    5  A    between atoms: C_10  and  C_11
REMARK    6  A    between atoms: C_11  and  N_12
REMARK                            x       y       z     vdW  Elec       q    Type
REMARK                         _______ _______ _______ _____ _____    ______ ____
ROOT
ATOM      1  C   UNL     1       8.288   9.039  18.002  0.00  0.00    +0.000 C 
ATOM      2  C   UNL     1       7.697   7.828  18.086  0.00  0.00    +0.000 C 
ENDROOT
BRANCH   1   3
ATOM      3  C   UNL     1       9.192   9.646  19.054  0.00  0.00    +0.000 C 
BRANCH   3   7
ATOM      4  C   UNL     1       9.936  13.735  18.222  0.00  0.00    +0.000 A 
ATOM      5  C   UNL     1       8.762  13.136  17.795  0.00  0.00    +0.000 A 
ATOM      6  C   UNL     1       8.544  11.796  18.074  0.00  0.00    +0.000 A 
ATOM      7  N   UNL     1       9.476  11.068  18.733  0.00  0.00    +0.000 N 
ATOM      8  C   UNL     1      10.657  11.619  19.089  0.00  0.00    +0.000 A 
ATOM      9  C   UNL     1      10.923  12.961  18.830  0.00  0.00    +0.000 A 
BRANCH   4  11
ATOM     10  N   UNL     1      10.756  15.757  17.009  0.00  0.00    +0.000 NA
ATOM     11  C   UNL     1      10.184  15.176  18.019  0.00  0.00    +0.000 C 
BRANCH  10  12
ATOM     12  O   UNL     1      11.101  14.875  15.980  0.00  0.00    +0.000 OA
ATOM     13  H   UNL     1      11.850  14.382  16.379  0.00  0.00    +0.000 HD
ENDBRANCH  10  12
ENDBRANCH   4  11
ENDBRANCH   3   7
ENDBRANCH   1   3
BRANCH   2  14
ATOM     14  C   UNL     1       6.737   7.251  17.069  0.00  0.00    +0.000 C 
BRANCH  14  15
ATOM     15  N   UNL     1       5.870   6.239  17.718  0.00  0.00    +0.000 N 
ATOM     16  C   UNL     1       6.429   5.157  18.308  0.00  0.00    +0.000 A 
ATOM     17  C   UNL     1       5.645   4.209  18.946  0.00  0.00    +0.000 A 
ATOM     18  C   UNL     1       4.257   4.300  18.861  0.00  0.00    +0.000 A 
ATOM     19  C   UNL     1       3.437   3.306  19.405  0.00  0.00    +0.000 A 
ATOM     20  C   UNL     1       2.085   3.265  19.075  0.00  0.00    +0.000 A 
ATOM     21  C   UNL     1       1.522   4.280  18.305  0.00  0.00    +0.000 A 
ATOM     22  C   UNL     1       2.298   5.370  17.909  0.00  0.00    +0.000 A 
ATOM     23  C   UNL     1       3.680   5.372  18.152  0.00  0.00    +0.000 A 
ATOM     24  C   UNL     1       4.523   6.371  17.658  0.00  0.00    +0.000 A 
ENDBRANCH  14  15
ENDBRANCH   2  14
TORSDOF 6
ENDMDL
MODEL 6
REMARK VINA RESULT:      -7.3      6.485      7.900
REMARK  Name = 
REMARK  6 active torsions:
REMARK  status: ('A' for Active; 'I' for Inactive)
REMARK    1  A    between atoms: O_1  and  N_2
REMARK    2  A    between atoms: C_3  and  C_4
REMARK    3  A    between atoms: N_7  and  C_8
REMARK    4  A    between atoms: C_8  and  C_9
REMARK    5  A    between atoms: C_10  and  C_11
REMARK    6  A    between atoms: C_11  and  N_12
REMARK                            x       y       z     vdW  Elec       q    Type
REMARK                         _______ _______ _______ _____ _____    ______ ____
ROOT
ATOM      1  C   UNL     1       7.410   7.070  17.623  0.00  0.00    +0.000 C 
ATOM      2  C   UNL     1       8.036   8.173  18.085  0.00  0.00    +0.000 C 
ENDROOT
BRANCH   1   3
ATOM      3  C   UNL     1       7.565   5.674  18.189  0.00  0.00    +0.000 C 
BRANCH   3   7
ATOM      4  C   UNL     1       3.941   3.486  17.986  0.00  0.00    +0.000 A 
ATOM      5  C   UNL     1       4.709   3.676  16.849  0.00  0.00    +0.000 A 
ATOM      6  C   UNL     1       5.887   4.400  16.939  0.00  0.00    +0.000 A 
ATOM      7  N   UNL     1       6.276   4.941  18.118  0.00  0.00    +0.000 N 
ATOM      8  C   UNL     1       5.500   4.829  19.218  0.00  0.00    +0.000 A 
ATOM      9  C   UNL     1       4.307   4.111  19.177  0.00  0.00    +0.000 A 
BRANCH   4  11
ATOM     10  N   UNL     1       1.499   3.037  17.730  0.00  0.00    +0.000 NA
ATOM     11  C   UNL     1       2.718   2.659  17.962  0.00  0.00    +0.000 C 
BRANCH  10  12
ATOM     12  O   UNL     1       1.387   4.392  17.401  0.00  0.00    +0.000 OA
ATOM     13  H   UNL     1       0.724   4.705  18.051  0.00  0.00    +0.000 HD
ENDBRANCH  10  12
ENDBRANCH   4  11
ENDBRANCH   3   7
ENDBRANCH   1   3
BRANCH   2  14
ATOM     14  C   UNL     1       7.938   9.554  17.476  0.00  0.00    +0.000 C 
BRANCH  14  15
ATOM     15  N   UNL     1       8.749  10.509  18.266  0.00  0.00    +0.000 N 
ATOM     16  C   UNL     1       9.267  10.124  19.456  0.00  0.00    +0.000 A 
ATOM     17  C   UNL     1      10.053  10.987  20.204  0.00  0.00    +0.000 A 
ATOM     18  C   UNL     1      10.198  12.310  19.791  0.00  0.00    +0.000 A 
ATOM     19  C   UNL     1      10.898  13.233  20.574  0.00  0.00    +0.000 A 
ATOM     20  C   UNL     1      10.800  14.594  20.295  0.00  0.00    +0.000 A 
ATOM     21  C   UNL     1      10.108  15.029  19.167  0.00  0.00    +0.000 A 
ATOM     22  C   UNL     1       9.559  14.100  18.283  0.00  0.00    +0.000 A 
ATOM     23  C   UNL     1       9.567  12.735  18.606  0.00  0.00    +0.000 A 
ATOM     24  C   UNL     1       8.912  11.779  17.824  0.00  0.00    +0.000 A 
ENDBRANCH  14  15
ENDBRANCH   2  14
TORSDOF 6
ENDMDL
MODEL 7
REMARK VINA RESULT:      -7.3      2.498      6.761
REMARK  Name = 
REMARK  6 active torsions:
REMARK  status: ('A' for Active; 'I' for Inactive)
REMARK    1  A    between atoms: O_1  and  N_2
REMARK    2  A    between atoms: C_3  and  C_4
REMARK    3  A    between atoms: N_7  and  C_8
REMARK    4  A    between atoms: C_8  and  C_9
REMARK    5  A    between atoms: C_10  and  C_11
REMARK    6  A    between atoms: C_11  and  N_12
REMARK                            x       y       z     vdW  Elec       q    Type
REMARK                         _______ _______ _______ _____ _____    ______ ____
ROOT
ATOM      1  C   UNL     1       3.240   7.481  17.668  0.00  0.00    +0.000 C 
ATOM      2  C   UNL     1       4.375   7.207  16.991  0.00  0.00    +0.000 C 
ENDROOT
BRANCH   1   3
ATOM      3  C   UNL     1       2.513   8.809  17.657  0.00  0.00    +0.000 C 
BRANCH   3   7
ATOM      4  C   UNL     1       0.296   9.289  21.237  0.00  0.00    +0.000 A 
ATOM      5  C   UNL     1       1.080   8.163  21.045  0.00  0.00    +0.000 A 
ATOM      6  C   UNL     1       1.791   8.026  19.864  0.00  0.00    +0.000 A 
ATOM      7  N   UNL     1       1.705   8.966  18.893  0.00  0.00    +0.000 N 
ATOM      8  C   UNL     1       0.886  10.031  19.035  0.00  0.00    +0.000 A 
ATOM      9  C   UNL     1       0.150  10.213  20.204  0.00  0.00    +0.000 A 
BRANCH   4  11
ATOM     10  N   UNL     1       0.076   9.620  23.702  0.00  0.00    +0.000 NA
ATOM     11  C   UNL     1      -0.420   9.522  22.507  0.00  0.00    +0.000 C 
BRANCH  10  12
ATOM     12  O   UNL     1       1.473   9.559  23.733  0.00  0.00    +0.000 OA
ATOM     13  H   UNL     1       1.716  10.075  22.935  0.00  0.00    +0.000 HD
ENDBRANCH  10  12
ENDBRANCH   4  11
ENDBRANCH   3   7
ENDBRANCH   1   3
BRANCH   2  14
ATOM     14  C   UNL     1       5.140   5.904  17.058  0.00  0.00    +0.000 C 
BRANCH  14  15
ATOM     15  N   UNL     1       4.315   4.873  17.728  0.00  0.00    +0.000 N 
ATOM     16  C   UNL     1       3.813   3.843  17.008  0.00  0.00    +0.000 A 
ATOM     17  C   UNL     1       3.059   2.850  17.614  0.00  0.00    +0.000 A 
ATOM     18  C   UNL     1       2.702   2.985  18.953  0.00  0.00    +0.000 A 
ATOM     19  C   UNL     1       1.858   2.054  19.569  0.00  0.00    +0.000 A 
ATOM     20  C   UNL     1       1.290   2.345  20.807  0.00  0.00    +0.000 A 
ATOM     21  C   UNL     1       1.655   3.503  21.489  0.00  0.00    +0.000 A 
ATOM     22  C   UNL     1       2.633   4.347  20.960  0.00  0.00    +0.000 A 
ATOM     23  C   UNL     1       3.137   4.115  19.672  0.00  0.00    +0.000 A 
ATOM     24  C   UNL     1       4.013   5.004  19.043  0.00  0.00    +0.000 A 
ENDBRANCH  14  15
ENDBRANCH   2  14
TORSDOF 6
ENDMDL
MODEL 8
REMARK VINA RESULT:      -7.3      6.605      8.443
REMARK  Name = 
REMARK  6 active torsions:
REMARK  status: ('A' for Active; 'I' for Inactive)
REMARK    1  A    between atoms: O_1  and  N_2
REMARK    2  A    between atoms: C_3  and  C_4
REMARK    3  A    between atoms: N_7  and  C_8
REMARK    4  A    between atoms: C_8  and  C_9
REMARK    5  A    between atoms: C_10  and  C_11
REMARK    6  A    between atoms: C_11  and  N_12
REMARK                            x       y       z     vdW  Elec       q    Type
REMARK                         _______ _______ _______ _____ _____    ______ ____
ROOT
ATOM      1  C   UNL     1       7.962   7.969  17.965  0.00  0.00    +0.000 C 
ATOM      2  C   UNL     1       8.295   9.276  17.910  0.00  0.00    +0.000 C 
ENDROOT
BRANCH   1   3
ATOM      3  C   UNL     1       7.146   7.230  16.926  0.00  0.00    +0.000 C 
BRANCH   3   7
ATOM      4  C   UNL     1       4.029   5.108  18.861  0.00  0.00    +0.000 A 
ATOM      5  C   UNL     1       5.325   5.046  19.348  0.00  0.00    +0.000 A 
ATOM      6  C   UNL     1       6.329   5.744  18.694  0.00  0.00    +0.000 A 
ATOM      7  N   UNL     1       6.057   6.459  17.576  0.00  0.00    +0.000 N 
ATOM      8  C   UNL     1       4.813   6.467  17.048  0.00  0.00    +0.000 A 
ATOM      9  C   UNL     1       3.772   5.781  17.668  0.00  0.00    +0.000 A 
BRANCH   4  11
ATOM     10  N   UNL     1       2.152   4.931  20.497  0.00  0.00    +0.000 NA
ATOM     11  C   UNL     1       2.911   4.447  19.562  0.00  0.00    +0.000 C 
BRANCH  10  12
ATOM     12  O   UNL     1       2.420   6.270  20.796  0.00  0.00    +0.000 OA
ATOM     13  H   UNL     1       3.058   6.189  21.537  0.00  0.00    +0.000 HD
ENDBRANCH  10  12
ENDBRANCH   4  11
ENDBRANCH   3   7
ENDBRANCH   1   3
BRANCH   2  14
ATOM     14  C   UNL     1       9.047  10.033  18.983  0.00  0.00    +0.000 C 
BRANCH  14  15
ATOM     15  N   UNL     1       9.591  11.290  18.419  0.00  0.00    +0.000 N 
ATOM     16  C   UNL     1      10.879  11.337  18.005  0.00  0.00    +0.000 A 
ATOM     17  C   UNL     1      11.406  12.493  17.449  0.00  0.00    +0.000 A 
ATOM     18  C   UNL     1      10.643  13.658  17.441  0.00  0.00    +0.000 A 
ATOM     19  C   UNL     1      11.180  14.865  16.982  0.00  0.00    +0.000 A 
ATOM     20  C   UNL     1      10.514  16.061  17.236  0.00  0.00    +0.000 A 
ATOM     21  C   UNL     1       9.257  16.048  17.837  0.00  0.00    +0.000 A 
ATOM     22  C   UNL     1       8.637  14.834  18.135  0.00  0.00    +0.000 A 
ATOM     23  C   UNL     1       9.339  13.630  17.974  0.00  0.00    +0.000 A 
ATOM     24  C   UNL     1       8.816  12.402  18.385  0.00  0.00    +0.000 A 
ENDBRANCH  14  15
ENDBRANCH   2  14
TORSDOF 6
ENDMDL
MODEL 9
REMARK VINA RESULT:      -7.3      6.446      9.746
REMARK  Name = 
REMARK  6 active torsions:
REMARK  status: ('A' for Active; 'I' for Inactive)
REMARK    1  A    between atoms: O_1  and  N_2
REMARK    2  A    between atoms: C_3  and  C_4
REMARK    3  A    between atoms: N_7  and  C_8
REMARK    4  A    between atoms: C_8  and  C_9
REMARK    5  A    between atoms: C_10  and  C_11
REMARK    6  A    between atoms: C_11  and  N_12
REMARK                            x       y       z     vdW  Elec       q    Type
REMARK                         _______ _______ _______ _____ _____    ______ ____
ROOT
ATOM      1  C   UNL     1       7.882   8.751  17.795  0.00  0.00    +0.000 C 
ATOM      2  C   UNL     1       7.489   7.466  17.669  0.00  0.00    +0.000 C 
ENDROOT
BRANCH   1   3
ATOM      3  C   UNL     1       8.799   9.284  18.875  0.00  0.00    +0.000 C 
BRANCH   3   7
ATOM      4  C   UNL     1       9.766  13.345  18.143  0.00  0.00    +0.000 A 
ATOM      5  C   UNL     1       8.662  12.768  17.537  0.00  0.00    +0.000 A 
ATOM      6  C   UNL     1       8.370  11.436  17.787  0.00  0.00    +0.000 A 
ATOM      7  N   UNL     1       9.165  10.695  18.594  0.00  0.00    +0.000 N 
ATOM      8  C   UNL     1      10.287  11.223  19.132  0.00  0.00    +0.000 A 
ATOM      9  C   UNL     1      10.623  12.556  18.909  0.00  0.00    +0.000 A 
BRANCH   4  11
ATOM     10  N   UNL     1      10.821  15.334  17.064  0.00  0.00    +0.000 NA
ATOM     11  C   UNL     1      10.079  14.778  17.971  0.00  0.00    +0.000 C 
BRANCH  10  12
ATOM     12  O   UNL     1      11.308  14.432  16.112  0.00  0.00    +0.000 OA
ATOM     13  H   UNL     1      10.645  13.711  16.157  0.00  0.00    +0.000 HD
ENDBRANCH  10  12
ENDBRANCH   4  11
ENDBRANCH   3   7
ENDBRANCH   1   3
BRANCH   2  14
ATOM     14  C   UNL     1       6.516   6.947  16.633  0.00  0.00    +0.000 C 
BRANCH  14  15
ATOM     15  N   UNL     1       5.322   6.385  17.306  0.00  0.00    +0.000 N 
ATOM     16  C   UNL     1       4.208   7.141  17.438  0.00  0.00    +0.000 A 
ATOM     17  C   UNL     1       3.067   6.631  18.039  0.00  0.00    +0.000 A 
ATOM     18  C   UNL     1       3.113   5.372  18.635  0.00  0.00    +0.000 A 
ATOM     19  C   UNL     1       2.014   4.870  19.338  0.00  0.00    +0.000 A 
ATOM     20  C   UNL     1       2.164   3.751  20.153  0.00  0.00    +0.000 A 
ATOM     21  C   UNL     1       3.372   3.059  20.174  0.00  0.00    +0.000 A 
ATOM     22  C   UNL     1       4.418   3.451  19.338  0.00  0.00    +0.000 A 
ATOM     23  C   UNL     1       4.311   4.632  18.588  0.00  0.00    +0.000 A 
ATOM     24  C   UNL     1       5.377   5.141  17.842  0.00  0.00    +0.000 A 
ENDBRANCH  14  15
ENDBRANCH   2  14
TORSDOF 6
ENDMDL
