MODEL 1
REMARK VINA RESULT:      -7.1      0.000      0.000
REMARK  Name = 
REMARK  4 active torsions:
REMARK  status: ('A' for Active; 'I' for Inactive)
REMARK    1  A    between atoms: C_1  and  C_2
REMARK    2  A    between atoms: C_11  and  O_12
REMARK    3  A    between atoms: C_15  and  C_16
REMARK    4  A    between atoms: C_20  and  C_21
REMARK                            x       y       z     vdW  Elec       q    Type
REMARK                         _______ _______ _______ _____ _____    ______ ____
ROOT
ATOM      1  C   UNL     1       6.481  13.976  22.470  0.00  0.00    +0.000 C 
ATOM      2  C   UNL     1       7.838  13.904  23.237  0.00  0.00    +0.000 C 
ATOM      3  C   UNL     1       8.875  15.008  22.910  0.00  0.00    +0.000 C 
ATOM      4  C   UNL     1       9.178  15.062  21.415  0.00  0.00    +0.000 C 
ATOM      5  C   UNL     1       9.705  13.713  20.878  0.00  0.00    +0.000 C 
ATOM      6  C   UNL     1       8.855  12.495  21.353  0.00  0.00    +0.000 C 
ATOM      7  C   UNL     1       9.579  11.195  20.988  0.00  0.00    +0.000 C 
ATOM      8  C   UNL     1      10.135  11.209  19.595  0.00  0.00    +0.000 C 
ATOM      9  C   UNL     1      10.279  12.309  18.833  0.00  0.00    +0.000 C 
ATOM     10  C   UNL     1      10.824  12.205  17.426  0.00  0.00    +0.000 C 
ATOM     11  C   UNL     1      11.970  13.187  17.169  0.00  0.00    +0.000 C 
ATOM     12  C   UNL     1      11.594  14.613  17.561  0.00  0.00    +0.000 C 
ATOM     13  C   UNL     1      11.114  14.678  19.007  0.00  0.00    +0.000 C 
ATOM     14  C   UNL     1       9.927  13.718  19.322  0.00  0.00    +0.000 C 
ATOM     15  C   UNL     1       8.662  14.202  18.571  0.00  0.00    +0.000 C 
ATOM     16  C   UNL     1       8.592  12.596  22.869  0.00  0.00    +0.000 C 
ATOM     17  C   UNL     1       7.791  11.506  23.564  0.00  0.00    +0.000 C 
ATOM     18  C   UNL     1       7.282  12.179  24.851  0.00  0.00    +0.000 C 
ATOM     19  C   UNL     1       7.595  13.696  24.761  0.00  0.00    +0.000 C 
ENDROOT
BRANCH  19  20
ATOM     20  C   UNL     1       6.493  14.564  25.443  0.00  0.00    +0.000 C 
ATOM     21  O   UNL     1       5.306  14.318  25.325  0.00  0.00    +0.000 OA
ATOM     22  N   UNL     1       6.917  15.669  26.186  0.00  0.00    +0.000 N 
ATOM     23  C   UNL     1       5.952  16.340  27.056  0.00  0.00    +0.000 C 
ATOM     24  C   UNL     1       5.743  17.797  26.640  0.00  0.00    +0.000 C 
ATOM     25  C   UNL     1       7.065  18.545  26.474  0.00  0.00    +0.000 C 
ATOM     26  C   UNL     1       7.979  17.784  25.527  0.00  0.00    +0.000 C 
ATOM     27  C   UNL     1       8.189  16.366  26.042  0.00  0.00    +0.000 C 
ENDBRANCH  19  20
BRANCH  11  28
ATOM     28  O   UNL     1      12.332  13.162  15.790  0.00  0.00    +0.000 OA
ATOM     29  H   UNL     1      11.565  12.838  15.287  0.00  0.00    +0.000 HD
ENDBRANCH  11  28
TORSDOF 2
ENDMDL
MODEL 2
REMARK VINA RESULT:      -6.8      8.740     10.297
REMARK  Name = 
REMARK  4 active torsions:
REMARK  status: ('A' for Active; 'I' for Inactive)
REMARK    1  A    between atoms: C_1  and  C_2
REMARK    2  A    between atoms: C_11  and  O_12
REMARK    3  A    between atoms: C_15  and  C_16
REMARK    4  A    between atoms: C_20  and  C_21
REMARK                            x       y       z     vdW  Elec       q    Type
REMARK                         _______ _______ _______ _____ _____    ______ ____
ROOT
ATOM      1  C   UNL     1      -0.340   9.098  18.760  0.00  0.00    +0.000 C 
ATOM      2  C   UNL     1       1.067   9.492  19.305  0.00  0.00    +0.000 C 
ATOM      3  C   UNL     1       2.254   9.352  18.318  0.00  0.00    +0.000 C 
ATOM      4  C   UNL     1       2.344   7.937  17.754  0.00  0.00    +0.000 C 
ATOM      5  C   UNL     1       2.496   6.874  18.864  0.00  0.00    +0.000 C 
ATOM      6  C   UNL     1       1.487   7.072  20.037  0.00  0.00    +0.000 C 
ATOM      7  C   UNL     1       1.863   6.143  21.195  0.00  0.00    +0.000 C 
ATOM      8  C   UNL     1       2.204   4.754  20.740  0.00  0.00    +0.000 C 
ATOM      9  C   UNL     1       2.464   4.401  19.468  0.00  0.00    +0.000 C 
ATOM     10  C   UNL     1       2.768   2.962  19.115  0.00  0.00    +0.000 C 
ATOM     11  C   UNL     1       4.045   2.822  18.281  0.00  0.00    +0.000 C 
ATOM     12  C   UNL     1       4.035   3.747  17.067  0.00  0.00    +0.000 C 
ATOM     13  C   UNL     1       3.792   5.194  17.481  0.00  0.00    +0.000 C 
ATOM     14  C   UNL     1       2.488   5.404  18.310  0.00  0.00    +0.000 C 
ATOM     15  C   UNL     1       1.258   5.146  17.405  0.00  0.00    +0.000 C 
ATOM     16  C   UNL     1       1.470   8.551  20.474  0.00  0.00    +0.000 C 
ATOM     17  C   UNL     1       0.567   8.983  21.619  0.00  0.00    +0.000 C 
ATOM     18  C   UNL     1       0.401  10.499  21.410  0.00  0.00    +0.000 C 
ATOM     19  C   UNL     1       1.008  10.868  20.031  0.00  0.00    +0.000 C 
ENDROOT
BRANCH  19  20
ATOM     20  C   UNL     1       0.220  12.021  19.334  0.00  0.00    +0.000 C 
ATOM     21  O   UNL     1      -0.520  11.823  18.387  0.00  0.00    +0.000 OA
ATOM     22  N   UNL     1       0.414  13.315  19.822  0.00  0.00    +0.000 N 
ATOM     23  C   UNL     1      -0.498  14.373  19.386  0.00  0.00    +0.000 C 
ATOM     24  C   UNL     1       0.246  15.479  18.637  0.00  0.00    +0.000 C 
ATOM     25  C   UNL     1       1.465  15.981  19.411  0.00  0.00    +0.000 C 
ATOM     26  C   UNL     1       2.362  14.812  19.785  0.00  0.00    +0.000 C 
ATOM     27  C   UNL     1       1.567  13.785  20.580  0.00  0.00    +0.000 C 
ENDBRANCH  19  20
BRANCH  11  28
ATOM     28  O   UNL     1       4.192   1.474  17.840  0.00  0.00    +0.000 OA
ATOM     29  H   UNL     1       4.522   0.950  18.591  0.00  0.00    +0.000 HD
ENDBRANCH  11  28
TORSDOF 2
ENDMDL
MODEL 3
REMARK VINA RESULT:      -6.8      9.146     12.811
REMARK  Name = 
REMARK  4 active torsions:
REMARK  status: ('A' for Active; 'I' for Inactive)
REMARK    1  A    between atoms: C_1  and  C_2
REMARK    2  A    between atoms: C_11  and  O_12
REMARK    3  A    between atoms: C_15  and  C_16
REMARK    4  A    between atoms: C_20  and  C_21
REMARK                            x       y       z     vdW  Elec       q    Type
REMARK                         _______ _______ _______ _____ _____    ______ ____
ROOT
ATOM      1  C   UNL     1       1.415  11.180  19.647  0.00  0.00    +0.000 C 
ATOM      2  C   UNL     1       0.329  10.061  19.706  0.00  0.00    +0.000 C 
ATOM      3  C   UNL     1      -0.928  10.272  18.825  0.00  0.00    +0.000 C 
ATOM      4  C   UNL     1      -1.605  11.606  19.131  0.00  0.00    +0.000 C 
ATOM      5  C   UNL     1      -2.015  11.725  20.614  0.00  0.00    +0.000 C 
ATOM      6  C   UNL     1      -0.879  11.302  21.596  0.00  0.00    +0.000 C 
ATOM      7  C   UNL     1      -1.441  11.211  23.018  0.00  0.00    +0.000 C 
ATOM      8  C   UNL     1      -2.326  12.371  23.369  0.00  0.00    +0.000 C 
ATOM      9  C   UNL     1      -2.842  13.243  22.484  0.00  0.00    +0.000 C 
ATOM     10  C   UNL     1      -3.701  14.397  22.951  0.00  0.00    +0.000 C 
ATOM     11  C   UNL     1      -5.023  14.489  22.185  0.00  0.00    +0.000 C 
ATOM     12  C   UNL     1      -4.807  14.478  20.675  0.00  0.00    +0.000 C 
ATOM     13  C   UNL     1      -3.995  13.261  20.245  0.00  0.00    +0.000 C 
ATOM     14  C   UNL     1      -2.621  13.130  20.972  0.00  0.00    +0.000 C 
ATOM     15  C   UNL     1      -1.689  14.280  20.520  0.00  0.00    +0.000 C 
ATOM     16  C   UNL     1      -0.261   9.964  21.140  0.00  0.00    +0.000 C 
ATOM     17  C   UNL     1       0.863   9.342  21.956  0.00  0.00    +0.000 C 
ATOM     18  C   UNL     1       1.559   8.391  20.966  0.00  0.00    +0.000 C 
ATOM     19  C   UNL     1       0.982   8.656  19.551  0.00  0.00    +0.000 C 
ENDROOT
BRANCH  19  20
ATOM     20  C   UNL     1       2.058   8.477  18.435  0.00  0.00    +0.000 C 
ATOM     21  O   UNL     1       2.140   9.233  17.484  0.00  0.00    +0.000 OA
ATOM     22  N   UNL     1       2.924   7.387  18.551  0.00  0.00    +0.000 N 
ATOM     23  C   UNL     1       4.106   7.338  17.691  0.00  0.00    +0.000 C 
ATOM     24  C   UNL     1       4.082   6.111  16.778  0.00  0.00    +0.000 C 
ATOM     25  C   UNL     1       3.815   4.821  17.553  0.00  0.00    +0.000 C 
ATOM     26  C   UNL     1       2.551   4.965  18.385  0.00  0.00    +0.000 C 
ATOM     27  C   UNL     1       2.677   6.168  19.310  0.00  0.00    +0.000 C 
ENDBRANCH  19  20
BRANCH  11  28
ATOM     28  O   UNL     1      -5.714  15.684  22.549  0.00  0.00    +0.000 OA
ATOM     29  H   UNL     1      -5.072  16.415  22.530  0.00  0.00    +0.000 HD
ENDBRANCH  11  28
TORSDOF 2
ENDMDL
MODEL 4
REMARK VINA RESULT:      -6.8      9.602     11.554
REMARK  Name = 
REMARK  4 active torsions:
REMARK  status: ('A' for Active; 'I' for Inactive)
REMARK    1  A    between atoms: C_1  and  C_2
REMARK    2  A    between atoms: C_11  and  O_12
REMARK    3  A    between atoms: C_15  and  C_16
REMARK    4  A    between atoms: C_20  and  C_21
REMARK                            x       y       z     vdW  Elec       q    Type
REMARK                         _______ _______ _______ _____ _____    ______ ____
ROOT
ATOM      1  C   UNL     1      -2.436  12.025  23.267  0.00  0.00    +0.000 C 
ATOM      2  C   UNL     1      -2.919  13.351  22.601  0.00  0.00    +0.000 C 
ATOM      3  C   UNL     1      -3.053  13.340  21.058  0.00  0.00    +0.000 C 
ATOM      4  C   UNL     1      -1.745  12.923  20.389  0.00  0.00    +0.000 C 
ATOM      5  C   UNL     1      -0.571  13.847  20.777  0.00  0.00    +0.000 C 
ATOM      6  C   UNL     1      -0.490  14.117  22.311  0.00  0.00    +0.000 C 
ATOM      7  C   UNL     1       0.533  15.224  22.582  0.00  0.00    +0.000 C 
ATOM      8  C   UNL     1       1.799  15.052  21.794  0.00  0.00    +0.000 C 
ATOM      9  C   UNL     1       1.947  14.226  20.742  0.00  0.00    +0.000 C 
ATOM     10  C   UNL     1       3.280  14.108  20.037  0.00  0.00    +0.000 C 
ATOM     11  C   UNL     1       3.155  14.273  18.520  0.00  0.00    +0.000 C 
ATOM     12  C   UNL     1       2.086  13.355  17.935  0.00  0.00    +0.000 C 
ATOM     13  C   UNL     1       0.745  13.559  18.632  0.00  0.00    +0.000 C 
ATOM     14  C   UNL     1       0.803  13.375  20.180  0.00  0.00    +0.000 C 
ATOM     15  C   UNL     1       1.084  11.888  20.510  0.00  0.00    +0.000 C 
ATOM     16  C   UNL     1      -1.886  14.483  22.856  0.00  0.00    +0.000 C 
ATOM     17  C   UNL     1      -2.052  14.804  24.333  0.00  0.00    +0.000 C 
ATOM     18  C   UNL     1      -3.552  14.579  24.597  0.00  0.00    +0.000 C 
ATOM     19  C   UNL     1      -4.170  13.910  23.341  0.00  0.00    +0.000 C 
ENDROOT
BRANCH  19  20
ATOM     20  C   UNL     1      -5.303  12.903  23.711  0.00  0.00    +0.000 C 
ATOM     21  O   UNL     1      -5.241  12.187  24.694  0.00  0.00    +0.000 OA
ATOM     22  N   UNL     1      -6.398  12.827  22.847  0.00  0.00    +0.000 N 
ATOM     23  C   UNL     1      -7.592  12.109  23.292  0.00  0.00    +0.000 C 
ATOM     24  C   UNL     1      -7.899  10.919  22.382  0.00  0.00    +0.000 C 
ATOM     25  C   UNL     1      -7.916  11.310  20.905  0.00  0.00    +0.000 C 
ATOM     26  C   UNL     1      -6.621  12.017  20.539  0.00  0.00    +0.000 C 
ATOM     27  C   UNL     1      -6.418  13.224  21.445  0.00  0.00    +0.000 C 
ENDBRANCH  19  20
BRANCH  11  28
ATOM     28  O   UNL     1       4.407  13.990  17.896  0.00  0.00    +0.000 OA
ATOM     29  H   UNL     1       4.655  14.766  17.364  0.00  0.00    +0.000 HD
ENDBRANCH  11  28
TORSDOF 2
ENDMDL
MODEL 5
REMARK VINA RESULT:      -6.7      1.442      2.178
REMARK  Name = 
REMARK  4 active torsions:
REMARK  status: ('A' for Active; 'I' for Inactive)
REMARK    1  A    between atoms: C_1  and  C_2
REMARK    2  A    between atoms: C_11  and  O_12
REMARK    3  A    between atoms: C_15  and  C_16
REMARK    4  A    between atoms: C_20  and  C_21
REMARK                            x       y       z     vdW  Elec       q    Type
REMARK                         _______ _______ _______ _____ _____    ______ ____
ROOT
ATOM      1  C   UNL     1       6.909  14.223  22.639  0.00  0.00    +0.000 C 
ATOM      2  C   UNL     1       8.267  13.888  23.331  0.00  0.00    +0.000 C 
ATOM      3  C   UNL     1       9.444  14.856  23.047  0.00  0.00    +0.000 C 
ATOM      4  C   UNL     1       9.698  14.999  21.548  0.00  0.00    +0.000 C 
ATOM      5  C   UNL     1      10.000  13.642  20.876  0.00  0.00    +0.000 C 
ATOM      6  C   UNL     1       8.997  12.522  21.288  0.00  0.00    +0.000 C 
ATOM      7  C   UNL     1       9.506  11.169  20.782  0.00  0.00    +0.000 C 
ATOM      8  C   UNL     1      10.008  11.228  19.369  0.00  0.00    +0.000 C 
ATOM      9  C   UNL     1      10.286  12.359  18.696  0.00  0.00    +0.000 C 
ATOM     10  C   UNL     1      10.759  12.304  17.260  0.00  0.00    +0.000 C 
ATOM     11  C   UNL     1      12.028  13.129  17.031  0.00  0.00    +0.000 C 
ATOM     12  C   UNL     1      11.881  14.554  17.558  0.00  0.00    +0.000 C 
ATOM     13  C   UNL     1      11.468  14.557  19.026  0.00  0.00    +0.000 C 
ATOM     14  C   UNL     1      10.164  13.754  19.317  0.00  0.00    +0.000 C 
ATOM     15  C   UNL     1       8.959  14.481  18.671  0.00  0.00    +0.000 C 
ATOM     16  C   UNL     1       8.805  12.524  22.819  0.00  0.00    +0.000 C 
ATOM     17  C   UNL     1       7.877  11.502  23.458  0.00  0.00    +0.000 C 
ATOM     18  C   UNL     1       7.520  12.124  24.820  0.00  0.00    +0.000 C 
ATOM     19  C   UNL     1       8.051  13.581  24.842  0.00  0.00    +0.000 C 
ENDROOT
BRANCH  19  20
ATOM     20  C   UNL     1       7.113  14.535  25.647  0.00  0.00    +0.000 C 
ATOM     21  O   UNL     1       7.410  15.693  25.882  0.00  0.00    +0.000 OA
ATOM     22  N   UNL     1       5.913  14.001  26.121  0.00  0.00    +0.000 N 
ATOM     23  C   UNL     1       4.894  14.916  26.634  0.00  0.00    +0.000 C 
ATOM     24  C   UNL     1       4.589  14.643  28.108  0.00  0.00    +0.000 C 
ATOM     25  C   UNL     1       4.297  13.167  28.372  0.00  0.00    +0.000 C 
ATOM     26  C   UNL     1       5.429  12.307  27.833  0.00  0.00    +0.000 C 
ATOM     27  C   UNL     1       5.629  12.590  26.351  0.00  0.00    +0.000 C 
ENDBRANCH  19  20
BRANCH  11  28
ATOM     28  O   UNL     1      12.333  13.176  15.638  0.00  0.00    +0.000 OA
ATOM     29  H   UNL     1      11.528  13.454  15.167  0.00  0.00    +0.000 HD
ENDBRANCH  11  28
TORSDOF 2
ENDMDL
MODEL 6
REMARK VINA RESULT:      -6.2      9.255     10.325
REMARK  Name = 
REMARK  4 active torsions:
REMARK  status: ('A' for Active; 'I' for Inactive)
REMARK    1  A    between atoms: C_1  and  C_2
REMARK    2  A    between atoms: C_11  and  O_12
REMARK    3  A    between atoms: C_15  and  C_16
REMARK    4  A    between atoms: C_20  and  C_21
REMARK                            x       y       z     vdW  Elec       q    Type
REMARK                         _______ _______ _______ _____ _____    ______ ____
ROOT
ATOM      1  C   UNL     1      -2.594  13.222  20.357  0.00  0.00    +0.000 C 
ATOM      2  C   UNL     1      -1.190  13.770  20.761  0.00  0.00    +0.000 C 
ATOM      3  C   UNL     1      -0.132  13.859  19.631  0.00  0.00    +0.000 C 
ATOM      4  C   UNL     1       0.065  12.509  18.947  0.00  0.00    +0.000 C 
ATOM      5  C   UNL     1       0.494  11.408  19.941  0.00  0.00    +0.000 C 
ATOM      6  C   UNL     1      -0.371  11.388  21.238  0.00  0.00    +0.000 C 
ATOM      7  C   UNL     1       0.268  10.447  22.264  0.00  0.00    +0.000 C 
ATOM      8  C   UNL     1       0.723   9.151  21.660  0.00  0.00    +0.000 C 
ATOM      9  C   UNL     1       0.860   8.920  20.341  0.00  0.00    +0.000 C 
ATOM     10  C   UNL     1       1.298   7.563  19.839  0.00  0.00    +0.000 C 
ATOM     11  C   UNL     1       2.464   7.654  18.851  0.00  0.00    +0.000 C 
ATOM     12  C   UNL     1       2.178   8.645  17.725  0.00  0.00    +0.000 C 
ATOM     13  C   UNL     1       1.806  10.016  18.281  0.00  0.00    +0.000 C 
ATOM     14  C   UNL     1       0.604   9.990  19.274  0.00  0.00    +0.000 C 
ATOM     15  C   UNL     1      -0.689   9.623  18.505  0.00  0.00    +0.000 C 
ATOM     16  C   UNL     1      -0.522  12.820  21.792  0.00  0.00    +0.000 C 
ATOM     17  C   UNL     1      -1.317  13.049  23.068  0.00  0.00    +0.000 C 
ATOM     18  C   UNL     1      -1.703  14.537  23.005  0.00  0.00    +0.000 C 
ATOM     19  C   UNL     1      -1.332  15.075  21.598  0.00  0.00    +0.000 C 
ENDROOT
BRANCH  19  20
ATOM     20  C   UNL     1      -2.345  16.151  21.096  0.00  0.00    +0.000 C 
ATOM     21  O   UNL     1      -3.543  16.059  21.294  0.00  0.00    +0.000 OA
ATOM     22  N   UNL     1      -1.828  17.229  20.374  0.00  0.00    +0.000 N 
ATOM     23  C   UNL     1      -2.690  18.384  20.125  0.00  0.00    +0.000 C 
ATOM     24  C   UNL     1      -2.905  18.608  18.628  0.00  0.00    +0.000 C 
ATOM     25  C   UNL     1      -1.588  18.629  17.853  0.00  0.00    +0.000 C 
ATOM     26  C   UNL     1      -0.785  17.374  18.154  0.00  0.00    +0.000 C 
ATOM     27  C   UNL     1      -0.560  17.254  19.655  0.00  0.00    +0.000 C 
ENDBRANCH  19  20
BRANCH  11  28
ATOM     28  O   UNL     1       2.726   6.370  18.286  0.00  0.00    +0.000 OA
ATOM     29  H   UNL     1       3.452   6.470  17.647  0.00  0.00    +0.000 HD
ENDBRANCH  11  28
TORSDOF 2
ENDMDL
MODEL 7
REMARK VINA RESULT:      -6.2     10.138     12.268
REMARK  Name = 
REMARK  4 active torsions:
REMARK  status: ('A' for Active; 'I' for Inactive)
REMARK    1  A    between atoms: C_1  and  C_2
REMARK    2  A    between atoms: C_11  and  O_12
REMARK    3  A    between atoms: C_15  and  C_16
REMARK    4  A    between atoms: C_20  and  C_21
REMARK                            x       y       z     vdW  Elec       q    Type
REMARK                         _______ _______ _______ _____ _____    ______ ____
ROOT
ATOM      1  C   UNL     1      -3.000  12.438  22.346  0.00  0.00    +0.000 C 
ATOM      2  C   UNL     1      -3.483  13.245  21.101  0.00  0.00    +0.000 C 
ATOM      3  C   UNL     1      -3.114  12.661  19.714  0.00  0.00    +0.000 C 
ATOM      4  C   UNL     1      -1.609  12.444  19.584  0.00  0.00    +0.000 C 
ATOM      5  C   UNL     1      -0.811  13.748  19.799  0.00  0.00    +0.000 C 
ATOM      6  C   UNL     1      -1.273  14.543  21.058  0.00  0.00    +0.000 C 
ATOM      7  C   UNL     1      -0.612  15.926  21.060  0.00  0.00    +0.000 C 
ATOM      8  C   UNL     1       0.847  15.873  20.714  0.00  0.00    +0.000 C 
ATOM      9  C   UNL     1       1.472  14.817  20.162  0.00  0.00    +0.000 C 
ATOM     10  C   UNL     1       2.957  14.861  19.882  0.00  0.00    +0.000 C 
ATOM     11  C   UNL     1       3.294  14.446  18.447  0.00  0.00    +0.000 C 
ATOM     12  C   UNL     1       2.655  13.109  18.079  0.00  0.00    +0.000 C 
ATOM     13  C   UNL     1       1.149  13.136  18.315  0.00  0.00    +0.000 C 
ATOM     14  C   UNL     1       0.745  13.526  19.770  0.00  0.00    +0.000 C 
ATOM     15  C   UNL     1       1.175  12.400  20.741  0.00  0.00    +0.000 C 
ATOM     16  C   UNL     1      -2.812  14.646  21.081  0.00  0.00    +0.000 C 
ATOM     17  C   UNL     1      -3.496  15.395  22.214  0.00  0.00    +0.000 C 
ATOM     18  C   UNL     1      -4.932  14.843  22.212  0.00  0.00    +0.000 C 
ATOM     19  C   UNL     1      -4.984  13.630  21.247  0.00  0.00    +0.000 C 
ENDROOT
BRANCH  19  20
ATOM     20  C   UNL     1      -5.969  12.526  21.745  0.00  0.00    +0.000 C 
ATOM     21  O   UNL     1      -6.061  12.218  22.919  0.00  0.00    +0.000 OA
ATOM     22  N   UNL     1      -6.737  11.871  20.778  0.00  0.00    +0.000 N 
ATOM     23  C   UNL     1      -7.854  11.037  21.219  0.00  0.00    +0.000 C 
ATOM     24  C   UNL     1      -7.662   9.579  20.800  0.00  0.00    +0.000 C 
ATOM     25  C   UNL     1      -7.325   9.445  19.316  0.00  0.00    +0.000 C 
ATOM     26  C   UNL     1      -6.133  10.322  18.970  0.00  0.00    +0.000 C 
ATOM     27  C   UNL     1      -6.425  11.765  19.358  0.00  0.00    +0.000 C 
ENDBRANCH  19  20
BRANCH  11  28
ATOM     28  O   UNL     1       4.708  14.346  18.288  0.00  0.00    +0.000 OA
ATOM     29  H   UNL     1       4.880  13.900  17.441  0.00  0.00    +0.000 HD
ENDBRANCH  11  28
TORSDOF 2
ENDMDL
MODEL 8
REMARK VINA RESULT:      -6.2      1.815      3.558
REMARK  Name = 
REMARK  4 active torsions:
REMARK  status: ('A' for Active; 'I' for Inactive)
REMARK    1  A    between atoms: C_1  and  C_2
REMARK    2  A    between atoms: C_11  and  O_12
REMARK    3  A    between atoms: C_15  and  C_16
REMARK    4  A    between atoms: C_20  and  C_21
REMARK                            x       y       z     vdW  Elec       q    Type
REMARK                         _______ _______ _______ _____ _____    ______ ____
ROOT
ATOM      1  C   UNL     1       8.069  15.340  24.022  0.00  0.00    +0.000 C 
ATOM      2  C   UNL     1       7.072  14.288  23.445  0.00  0.00    +0.000 C 
ATOM      3  C   UNL     1       7.629  12.859  23.221  0.00  0.00    +0.000 C 
ATOM      4  C   UNL     1       8.867  12.879  22.327  0.00  0.00    +0.000 C 
ATOM      5  C   UNL     1       8.584  13.521  20.952  0.00  0.00    +0.000 C 
ATOM      6  C   UNL     1       7.805  14.868  21.059  0.00  0.00    +0.000 C 
ATOM      7  C   UNL     1       7.352  15.308  19.663  0.00  0.00    +0.000 C 
ATOM      8  C   UNL     1       8.428  15.156  18.627  0.00  0.00    +0.000 C 
ATOM      9  C   UNL     1       9.557  14.442  18.787  0.00  0.00    +0.000 C 
ATOM     10  C   UNL     1      10.592  14.382  17.686  0.00  0.00    +0.000 C 
ATOM     11  C   UNL     1      11.007  12.946  17.353  0.00  0.00    +0.000 C 
ATOM     12  C   UNL     1      11.417  12.170  18.602  0.00  0.00    +0.000 C 
ATOM     13  C   UNL     1      10.315  12.204  19.656  0.00  0.00    +0.000 C 
ATOM     14  C   UNL     1       9.869  13.643  20.057  0.00  0.00    +0.000 C 
ATOM     15  C   UNL     1      11.023  14.346  20.814  0.00  0.00    +0.000 C 
ATOM     16  C   UNL     1       6.612  14.712  22.023  0.00  0.00    +0.000 C 
ATOM     17  C   UNL     1       5.692  15.897  22.275  0.00  0.00    +0.000 C 
ATOM     18  C   UNL     1       5.016  15.565  23.617  0.00  0.00    +0.000 C 
ATOM     19  C   UNL     1       5.724  14.326  24.224  0.00  0.00    +0.000 C 
ENDROOT
BRANCH  19  20
ATOM     20  C   UNL     1       5.791  14.392  25.782  0.00  0.00    +0.000 C 
ATOM     21  O   UNL     1       6.119  15.403  26.376  0.00  0.00    +0.000 OA
ATOM     22  N   UNL     1       5.482  13.226  26.485  0.00  0.00    +0.000 N 
ATOM     23  C   UNL     1       5.265  13.315  27.929  0.00  0.00    +0.000 C 
ATOM     24  C   UNL     1       6.283  12.472  28.700  0.00  0.00    +0.000 C 
ATOM     25  C   UNL     1       6.370  11.043  28.165  0.00  0.00    +0.000 C 
ATOM     26  C   UNL     1       6.630  11.062  26.667  0.00  0.00    +0.000 C 
ATOM     27  C   UNL     1       5.544  11.865  25.966  0.00  0.00    +0.000 C 
ENDBRANCH  19  20
BRANCH  11  28
ATOM     28  O   UNL     1      12.097  12.956  16.432  0.00  0.00    +0.000 OA
ATOM     29  H   UNL     1      11.891  12.322  15.723  0.00  0.00    +0.000 HD
ENDBRANCH  11  28
TORSDOF 2
ENDMDL
MODEL 9
REMARK VINA RESULT:      -6.0      1.648      3.684
REMARK  Name = 
REMARK  4 active torsions:
REMARK  status: ('A' for Active; 'I' for Inactive)
REMARK    1  A    between atoms: C_1  and  C_2
REMARK    2  A    between atoms: C_11  and  O_12
REMARK    3  A    between atoms: C_15  and  C_16
REMARK    4  A    between atoms: C_20  and  C_21
REMARK                            x       y       z     vdW  Elec       q    Type
REMARK                         _______ _______ _______ _____ _____    ______ ____
ROOT
ATOM      1  C   UNL     1       9.239  14.865  23.860  0.00  0.00    +0.000 C 
ATOM      2  C   UNL     1       7.911  14.776  23.047  0.00  0.00    +0.000 C 
ATOM      3  C   UNL     1       7.630  13.433  22.327  0.00  0.00    +0.000 C 
ATOM      4  C   UNL     1       8.779  13.048  21.399  0.00  0.00    +0.000 C 
ATOM      5  C   UNL     1       9.057  14.131  20.335  0.00  0.00    +0.000 C 
ATOM      6  C   UNL     1       9.124  15.569  20.933  0.00  0.00    +0.000 C 
ATOM      7  C   UNL     1       9.153  16.595  19.795  0.00  0.00    +0.000 C 
ATOM      8  C   UNL     1      10.092  16.210  18.689  0.00  0.00    +0.000 C 
ATOM      9  C   UNL     1      10.628  14.987  18.523  0.00  0.00    +0.000 C 
ATOM     10  C   UNL     1      11.590  14.716  17.388  0.00  0.00    +0.000 C 
ATOM     11  C   UNL     1      11.201  13.479  16.574  0.00  0.00    +0.000 C 
ATOM     12  C   UNL     1      10.971  12.262  17.467  0.00  0.00    +0.000 C 
ATOM     13  C   UNL     1       9.944  12.564  18.553  0.00  0.00    +0.000 C 
ATOM     14  C   UNL     1      10.302  13.800  19.435  0.00  0.00    +0.000 C 
ATOM     15  C   UNL     1      11.550  13.475  20.291  0.00  0.00    +0.000 C 
ATOM     16  C   UNL     1       7.929  15.802  21.880  0.00  0.00    +0.000 C 
ATOM     17  C   UNL     1       7.773  17.146  22.573  0.00  0.00    +0.000 C 
ATOM     18  C   UNL     1       6.868  16.841  23.780  0.00  0.00    +0.000 C 
ATOM     19  C   UNL     1       6.715  15.302  23.894  0.00  0.00    +0.000 C 
ENDROOT
BRANCH  19  20
ATOM     20  C   UNL     1       6.617  14.831  25.379  0.00  0.00    +0.000 C 
ATOM     21  O   UNL     1       7.162  15.429  26.288  0.00  0.00    +0.000 OA
ATOM     22  N   UNL     1       5.893  13.663  25.633  0.00  0.00    +0.000 N 
ATOM     23  C   UNL     1       5.548  13.340  27.017  0.00  0.00    +0.000 C 
ATOM     24  C   UNL     1       6.169  12.012  27.452  0.00  0.00    +0.000 C 
ATOM     25  C   UNL     1       5.885  10.889  26.456  0.00  0.00    +0.000 C 
ATOM     26  C   UNL     1       6.309  11.311  25.059  0.00  0.00    +0.000 C 
ATOM     27  C   UNL     1       5.603  12.604  24.674  0.00  0.00    +0.000 C 
ENDBRANCH  19  20
BRANCH  11  28
ATOM     28  O   UNL     1      12.225  13.177  15.628  0.00  0.00    +0.000 OA
ATOM     29  H   UNL     1      12.890  13.886  15.674  0.00  0.00    +0.000 HD
ENDBRANCH  11  28
TORSDOF 2
ENDMDL
