MODEL 1
REMARK VINA RESULT:      -8.7      0.000      0.000
REMARK  Name = 
REMARK  2 active torsions:
REMARK  status: ('A' for Active; 'I' for Inactive)
REMARK    1  A    between atoms: C_6  and  C_7
REMARK    2  A    between atoms: C_7  and  O_8
REMARK                            x       y       z     vdW  Elec       q    Type
REMARK                         _______ _______ _______ _____ _____    ______ ____
ROOT
ATOM      1  C   UNL     1       2.173   5.286  20.342  0.00  0.00    +0.000 C 
ATOM      2  C   UNL     1       1.679   6.714  20.455  0.00  0.00    +0.000 A 
ATOM      3  C   UNL     1       0.868   7.303  21.417  0.00  0.00    +0.000 A 
ATOM      4  C   UNL     1       0.462   8.628  21.227  0.00  0.00    +0.000 A 
ATOM      5  C   UNL     1       0.896   9.358  20.112  0.00  0.00    +0.000 A 
ATOM      6  C   UNL     1       1.759   8.782  19.178  0.00  0.00    +0.000 A 
ATOM      7  C   UNL     1       2.141   7.464  19.362  0.00  0.00    +0.000 A 
ATOM      8  N   UNL     1       2.988   6.680  18.564  0.00  0.00    +0.000 N 
ATOM      9  C   UNL     1       3.078   5.394  19.080  0.00  0.00    +0.000 A 
ATOM     10  N   UNL     1       3.801   4.441  18.577  0.00  0.00    +0.000 NA
ATOM     11  C   UNL     1       4.537   4.764  17.418  0.00  0.00    +0.000 A 
ATOM     12  C   UNL     1       5.340   3.773  16.845  0.00  0.00    +0.000 A 
ATOM     13  C   UNL     1       6.091   4.035  15.693  0.00  0.00    +0.000 A 
ATOM     14  C   UNL     1       6.052   5.297  15.102  0.00  0.00    +0.000 A 
ATOM     15  C   UNL     1       5.260   6.299  15.665  0.00  0.00    +0.000 A 
ATOM     16  C   UNL     1       4.505   6.029  16.814  0.00  0.00    +0.000 A 
ATOM     17  C   UNL     1       3.669   7.085  17.434  0.00  0.00    +0.000 A 
ATOM     18  O   UNL     1       3.653   8.207  16.937  0.00  0.00    +0.000 OA
ENDROOT
BRANCH   1  24
ATOM     19  O   UNL     1       1.526   2.806  22.040  0.00  0.00    +0.000 OA
ATOM     20  C   UNL     1       1.440   2.912  20.822  0.00  0.00    +0.000 C 
ATOM     21  C   UNL     1       1.665   1.763  19.879  0.00  0.00    +0.000 C 
ATOM     22  C   UNL     1       1.585   2.397  18.501  0.00  0.00    +0.000 C 
ATOM     23  C   UNL     1       0.878   3.734  18.673  0.00  0.00    +0.000 C 
ATOM     24  C   UNL     1       1.103   4.203  20.120  0.00  0.00    +0.000 C 
ENDBRANCH   1  24
BRANCH   1  25
ATOM     25  O   UNL     1       2.961   4.930  21.474  0.00  0.00    +0.000 OA
ATOM     26  H   UNL     1       3.849   4.680  21.175  0.00  0.00    +0.000 HD
ENDBRANCH   1  25
TORSDOF 2
ENDMDL
MODEL 2
REMARK VINA RESULT:      -8.4      3.103      6.501
REMARK  Name = 
REMARK  2 active torsions:
REMARK  status: ('A' for Active; 'I' for Inactive)
REMARK    1  A    between atoms: C_6  and  C_7
REMARK    2  A    between atoms: C_7  and  O_8
REMARK                            x       y       z     vdW  Elec       q    Type
REMARK                         _______ _______ _______ _____ _____    ______ ____
ROOT
ATOM      1  C   UNL     1       6.346   4.783  18.022  0.00  0.00    +0.000 C 
ATOM      2  C   UNL     1       6.310   4.616  16.517  0.00  0.00    +0.000 A 
ATOM      3  C   UNL     1       7.290   4.875  15.567  0.00  0.00    +0.000 A 
ATOM      4  C   UNL     1       6.960   4.742  14.214  0.00  0.00    +0.000 A 
ATOM      5  C   UNL     1       5.682   4.317  13.827  0.00  0.00    +0.000 A 
ATOM      6  C   UNL     1       4.718   4.000  14.785  0.00  0.00    +0.000 A 
ATOM      7  C   UNL     1       5.045   4.153  16.121  0.00  0.00    +0.000 A 
ATOM      8  N   UNL     1       4.249   3.903  17.250  0.00  0.00    +0.000 N 
ATOM      9  C   UNL     1       4.945   4.226  18.408  0.00  0.00    +0.000 A 
ATOM     10  N   UNL     1       4.485   4.087  19.613  0.00  0.00    +0.000 NA
ATOM     11  C   UNL     1       3.177   3.570  19.724  0.00  0.00    +0.000 A 
ATOM     12  C   UNL     1       2.641   3.391  21.004  0.00  0.00    +0.000 A 
ATOM     13  C   UNL     1       1.348   2.884  21.175  0.00  0.00    +0.000 A 
ATOM     14  C   UNL     1       0.575   2.542  20.067  0.00  0.00    +0.000 A 
ATOM     15  C   UNL     1       1.098   2.709  18.783  0.00  0.00    +0.000 A 
ATOM     16  C   UNL     1       2.390   3.224  18.617  0.00  0.00    +0.000 A 
ATOM     17  C   UNL     1       2.966   3.395  17.262  0.00  0.00    +0.000 A 
ATOM     18  O   UNL     1       2.303   3.068  16.282  0.00  0.00    +0.000 OA
ENDROOT
BRANCH   1  24
ATOM     19  O   UNL     1       4.623   7.264  17.448  0.00  0.00    +0.000 OA
ATOM     20  C   UNL     1       5.830   7.234  17.657  0.00  0.00    +0.000 C 
ATOM     21  C   UNL     1       6.797   8.206  17.039  0.00  0.00    +0.000 C 
ATOM     22  C   UNL     1       8.160   7.697  17.475  0.00  0.00    +0.000 C 
ATOM     23  C   UNL     1       7.925   6.774  18.663  0.00  0.00    +0.000 C 
ATOM     24  C   UNL     1       6.496   6.220  18.553  0.00  0.00    +0.000 C 
ENDBRANCH   1  24
BRANCH   1  25
ATOM     25  O   UNL     1       7.365   3.971  18.599  0.00  0.00    +0.000 OA
ATOM     26  H   UNL     1       7.398   3.124  18.127  0.00  0.00    +0.000 HD
ENDBRANCH   1  25
TORSDOF 2
ENDMDL
MODEL 3
REMARK VINA RESULT:      -7.7      3.403      6.857
REMARK  Name = 
REMARK  2 active torsions:
REMARK  status: ('A' for Active; 'I' for Inactive)
REMARK    1  A    between atoms: C_6  and  C_7
REMARK    2  A    between atoms: C_7  and  O_8
REMARK                            x       y       z     vdW  Elec       q    Type
REMARK                         _______ _______ _______ _____ _____    ______ ____
ROOT
ATOM      1  C   UNL     1       0.320  11.472  19.220  0.00  0.00    +0.000 C 
ATOM      2  C   UNL     1      -0.399  11.412  20.552  0.00  0.00    +0.000 A 
ATOM      3  C   UNL     1      -1.266  12.324  21.140  0.00  0.00    +0.000 A 
ATOM      4  C   UNL     1      -1.710  12.078  22.444  0.00  0.00    +0.000 A 
ATOM      5  C   UNL     1      -1.321  10.917  23.126  0.00  0.00    +0.000 A 
ATOM      6  C   UNL     1      -0.498   9.973  22.510  0.00  0.00    +0.000 A 
ATOM      7  C   UNL     1      -0.046  10.232  21.228  0.00  0.00    +0.000 A 
ATOM      8  N   UNL     1       0.783   9.442  20.417  0.00  0.00    +0.000 N 
ATOM      9  C   UNL     1       1.031  10.087  19.212  0.00  0.00    +0.000 A 
ATOM     10  N   UNL     1       1.747   9.603  18.245  0.00  0.00    +0.000 NA
ATOM     11  C   UNL     1       2.306   8.327  18.464  0.00  0.00    +0.000 A 
ATOM     12  C   UNL     1       3.078   7.758  17.445  0.00  0.00    +0.000 A 
ATOM     13  C   UNL     1       3.660   6.495  17.606  0.00  0.00    +0.000 A 
ATOM     14  C   UNL     1       3.472   5.781  18.788  0.00  0.00    +0.000 A 
ATOM     15  C   UNL     1       2.699   6.333  19.812  0.00  0.00    +0.000 A 
ATOM     16  C   UNL     1       2.126   7.600  19.649  0.00  0.00    +0.000 A 
ATOM     17  C   UNL     1       1.291   8.195  20.719  0.00  0.00    +0.000 A 
ATOM     18  O   UNL     1       1.095   7.560  21.751  0.00  0.00    +0.000 OA
ENDROOT
BRANCH   1  24
ATOM     19  O   UNL     1       2.299  12.621  21.274  0.00  0.00    +0.000 OA
ATOM     20  C   UNL     1       1.742  13.226  20.365  0.00  0.00    +0.000 C 
ATOM     21  C   UNL     1       1.363  14.678  20.454  0.00  0.00    +0.000 C 
ATOM     22  C   UNL     1       0.595  14.937  19.170  0.00  0.00    +0.000 C 
ATOM     23  C   UNL     1       0.948  13.809  18.211  0.00  0.00    +0.000 C 
ATOM     24  C   UNL     1       1.364  12.590  19.051  0.00  0.00    +0.000 C 
ENDBRANCH   1  24
BRANCH   1  25
ATOM     25  O   UNL     1      -0.611  11.545  18.143  0.00  0.00    +0.000 OA
ATOM     26  H   UNL     1      -0.180  11.962  17.381  0.00  0.00    +0.000 HD
ENDBRANCH   1  25
TORSDOF 2
ENDMDL
MODEL 4
REMARK VINA RESULT:      -7.6      4.390      7.974
REMARK  Name = 
REMARK  2 active torsions:
REMARK  status: ('A' for Active; 'I' for Inactive)
REMARK    1  A    between atoms: C_6  and  C_7
REMARK    2  A    between atoms: C_7  and  O_8
REMARK                            x       y       z     vdW  Elec       q    Type
REMARK                         _______ _______ _______ _____ _____    ______ ____
ROOT
ATOM      1  C   UNL     1      -0.562  12.624  19.500  0.00  0.00    +0.000 C 
ATOM      2  C   UNL     1      -1.269  12.608  20.840  0.00  0.00    +0.000 A 
ATOM      3  C   UNL     1      -2.130  13.540  21.405  0.00  0.00    +0.000 A 
ATOM      4  C   UNL     1      -2.562  13.339  22.720  0.00  0.00    +0.000 A 
ATOM      5  C   UNL     1      -2.168  12.201  23.437  0.00  0.00    +0.000 A 
ATOM      6  C   UNL     1      -1.351  11.236  22.846  0.00  0.00    +0.000 A 
ATOM      7  C   UNL     1      -0.911  11.452  21.552  0.00  0.00    +0.000 A 
ATOM      8  N   UNL     1      -0.089  10.635  20.760  0.00  0.00    +0.000 N 
ATOM      9  C   UNL     1       0.148  11.239  19.532  0.00  0.00    +0.000 A 
ATOM     10  N   UNL     1       0.855  10.723  18.575  0.00  0.00    +0.000 NA
ATOM     11  C   UNL     1       1.416   9.454  18.831  0.00  0.00    +0.000 A 
ATOM     12  C   UNL     1       2.179   8.851  17.825  0.00  0.00    +0.000 A 
ATOM     13  C   UNL     1       2.761   7.594  18.023  0.00  0.00    +0.000 A 
ATOM     14  C   UNL     1       2.584   6.919  19.229  0.00  0.00    +0.000 A 
ATOM     15  C   UNL     1       1.820   7.506  20.242  0.00  0.00    +0.000 A 
ATOM     16  C   UNL     1       1.246   8.767  20.041  0.00  0.00    +0.000 A 
ATOM     17  C   UNL     1       0.421   9.398  21.099  0.00  0.00    +0.000 A 
ATOM     18  O   UNL     1       0.234   8.797  22.153  0.00  0.00    +0.000 OA
ENDROOT
BRANCH   1  24
ATOM     19  O   UNL     1       1.897  13.349  21.199  0.00  0.00    +0.000 OA
ATOM     20  C   UNL     1       1.185  14.117  20.563  0.00  0.00    +0.000 C 
ATOM     21  C   UNL     1       0.923  15.536  20.984  0.00  0.00    +0.000 C 
ATOM     22  C   UNL     1      -0.100  16.036  19.979  0.00  0.00    +0.000 C 
ATOM     23  C   UNL     1      -0.042  15.092  18.786  0.00  0.00    +0.000 C 
ATOM     24  C   UNL     1       0.481  13.735  19.285  0.00  0.00    +0.000 C 
ENDBRANCH   1  24
BRANCH   1  25
ATOM     25  O   UNL     1      -1.502  12.661  18.430  0.00  0.00    +0.000 OA
ATOM     26  H   UNL     1      -1.309  13.426  17.866  0.00  0.00    +0.000 HD
ENDBRANCH   1  25
TORSDOF 2
ENDMDL
MODEL 5
REMARK VINA RESULT:      -7.6      5.535      9.748
REMARK  Name = 
REMARK  2 active torsions:
REMARK  status: ('A' for Active; 'I' for Inactive)
REMARK    1  A    between atoms: C_6  and  C_7
REMARK    2  A    between atoms: C_7  and  O_8
REMARK                            x       y       z     vdW  Elec       q    Type
REMARK                         _______ _______ _______ _____ _____    ______ ____
ROOT
ATOM      1  C   UNL     1      -1.761  11.280  18.354  0.00  0.00    +0.000 C 
ATOM      2  C   UNL     1      -0.525  10.472  18.690  0.00  0.00    +0.000 A 
ATOM      3  C   UNL     1       0.302   9.720  17.865  0.00  0.00    +0.000 A 
ATOM      4  C   UNL     1       1.325   8.968  18.450  0.00  0.00    +0.000 A 
ATOM      5  C   UNL     1       1.539   9.005  19.835  0.00  0.00    +0.000 A 
ATOM      6  C   UNL     1       0.745   9.808  20.655  0.00  0.00    +0.000 A 
ATOM      7  C   UNL     1      -0.279  10.534  20.072  0.00  0.00    +0.000 A 
ATOM      8  N   UNL     1      -1.198  11.398  20.686  0.00  0.00    +0.000 N 
ATOM      9  C   UNL     1      -2.091  11.896  19.745  0.00  0.00    +0.000 A 
ATOM     10  N   UNL     1      -3.046  12.736  20.000  0.00  0.00    +0.000 NA
ATOM     11  C   UNL     1      -3.166  13.153  21.342  0.00  0.00    +0.000 A 
ATOM     12  C   UNL     1      -4.175  14.067  21.665  0.00  0.00    +0.000 A 
ATOM     13  C   UNL     1      -4.342  14.515  22.980  0.00  0.00    +0.000 A 
ATOM     14  C   UNL     1      -3.498  14.060  23.990  0.00  0.00    +0.000 A 
ATOM     15  C   UNL     1      -2.481  13.152  23.683  0.00  0.00    +0.000 A 
ATOM     16  C   UNL     1      -2.323  12.700  22.367  0.00  0.00    +0.000 A 
ATOM     17  C   UNL     1      -1.241  11.748  22.020  0.00  0.00    +0.000 A 
ATOM     18  O   UNL     1      -0.474  11.366  22.898  0.00  0.00    +0.000 OA
ENDROOT
BRANCH   1  24
ATOM     19  O   UNL     1      -2.230  10.013  15.592  0.00  0.00    +0.000 OA
ATOM     20  C   UNL     1      -3.072  10.513  16.330  0.00  0.00    +0.000 C 
ATOM     21  C   UNL     1      -4.302  11.211  15.820  0.00  0.00    +0.000 C 
ATOM     22  C   UNL     1      -4.955  11.768  17.073  0.00  0.00    +0.000 C 
ATOM     23  C   UNL     1      -4.366  11.006  18.252  0.00  0.00    +0.000 C 
ATOM     24  C   UNL     1      -2.977  10.494  17.835  0.00  0.00    +0.000 C 
ENDBRANCH   1  24
BRANCH   1  25
ATOM     25  O   UNL     1      -1.452  12.318  17.426  0.00  0.00    +0.000 OA
ATOM     26  H   UNL     1      -0.888  12.974  17.863  0.00  0.00    +0.000 HD
ENDBRANCH   1  25
TORSDOF 2
ENDMDL
MODEL 6
REMARK VINA RESULT:      -7.0      6.753      9.789
REMARK  Name = 
REMARK  2 active torsions:
REMARK  status: ('A' for Active; 'I' for Inactive)
REMARK    1  A    between atoms: C_6  and  C_7
REMARK    2  A    between atoms: C_7  and  O_8
REMARK                            x       y       z     vdW  Elec       q    Type
REMARK                         _______ _______ _______ _____ _____    ______ ____
ROOT
ATOM      1  C   UNL     1      -3.966  13.258  20.537  0.00  0.00    +0.000 C 
ATOM      2  C   UNL     1      -5.177  12.923  19.692  0.00  0.00    +0.000 A 
ATOM      3  C   UNL     1      -6.468  13.434  19.739  0.00  0.00    +0.000 A 
ATOM      4  C   UNL     1      -7.442  12.865  18.912  0.00  0.00    +0.000 A 
ATOM      5  C   UNL     1      -7.114  11.831  18.025  0.00  0.00    +0.000 A 
ATOM      6  C   UNL     1      -5.803  11.361  17.936  0.00  0.00    +0.000 A 
ATOM      7  C   UNL     1      -4.849  11.913  18.772  0.00  0.00    +0.000 A 
ATOM      8  N   UNL     1      -3.483  11.604  18.864  0.00  0.00    +0.000 N 
ATOM      9  C   UNL     1      -2.886  12.364  19.863  0.00  0.00    +0.000 A 
ATOM     10  N   UNL     1      -1.627  12.320  20.176  0.00  0.00    +0.000 NA
ATOM     11  C   UNL     1      -0.832  11.422  19.433  0.00  0.00    +0.000 A 
ATOM     12  C   UNL     1       0.533  11.347  19.727  0.00  0.00    +0.000 A 
ATOM     13  C   UNL     1       1.371  10.473  19.025  0.00  0.00    +0.000 A 
ATOM     14  C   UNL     1       0.854   9.666  18.013  0.00  0.00    +0.000 A 
ATOM     15  C   UNL     1      -0.507   9.733  17.704  0.00  0.00    +0.000 A 
ATOM     16  C   UNL     1      -1.342  10.604  18.415  0.00  0.00    +0.000 A 
ATOM     17  C   UNL     1      -2.785  10.699  18.091  0.00  0.00    +0.000 A 
ATOM     18  O   UNL     1      -3.242  10.014  17.180  0.00  0.00    +0.000 OA
ENDROOT
BRANCH   1  24
ATOM     19  O   UNL     1      -5.366  14.793  22.804  0.00  0.00    +0.000 OA
ATOM     20  C   UNL     1      -4.336  14.134  22.883  0.00  0.00    +0.000 C 
ATOM     21  C   UNL     1      -3.220  14.464  23.835  0.00  0.00    +0.000 C 
ATOM     22  C   UNL     1      -2.127  13.471  23.479  0.00  0.00    +0.000 C 
ATOM     23  C   UNL     1      -2.792  12.347  22.696  0.00  0.00    +0.000 C 
ATOM     24  C   UNL     1      -4.057  12.919  22.035  0.00  0.00    +0.000 C 
ENDBRANCH   1  24
BRANCH   1  25
ATOM     25  O   UNL     1      -3.614  14.632  20.397  0.00  0.00    +0.000 OA
ATOM     26  H   UNL     1      -3.109  14.910  21.177  0.00  0.00    +0.000 HD
ENDBRANCH   1  25
TORSDOF 2
ENDMDL
MODEL 7
REMARK VINA RESULT:      -7.0      7.333     10.323
REMARK  Name = 
REMARK  2 active torsions:
REMARK  status: ('A' for Active; 'I' for Inactive)
REMARK    1  A    between atoms: C_6  and  C_7
REMARK    2  A    between atoms: C_7  and  O_8
REMARK                            x       y       z     vdW  Elec       q    Type
REMARK                         _______ _______ _______ _____ _____    ______ ____
ROOT
ATOM      1  C   UNL     1      -1.116  11.129  19.418  0.00  0.00    +0.000 C 
ATOM      2  C   UNL     1      -1.989  10.837  18.215  0.00  0.00    +0.000 A 
ATOM      3  C   UNL     1      -1.718  10.092  17.075  0.00  0.00    +0.000 A 
ATOM      4  C   UNL     1      -2.667  10.072  16.047  0.00  0.00    +0.000 A 
ATOM      5  C   UNL     1      -3.883  10.756  16.183  0.00  0.00    +0.000 A 
ATOM      6  C   UNL     1      -4.178  11.455  17.354  0.00  0.00    +0.000 A 
ATOM      7  C   UNL     1      -3.226  11.487  18.358  0.00  0.00    +0.000 A 
ATOM      8  N   UNL     1      -3.295  12.120  19.609  0.00  0.00    +0.000 N 
ATOM      9  C   UNL     1      -2.106  11.941  20.303  0.00  0.00    +0.000 A 
ATOM     10  N   UNL     1      -1.868  12.390  21.497  0.00  0.00    +0.000 NA
ATOM     11  C   UNL     1      -2.914  13.113  22.108  0.00  0.00    +0.000 A 
ATOM     12  C   UNL     1      -2.709  13.609  23.401  0.00  0.00    +0.000 A 
ATOM     13  C   UNL     1      -3.710  14.335  24.056  0.00  0.00    +0.000 A 
ATOM     14  C   UNL     1      -4.932  14.571  23.430  0.00  0.00    +0.000 A 
ATOM     15  C   UNL     1      -5.154  14.078  22.142  0.00  0.00    +0.000 A 
ATOM     16  C   UNL     1      -4.146  13.358  21.487  0.00  0.00    +0.000 A 
ATOM     17  C   UNL     1      -4.369  12.815  20.126  0.00  0.00    +0.000 A 
ATOM     18  O   UNL     1      -5.454  12.992  19.579  0.00  0.00    +0.000 OA
ENDROOT
BRANCH   1  24
ATOM     19  O   UNL     1       1.361  11.506  21.200  0.00  0.00    +0.000 OA
ATOM     20  C   UNL     1       0.864  12.329  20.441  0.00  0.00    +0.000 C 
ATOM     21  C   UNL     1       0.899  13.811  20.696  0.00  0.00    +0.000 C 
ATOM     22  C   UNL     1       0.056  14.397  19.577  0.00  0.00    +0.000 C 
ATOM     23  C   UNL     1      -0.038  13.332  18.493  0.00  0.00    +0.000 C 
ATOM     24  C   UNL     1       0.153  11.961  19.163  0.00  0.00    +0.000 C 
ENDBRANCH   1  24
BRANCH   1  25
ATOM     25  O   UNL     1      -0.749   9.923  20.083  0.00  0.00    +0.000 OA
ATOM     26  H   UNL     1       0.109  10.049  20.516  0.00  0.00    +0.000 HD
ENDBRANCH   1  25
TORSDOF 2
ENDMDL
MODEL 8
REMARK VINA RESULT:      -6.9      9.392     11.909
REMARK  Name = 
REMARK  2 active torsions:
REMARK  status: ('A' for Active; 'I' for Inactive)
REMARK    1  A    between atoms: C_6  and  C_7
REMARK    2  A    between atoms: C_7  and  O_8
REMARK                            x       y       z     vdW  Elec       q    Type
REMARK                         _______ _______ _______ _____ _____    ______ ____
ROOT
ATOM      1  C   UNL     1       9.079  15.249  18.885  0.00  0.00    +0.000 C 
ATOM      2  C   UNL     1      10.068  14.263  18.298  0.00  0.00    +0.000 A 
ATOM      3  C   UNL     1      10.917  14.395  17.206  0.00  0.00    +0.000 A 
ATOM      4  C   UNL     1      11.657  13.280  16.798  0.00  0.00    +0.000 A 
ATOM      5  C   UNL     1      11.575  12.070  17.500  0.00  0.00    +0.000 A 
ATOM      6  C   UNL     1      10.767  11.958  18.633  0.00  0.00    +0.000 A 
ATOM      7  C   UNL     1      10.022  13.059  19.018  0.00  0.00    +0.000 A 
ATOM      8  N   UNL     1       9.146  13.183  20.108  0.00  0.00    +0.000 N 
ATOM      9  C   UNL     1       8.566  14.445  20.115  0.00  0.00    +0.000 A 
ATOM     10  N   UNL     1       7.727  14.871  21.009  0.00  0.00    +0.000 NA
ATOM     11  C   UNL     1       7.395  13.961  22.034  0.00  0.00    +0.000 A 
ATOM     12  C   UNL     1       6.502  14.378  23.027  0.00  0.00    +0.000 A 
ATOM     13  C   UNL     1       6.134  13.518  24.068  0.00  0.00    +0.000 A 
ATOM     14  C   UNL     1       6.661  12.229  24.133  0.00  0.00    +0.000 A 
ATOM     15  C   UNL     1       7.558  11.800  23.153  0.00  0.00    +0.000 A 
ATOM     16  C   UNL     1       7.916  12.662  22.109  0.00  0.00    +0.000 A 
ATOM     17  C   UNL     1       8.878  12.228  21.067  0.00  0.00    +0.000 A 
ATOM     18  O   UNL     1       9.370  11.105  21.135  0.00  0.00    +0.000 OA
ENDROOT
BRANCH   1  24
ATOM     19  O   UNL     1       7.591  17.933  18.695  0.00  0.00    +0.000 OA
ATOM     20  C   UNL     1       7.116  16.813  18.554  0.00  0.00    +0.000 C 
ATOM     21  C   UNL     1       5.702  16.465  18.926  0.00  0.00    +0.000 C 
ATOM     22  C   UNL     1       5.619  14.966  18.701  0.00  0.00    +0.000 C 
ATOM     23  C   UNL     1       6.786  14.592  17.797  0.00  0.00    +0.000 C 
ATOM     24  C   UNL     1       7.889  15.645  17.993  0.00  0.00    +0.000 C 
ENDBRANCH   1  24
BRANCH   1  25
ATOM     25  O   UNL     1       9.741  16.433  19.322  0.00  0.00    +0.000 OA
ATOM     26  H   UNL     1       9.784  17.061  18.585  0.00  0.00    +0.000 HD
ENDBRANCH   1  25
TORSDOF 2
ENDMDL
MODEL 9
REMARK VINA RESULT:      -6.9      9.688     12.421
REMARK  Name = 
REMARK  2 active torsions:
REMARK  status: ('A' for Active; 'I' for Inactive)
REMARK    1  A    between atoms: C_6  and  C_7
REMARK    2  A    between atoms: C_7  and  O_8
REMARK                            x       y       z     vdW  Elec       q    Type
REMARK                         _______ _______ _______ _____ _____    ______ ____
ROOT
ATOM      1  C   UNL     1       9.003  13.900  18.208  0.00  0.00    +0.000 C 
ATOM      2  C   UNL     1      10.109  14.861  17.825  0.00  0.00    +0.000 A 
ATOM      3  C   UNL     1      11.320  14.619  17.188  0.00  0.00    +0.000 A 
ATOM      4  C   UNL     1      12.226  15.677  17.051  0.00  0.00    +0.000 A 
ATOM      5  C   UNL     1      11.901  16.961  17.509  0.00  0.00    +0.000 A 
ATOM      6  C   UNL     1      10.659  17.215  18.094  0.00  0.00    +0.000 A 
ATOM      7  C   UNL     1       9.777  16.159  18.245  0.00  0.00    +0.000 A 
ATOM      8  N   UNL     1       8.488  16.170  18.800  0.00  0.00    +0.000 N 
ATOM      9  C   UNL     1       7.954  14.887  18.798  0.00  0.00    +0.000 A 
ATOM     10  N   UNL     1       6.771  14.576  19.228  0.00  0.00    +0.000 NA
ATOM     11  C   UNL     1       5.993  15.638  19.733  0.00  0.00    +0.000 A 
ATOM     12  C   UNL     1       4.704  15.353  20.199  0.00  0.00    +0.000 A 
ATOM     13  C   UNL     1       3.888  16.367  20.713  0.00  0.00    +0.000 A 
ATOM     14  C   UNL     1       4.346  17.682  20.762  0.00  0.00    +0.000 A 
ATOM     15  C   UNL     1       5.628  17.984  20.296  0.00  0.00    +0.000 A 
ATOM     16  C   UNL     1       6.444  16.964  19.790  0.00  0.00    +0.000 A 
ATOM     17  C   UNL     1       7.802  17.268  19.277  0.00  0.00    +0.000 A 
ATOM     18  O   UNL     1       8.202  18.429  19.289  0.00  0.00    +0.000 OA
ENDROOT
BRANCH   1  24
ATOM     19  O   UNL     1      10.403  14.218  20.927  0.00  0.00    +0.000 OA
ATOM     20  C   UNL     1      10.478  13.262  20.164  0.00  0.00    +0.000 C 
ATOM     21  C   UNL     1      11.707  12.406  20.036  0.00  0.00    +0.000 C 
ATOM     22  C   UNL     1      11.378  11.457  18.897  0.00  0.00    +0.000 C 
ATOM     23  C   UNL     1       9.865  11.480  18.729  0.00  0.00    +0.000 C 
ATOM     24  C   UNL     1       9.353  12.830  19.257  0.00  0.00    +0.000 C 
ENDBRANCH   1  24
BRANCH   1  25
ATOM     25  O   UNL     1       8.467  13.257  17.055  0.00  0.00    +0.000 OA
ATOM     26  H   UNL     1       9.176  13.133  16.405  0.00  0.00    +0.000 HD
ENDBRANCH   1  25
TORSDOF 2
ENDMDL
