MODEL 1
REMARK VINA RESULT:      -8.1      0.000      0.000
REMARK  Name = 
REMARK  2 active torsions:
REMARK  status: ('A' for Active; 'I' for Inactive)
REMARK    1  A    between atoms: N_2  and  C_4
REMARK    2  A    between atoms: C_8  and  C_9
REMARK                            x       y       z     vdW  Elec       q    Type
REMARK                         _______ _______ _______ _____ _____    ______ ____
ROOT
ATOM      1  C   UNL     1       3.305   6.255  18.309  0.00  0.00    +0.000 A 
ATOM      2  C   UNL     1       4.629   6.135  18.768  0.00  0.00    +0.000 A 
ATOM      3  C   UNL     1       5.144   4.875  19.039  0.00  0.00    +0.000 A 
ATOM      4  C   UNL     1       4.370   3.774  18.704  0.00  0.00    +0.000 A 
ATOM      5  C   UNL     1       3.442   3.923  17.684  0.00  0.00    +0.000 A 
ATOM      6  C   UNL     1       2.751   5.132  17.666  0.00  0.00    +0.000 A 
ATOM      7  S   UNL     1       2.656   2.344  17.388  0.00  0.00    +0.000 S 
ATOM      8  N   UNL     1       2.585   2.155  19.081  0.00  0.00    +0.000 N 
ATOM      9  C   UNL     1       1.206   2.150  19.572  0.00  0.00    +0.000 C 
ATOM     10  C   UNL     1       1.084   2.668  20.991  0.00  0.00    +0.000 C 
ATOM     11  C   UNL     1       2.409   2.684  21.740  0.00  0.00    +0.000 C 
ATOM     12  N   UNL     1       3.493   3.334  20.977  0.00  0.00    +0.000 NA
ATOM     13  C   UNL     1       3.508   3.011  19.718  0.00  0.00    +0.000 C 
ENDROOT
BRANCH   1  18
ATOM     14  C   UNL     1       1.274   8.823  20.263  0.00  0.00    +0.000 A 
ATOM     15  C   UNL     1       1.036   9.797  19.286  0.00  0.00    +0.000 A 
ATOM     16  C   UNL     1       1.562   9.627  18.011  0.00  0.00    +0.000 A 
ATOM     17  C   UNL     1       2.295   8.476  17.716  0.00  0.00    +0.000 A 
ATOM     18  C   UNL     1       2.507   7.448  18.668  0.00  0.00    +0.000 A 
ATOM     19  C   UNL     1       2.004   7.660  19.959  0.00  0.00    +0.000 A 
BRANCH  14  21
ATOM     20  O   UNL     1       1.481   9.448  22.483  0.00  0.00    +0.000 OA
ATOM     21  N   UNL     1       0.730   9.004  21.613  0.00  0.00    +0.000 N 
ATOM     22  O   UNL     1      -0.434   8.626  21.816  0.00  0.00    +0.000 OA
ENDBRANCH  14  21
ENDBRANCH   1  18
TORSDOF 2
ENDMDL
MODEL 2
REMARK VINA RESULT:      -7.5      5.506      7.129
REMARK  Name = 
REMARK  2 active torsions:
REMARK  status: ('A' for Active; 'I' for Inactive)
REMARK    1  A    between atoms: N_2  and  C_4
REMARK    2  A    between atoms: C_8  and  C_9
REMARK                            x       y       z     vdW  Elec       q    Type
REMARK                         _______ _______ _______ _____ _____    ______ ____
ROOT
ATOM      1  C   UNL     1       6.000   5.537  15.881  0.00  0.00    +0.000 A 
ATOM      2  C   UNL     1       5.157   6.659  15.970  0.00  0.00    +0.000 A 
ATOM      3  C   UNL     1       4.293   6.777  17.051  0.00  0.00    +0.000 A 
ATOM      4  C   UNL     1       4.406   5.848  18.074  0.00  0.00    +0.000 A 
ATOM      5  C   UNL     1       5.635   5.230  18.253  0.00  0.00    +0.000 A 
ATOM      6  C   UNL     1       6.309   4.878  17.087  0.00  0.00    +0.000 A 
ATOM      7  S   UNL     1       5.539   4.164  19.685  0.00  0.00    +0.000 S 
ATOM      8  N   UNL     1       4.003   3.683  19.121  0.00  0.00    +0.000 N 
ATOM      9  C   UNL     1       3.982   2.272  18.732  0.00  0.00    +0.000 C 
ATOM     10  C   UNL     1       2.967   1.976  17.646  0.00  0.00    +0.000 C 
ATOM     11  C   UNL     1       1.919   3.070  17.489  0.00  0.00    +0.000 C 
ATOM     12  N   UNL     1       2.509   4.419  17.380  0.00  0.00    +0.000 NA
ATOM     13  C   UNL     1       3.489   4.627  18.208  0.00  0.00    +0.000 C 
ENDROOT
BRANCH   1  18
ATOM     14  C   UNL     1       5.919   3.663  12.562  0.00  0.00    +0.000 A 
ATOM     15  C   UNL     1       7.132   4.058  11.985  0.00  0.00    +0.000 A 
ATOM     16  C   UNL     1       7.951   4.953  12.664  0.00  0.00    +0.000 A 
ATOM     17  C   UNL     1       7.566   5.421  13.922  0.00  0.00    +0.000 A 
ATOM     18  C   UNL     1       6.371   4.998  14.554  0.00  0.00    +0.000 A 
ATOM     19  C   UNL     1       5.540   4.129  13.833  0.00  0.00    +0.000 A 
BRANCH  14  21
ATOM     20  O   UNL     1       5.515   1.638  11.515  0.00  0.00    +0.000 OA
ATOM     21  N   UNL     1       5.047   2.729  11.844  0.00  0.00    +0.000 N 
ATOM     22  O   UNL     1       3.910   3.125  11.541  0.00  0.00    +0.000 OA
ENDBRANCH  14  21
ENDBRANCH   1  18
TORSDOF 2
ENDMDL
MODEL 3
REMARK VINA RESULT:      -6.9      2.397      3.798
REMARK  Name = 
REMARK  2 active torsions:
REMARK  status: ('A' for Active; 'I' for Inactive)
REMARK    1  A    between atoms: N_2  and  C_4
REMARK    2  A    between atoms: C_8  and  C_9
REMARK                            x       y       z     vdW  Elec       q    Type
REMARK                         _______ _______ _______ _____ _____    ______ ____
ROOT
ATOM      1  C   UNL     1       3.448   5.852  19.339  0.00  0.00    +0.000 A 
ATOM      2  C   UNL     1       2.847   4.582  19.309  0.00  0.00    +0.000 A 
ATOM      3  C   UNL     1       3.553   3.507  18.785  0.00  0.00    +0.000 A 
ATOM      4  C   UNL     1       4.883   3.709  18.448  0.00  0.00    +0.000 A 
ATOM      5  C   UNL     1       5.571   4.716  19.108  0.00  0.00    +0.000 A 
ATOM      6  C   UNL     1       4.856   5.889  19.334  0.00  0.00    +0.000 A 
ATOM      7  S   UNL     1       7.274   4.699  18.564  0.00  0.00    +0.000 S 
ATOM      8  N   UNL     1       6.680   4.464  16.983  0.00  0.00    +0.000 N 
ATOM      9  C   UNL     1       6.970   5.607  16.115  0.00  0.00    +0.000 C 
ATOM     10  C   UNL     1       5.948   5.782  15.010  0.00  0.00    +0.000 C 
ATOM     11  C   UNL     1       5.103   4.538  14.772  0.00  0.00    +0.000 C 
ATOM     12  N   UNL     1       4.525   3.989  16.014  0.00  0.00    +0.000 NA
ATOM     13  C   UNL     1       5.356   3.980  17.014  0.00  0.00    +0.000 C 
ENDROOT
BRANCH   1  18
ATOM     14  C   UNL     1       1.129   8.785  20.086  0.00  0.00    +0.000 A 
ATOM     15  C   UNL     1       1.087   9.435  18.847  0.00  0.00    +0.000 A 
ATOM     16  C   UNL     1       1.836   8.934  17.789  0.00  0.00    +0.000 A 
ATOM     17  C   UNL     1       2.594   7.775  17.968  0.00  0.00    +0.000 A 
ATOM     18  C   UNL     1       2.614   7.066  19.195  0.00  0.00    +0.000 A 
ATOM     19  C   UNL     1       1.886   7.613  20.261  0.00  0.00    +0.000 A 
BRANCH  14  21
ATOM     20  O   UNL     1      -0.503   8.589  21.717  0.00  0.00    +0.000 OA
ATOM     21  N   UNL     1       0.351   9.318  21.208  0.00  0.00    +0.000 N 
ATOM     22  O   UNL     1       0.545  10.501  21.529  0.00  0.00    +0.000 OA
ENDBRANCH  14  21
ENDBRANCH   1  18
TORSDOF 2
ENDMDL
MODEL 4
REMARK VINA RESULT:      -6.8      2.207      3.644
REMARK  Name = 
REMARK  2 active torsions:
REMARK  status: ('A' for Active; 'I' for Inactive)
REMARK    1  A    between atoms: N_2  and  C_4
REMARK    2  A    between atoms: C_8  and  C_9
REMARK                            x       y       z     vdW  Elec       q    Type
REMARK                         _______ _______ _______ _____ _____    ______ ____
ROOT
ATOM      1  C   UNL     1       2.481   6.020  18.930  0.00  0.00    +0.000 A 
ATOM      2  C   UNL     1       1.834   5.109  18.076  0.00  0.00    +0.000 A 
ATOM      3  C   UNL     1       2.563   4.072  17.509  0.00  0.00    +0.000 A 
ATOM      4  C   UNL     1       3.872   3.897  17.929  0.00  0.00    +0.000 A 
ATOM      5  C   UNL     1       4.211   4.351  19.195  0.00  0.00    +0.000 A 
ATOM      6  C   UNL     1       3.651   5.569  19.570  0.00  0.00    +0.000 A 
ATOM      7  S   UNL     1       5.914   3.917  19.524  0.00  0.00    +0.000 S 
ATOM      8  N   UNL     1       6.259   4.396  17.924  0.00  0.00    +0.000 N 
ATOM      9  C   UNL     1       7.124   5.576  17.883  0.00  0.00    +0.000 C 
ATOM     10  C   UNL     1       6.909   6.422  16.644  0.00  0.00    +0.000 C 
ATOM     11  C   UNL     1       6.178   5.682  15.532  0.00  0.00    +0.000 C 
ATOM     12  N   UNL     1       4.948   5.014  15.999  0.00  0.00    +0.000 NA
ATOM     13  C   UNL     1       5.085   4.413  17.144  0.00  0.00    +0.000 C 
ENDROOT
BRANCH   1  18
ATOM     14  C   UNL     1       1.138   9.369  20.161  0.00  0.00    +0.000 A 
ATOM     15  C   UNL     1       1.246  10.157  19.009  0.00  0.00    +0.000 A 
ATOM     16  C   UNL     1       1.782   9.605  17.852  0.00  0.00    +0.000 A 
ATOM     17  C   UNL     1       2.178   8.266  17.847  0.00  0.00    +0.000 A 
ATOM     18  C   UNL     1       2.031   7.429  18.981  0.00  0.00    +0.000 A 
ATOM     19  C   UNL     1       1.527   8.018  20.149  0.00  0.00    +0.000 A 
BRANCH  14  21
ATOM     20  O   UNL     1       0.872  11.120  21.652  0.00  0.00    +0.000 OA
ATOM     21  N   UNL     1       0.584   9.952  21.387  0.00  0.00    +0.000 N 
ATOM     22  O   UNL     1      -0.080   9.208  22.125  0.00  0.00    +0.000 OA
ENDBRANCH  14  21
ENDBRANCH   1  18
TORSDOF 2
ENDMDL
MODEL 5
REMARK VINA RESULT:      -6.8      1.686      2.006
REMARK  Name = 
REMARK  2 active torsions:
REMARK  status: ('A' for Active; 'I' for Inactive)
REMARK    1  A    between atoms: N_2  and  C_4
REMARK    2  A    between atoms: C_8  and  C_9
REMARK                            x       y       z     vdW  Elec       q    Type
REMARK                         _______ _______ _______ _____ _____    ______ ____
ROOT
ATOM      1  C   UNL     1       2.908   6.646  18.696  0.00  0.00    +0.000 A 
ATOM      2  C   UNL     1       4.289   6.542  18.939  0.00  0.00    +0.000 A 
ATOM      3  C   UNL     1       4.891   5.291  18.921  0.00  0.00    +0.000 A 
ATOM      4  C   UNL     1       4.123   4.209  18.518  0.00  0.00    +0.000 A 
ATOM      5  C   UNL     1       3.049   4.457  17.676  0.00  0.00    +0.000 A 
ATOM      6  C   UNL     1       2.313   5.605  17.958  0.00  0.00    +0.000 A 
ATOM      7  S   UNL     1       2.295   2.897  17.233  0.00  0.00    +0.000 S 
ATOM      8  N   UNL     1       2.485   2.437  18.864  0.00  0.00    +0.000 N 
ATOM      9  C   UNL     1       1.195   2.262  19.534  0.00  0.00    +0.000 C 
ATOM     10  C   UNL     1       1.263   2.538  21.023  0.00  0.00    +0.000 C 
ATOM     11  C   UNL     1       2.683   2.522  21.572  0.00  0.00    +0.000 C 
ATOM     12  N   UNL     1       3.613   3.355  20.785  0.00  0.00    +0.000 NA
ATOM     13  C   UNL     1       3.454   3.239  19.500  0.00  0.00    +0.000 C 
ENDROOT
BRANCH   1  18
ATOM     14  C   UNL     1       0.949   9.851  19.349  0.00  0.00    +0.000 A 
ATOM     15  C   UNL     1       0.561   9.678  20.683  0.00  0.00    +0.000 A 
ATOM     16  C   UNL     1       0.911   8.510  21.349  0.00  0.00    +0.000 A 
ATOM     17  C   UNL     1       1.668   7.540  20.689  0.00  0.00    +0.000 A 
ATOM     18  C   UNL     1       2.122   7.711  19.357  0.00  0.00    +0.000 A 
ATOM     19  C   UNL     1       1.721   8.877  18.690  0.00  0.00    +0.000 A 
BRANCH  14  21
ATOM     20  O   UNL     1       1.431  11.947  18.490  0.00  0.00    +0.000 OA
ATOM     21  N   UNL     1       0.571  11.077  18.639  0.00  0.00    +0.000 N 
ATOM     22  O   UNL     1      -0.616  11.198  18.298  0.00  0.00    +0.000 OA
ENDBRANCH  14  21
ENDBRANCH   1  18
TORSDOF 2
ENDMDL
MODEL 6
REMARK VINA RESULT:      -6.6      3.802      7.533
REMARK  Name = 
REMARK  2 active torsions:
REMARK  status: ('A' for Active; 'I' for Inactive)
REMARK    1  A    between atoms: N_2  and  C_4
REMARK    2  A    between atoms: C_8  and  C_9
REMARK                            x       y       z     vdW  Elec       q    Type
REMARK                         _______ _______ _______ _____ _____    ______ ____
ROOT
ATOM      1  C   UNL     1       0.790   8.960  20.051  0.00  0.00    +0.000 A 
ATOM      2  C   UNL     1       0.750   9.048  21.454  0.00  0.00    +0.000 A 
ATOM      3  C   UNL     1       0.343  10.234  22.050  0.00  0.00    +0.000 A 
ATOM      4  C   UNL     1      -0.149  11.236  21.227  0.00  0.00    +0.000 A 
ATOM      5  C   UNL     1      -0.705  10.861  20.013  0.00  0.00    +0.000 A 
ATOM      6  C   UNL     1      -0.044   9.840  19.336  0.00  0.00    +0.000 A 
ATOM      7  S   UNL     1      -1.345  12.319  19.200  0.00  0.00    +0.000 S 
ATOM      8  N   UNL     1       0.078  13.118  19.693  0.00  0.00    +0.000 N 
ATOM      9  C   UNL     1       0.914  13.498  18.552  0.00  0.00    +0.000 C 
ATOM     10  C   UNL     1       2.389  13.553  18.895  0.00  0.00    +0.000 C 
ATOM     11  C   UNL     1       2.655  13.622  20.392  0.00  0.00    +0.000 C 
ATOM     12  N   UNL     1       1.921  12.592  21.154  0.00  0.00    +0.000 NA
ATOM     13  C   UNL     1       0.693  12.430  20.759  0.00  0.00    +0.000 C 
ENDROOT
BRANCH   1  18
ATOM     14  C   UNL     1       3.142   6.070  19.243  0.00  0.00    +0.000 A 
ATOM     15  C   UNL     1       3.714   6.500  18.040  0.00  0.00    +0.000 A 
ATOM     16  C   UNL     1       3.310   7.709  17.486  0.00  0.00    +0.000 A 
ATOM     17  C   UNL     1       2.362   8.489  18.151  0.00  0.00    +0.000 A 
ATOM     18  C   UNL     1       1.804   8.105  19.396  0.00  0.00    +0.000 A 
ATOM     19  C   UNL     1       2.194   6.863  19.915  0.00  0.00    +0.000 A 
BRANCH  14  21
ATOM     20  O   UNL     1       4.608   4.287  19.424  0.00  0.00    +0.000 OA
ATOM     21  N   UNL     1       3.556   4.789  19.824  0.00  0.00    +0.000 N 
ATOM     22  O   UNL     1       2.782   4.249  20.630  0.00  0.00    +0.000 OA
ENDBRANCH  14  21
ENDBRANCH   1  18
TORSDOF 2
ENDMDL
MODEL 7
REMARK VINA RESULT:      -6.4      5.511      7.137
REMARK  Name = 
REMARK  2 active torsions:
REMARK  status: ('A' for Active; 'I' for Inactive)
REMARK    1  A    between atoms: N_2  and  C_4
REMARK    2  A    between atoms: C_8  and  C_9
REMARK                            x       y       z     vdW  Elec       q    Type
REMARK                         _______ _______ _______ _____ _____    ______ ____
ROOT
ATOM      1  C   UNL     1       6.801   5.034  16.190  0.00  0.00    +0.000 A 
ATOM      2  C   UNL     1       6.844   6.349  16.685  0.00  0.00    +0.000 A 
ATOM      3  C   UNL     1       6.143   6.664  17.841  0.00  0.00    +0.000 A 
ATOM      4  C   UNL     1       5.546   5.625  18.540  0.00  0.00    +0.000 A 
ATOM      5  C   UNL     1       6.090   4.357  18.401  0.00  0.00    +0.000 A 
ATOM      6  C   UNL     1       6.507   4.015  17.117  0.00  0.00    +0.000 A 
ATOM      7  S   UNL     1       5.205   3.232  19.472  0.00  0.00    +0.000 S 
ATOM      8  N   UNL     1       3.773   4.006  18.965  0.00  0.00    +0.000 N 
ATOM      9  C   UNL     1       2.911   3.108  18.195  0.00  0.00    +0.000 C 
ATOM     10  C   UNL     1       2.049   3.840  17.186  0.00  0.00    +0.000 C 
ATOM     11  C   UNL     1       1.941   5.333  17.461  0.00  0.00    +0.000 C 
ATOM     12  N   UNL     1       3.253   5.975  17.677  0.00  0.00    +0.000 NA
ATOM     13  C   UNL     1       4.058   5.275  18.419  0.00  0.00    +0.000 C 
ENDROOT
BRANCH   1  18
ATOM     14  C   UNL     1       6.095   3.755  12.668  0.00  0.00    +0.000 A 
ATOM     15  C   UNL     1       7.066   4.434  11.922  0.00  0.00    +0.000 A 
ATOM     16  C   UNL     1       7.921   5.322  12.562  0.00  0.00    +0.000 A 
ATOM     17  C   UNL     1       7.818   5.504  13.943  0.00  0.00    +0.000 A 
ATOM     18  C   UNL     1       6.881   4.792  14.732  0.00  0.00    +0.000 A 
ATOM     19  C   UNL     1       6.001   3.933  14.060  0.00  0.00    +0.000 A 
BRANCH  14  21
ATOM     20  O   UNL     1       5.632   1.737  11.632  0.00  0.00    +0.000 OA
ATOM     21  N   UNL     1       5.183   2.826  11.994  0.00  0.00    +0.000 N 
ATOM     22  O   UNL     1       4.032   3.224  11.758  0.00  0.00    +0.000 OA
ENDBRANCH  14  21
ENDBRANCH   1  18
TORSDOF 2
ENDMDL
MODEL 8
REMARK VINA RESULT:      -6.4      5.453      7.219
REMARK  Name = 
REMARK  2 active torsions:
REMARK  status: ('A' for Active; 'I' for Inactive)
REMARK    1  A    between atoms: N_2  and  C_4
REMARK    2  A    between atoms: C_8  and  C_9
REMARK                            x       y       z     vdW  Elec       q    Type
REMARK                         _______ _______ _______ _____ _____    ______ ____
ROOT
ATOM      1  C   UNL     1       6.593   4.248  16.445  0.00  0.00    +0.000 A 
ATOM      2  C   UNL     1       7.451   5.025  17.244  0.00  0.00    +0.000 A 
ATOM      3  C   UNL     1       6.996   5.505  18.465  0.00  0.00    +0.000 A 
ATOM      4  C   UNL     1       5.756   5.069  18.909  0.00  0.00    +0.000 A 
ATOM      5  C   UNL     1       5.297   3.844  18.448  0.00  0.00    +0.000 A 
ATOM      6  C   UNL     1       5.550   3.571  17.106  0.00  0.00    +0.000 A 
ATOM      7  S   UNL     1       3.738   3.479  19.242  0.00  0.00    +0.000 S 
ATOM      8  N   UNL     1       3.319   5.112  18.987  0.00  0.00    +0.000 N 
ATOM      9  C   UNL     1       2.202   5.249  18.050  0.00  0.00    +0.000 C 
ATOM     10  C   UNL     1       2.236   6.553  17.279  0.00  0.00    +0.000 C 
ATOM     11  C   UNL     1       3.139   7.601  17.913  0.00  0.00    +0.000 C 
ATOM     12  N   UNL     1       4.484   7.083  18.235  0.00  0.00    +0.000 NA
ATOM     13  C   UNL     1       4.471   5.893  18.757  0.00  0.00    +0.000 C 
ENDROOT
BRANCH   1  18
ATOM     14  C   UNL     1       6.006   3.660  12.724  0.00  0.00    +0.000 A 
ATOM     15  C   UNL     1       6.927   4.544  12.150  0.00  0.00    +0.000 A 
ATOM     16  C   UNL     1       7.708   5.345  12.974  0.00  0.00    +0.000 A 
ATOM     17  C   UNL     1       7.584   5.236  14.361  0.00  0.00    +0.000 A 
ATOM     18  C   UNL     1       6.700   4.313  14.971  0.00  0.00    +0.000 A 
ATOM     19  C   UNL     1       5.891   3.545  14.121  0.00  0.00    +0.000 A 
BRANCH  14  21
ATOM     20  O   UNL     1       5.633   1.745  11.478  0.00  0.00    +0.000 OA
ATOM     21  N   UNL     1       5.172   2.822  11.858  0.00  0.00    +0.000 N 
ATOM     22  O   UNL     1       4.078   3.283  11.497  0.00  0.00    +0.000 OA
ENDBRANCH  14  21
ENDBRANCH   1  18
TORSDOF 2
ENDMDL
MODEL 9
REMARK VINA RESULT:      -6.4      6.726      8.354
REMARK  Name = 
REMARK  2 active torsions:
REMARK  status: ('A' for Active; 'I' for Inactive)
REMARK    1  A    between atoms: N_2  and  C_4
REMARK    2  A    between atoms: C_8  and  C_9
REMARK                            x       y       z     vdW  Elec       q    Type
REMARK                         _______ _______ _______ _____ _____    ______ ____
ROOT
ATOM      1  C   UNL     1      -0.953  10.470  18.648  0.00  0.00    +0.000 A 
ATOM      2  C   UNL     1       0.260  11.133  18.393  0.00  0.00    +0.000 A 
ATOM      3  C   UNL     1       1.091  11.464  19.455  0.00  0.00    +0.000 A 
ATOM      4  C   UNL     1       0.751  10.992  20.714  0.00  0.00    +0.000 A 
ATOM      5  C   UNL     1      -0.015   9.839  20.787  0.00  0.00    +0.000 A 
ATOM      6  C   UNL     1      -1.033   9.729  19.843  0.00  0.00    +0.000 A 
ATOM      7  S   UNL     1      -0.225   9.396  22.506  0.00  0.00    +0.000 S 
ATOM      8  N   UNL     1      -0.484  11.053  22.815  0.00  0.00    +0.000 N 
ATOM      9  C   UNL     1      -1.851  11.316  23.267  0.00  0.00    +0.000 C 
ATOM     10  C   UNL     1      -2.336  12.705  22.901  0.00  0.00    +0.000 C 
ATOM     11  C   UNL     1      -1.206  13.657  22.535  0.00  0.00    +0.000 C 
ATOM     12  N   UNL     1      -0.274  13.088  21.542  0.00  0.00    +0.000 NA
ATOM     13  C   UNL     1       0.026  11.843  21.764  0.00  0.00    +0.000 C 
ENDROOT
BRANCH   1  18
ATOM     14  C   UNL     1      -3.340  10.469  15.675  0.00  0.00    +0.000 A 
ATOM     15  C   UNL     1      -4.434  11.174  16.191  0.00  0.00    +0.000 A 
ATOM     16  C   UNL     1      -4.401  11.616  17.508  0.00  0.00    +0.000 A 
ATOM     17  C   UNL     1      -3.267  11.377  18.287  0.00  0.00    +0.000 A 
ATOM     18  C   UNL     1      -2.123  10.714  17.777  0.00  0.00    +0.000 A 
ATOM     19  C   UNL     1      -2.196  10.239  16.459  0.00  0.00    +0.000 A 
BRANCH  14  21
ATOM     20  O   UNL     1      -2.303   9.803  13.715  0.00  0.00    +0.000 OA
ATOM     21  N   UNL     1      -3.377   9.991  14.290  0.00  0.00    +0.000 N 
ATOM     22  O   UNL     1      -4.490   9.877  13.753  0.00  0.00    +0.000 OA
ENDBRANCH  14  21
ENDBRANCH   1  18
TORSDOF 2
ENDMDL
