MODEL 1
REMARK VINA RESULT:      -8.0      0.000      0.000
REMARK  Name = 
REMARK  14 active torsions:
REMARK  status: ('A' for Active; 'I' for Inactive)
REMARK    1  A    between atoms: C_1  and  C_2
REMARK    2  A    between atoms: C_2  and  O_3
REMARK    3  A    between atoms: O_3  and  C_4
REMARK    4  A    between atoms: C_4  and  C_6
REMARK    5  A    between atoms: C_6  and  C_7
REMARK    6  A    between atoms: C_6  and  C_29
REMARK    7  A    between atoms: C_7  and  C_8
REMARK    8  A    between atoms: C_11  and  O_12
REMARK    9  A    between atoms: O_12  and  C_13
REMARK   10  A    between atoms: C_13  and  C_14
REMARK   11  A    between atoms: C_14  and  C_15
REMARK   12  A    between atoms: C_17  and  C_18
REMARK   13  A    between atoms: C_25  and  C_26
REMARK   14  A    between atoms: C_29  and  O_31
REMARK                            x       y       z     vdW  Elec       q    Type
REMARK                         _______ _______ _______ _____ _____    ______ ____
ROOT
ATOM      1  C   UNL     1       2.911   7.178  18.521  0.00  0.00    +0.000 A 
ATOM      2  C   UNL     1       2.665   8.220  17.628  0.00  0.00    +0.000 A 
ATOM      3  C   UNL     1       1.836   9.277  17.994  0.00  0.00    +0.000 A 
ATOM      4  C   UNL     1       1.200   9.300  19.238  0.00  0.00    +0.000 A 
ATOM      5  C   UNL     1       1.437   8.260  20.132  0.00  0.00    +0.000 A 
ATOM      6  C   UNL     1       2.292   7.203  19.779  0.00  0.00    +0.000 A 
ENDROOT
BRANCH   1   7
ATOM      7  C   UNL     1       3.809   6.033  18.120  0.00  0.00    +0.000 C 
BRANCH   7   8
ATOM      8  C   UNL     1       4.569   5.389  19.287  0.00  0.00    +0.000 C 
BRANCH   8   9
ATOM      9  C   UNL     1       6.050   5.496  19.025  0.00  0.00    +0.000 C 
ATOM     10  O   UNL     1       6.928   5.366  19.867  0.00  0.00    +0.000 OA
BRANCH   9  11
ATOM     11  O   UNL     1       6.258   5.805  17.714  0.00  0.00    +0.000 OA
BRANCH  11  13
ATOM     12  C   UNL     1       6.363   4.136  16.021  0.00  0.00    +0.000 C 
ATOM     13  C   UNL     1       7.171   4.941  17.022  0.00  0.00    +0.000 C 
ENDBRANCH  11  13
ENDBRANCH   9  11
ENDBRANCH   8   9
BRANCH   8  14
ATOM     14  C   UNL     1       4.194   3.939  19.459  0.00  0.00    +0.000 C 
ATOM     15  O   UNL     1       3.079   3.545  19.783  0.00  0.00    +0.000 OA
BRANCH  14  16
ATOM     16  O   UNL     1       5.201   3.067  19.221  0.00  0.00    +0.000 OA
ATOM     17  H   UNL     1       5.517   3.029  18.298  0.00  0.00    +0.000 HD
ENDBRANCH  14  16
ENDBRANCH   8  14
ENDBRANCH   7   8
ENDBRANCH   1   7
BRANCH   4  18
ATOM     18  O   UNL     1       0.329  10.289  19.650  0.00  0.00    +0.000 OA
BRANCH  18  19
ATOM     19  C   UNL     1      -0.377  10.913  18.571  0.00  0.00    +0.000 C 
BRANCH  19  20
ATOM     20  C   UNL     1      -1.101   9.927  17.663  0.00  0.00    +0.000 C 
BRANCH  20  21
ATOM     21  C   UNL     1      -2.460  10.458  17.347  0.00  0.00    +0.000 A 
ATOM     22  N   UNL     1      -3.216  11.092  18.313  0.00  0.00    +0.000 NA
ATOM     23  C   UNL     1      -4.306  11.482  17.677  0.00  0.00    +0.000 A 
ATOM     24  O   UNL     1      -4.306  11.172  16.343  0.00  0.00    +0.000 OA
ATOM     25  C   UNL     1      -3.123  10.524  16.137  0.00  0.00    +0.000 A 
ATOM     26  C   UNL     1      -2.832  10.106  14.755  0.00  0.00    +0.000 C 
BRANCH  23  27
ATOM     27  C   UNL     1      -5.481  12.196  18.176  0.00  0.00    +0.000 A 
ATOM     28  C   UNL     1      -5.692  12.328  19.556  0.00  0.00    +0.000 A 
ATOM     29  C   UNL     1      -6.816  12.998  20.047  0.00  0.00    +0.000 A 
ATOM     30  C   UNL     1      -7.747  13.543  19.164  0.00  0.00    +0.000 A 
ATOM     31  C   UNL     1      -7.552  13.422  17.790  0.00  0.00    +0.000 A 
ATOM     32  C   UNL     1      -6.426  12.755  17.300  0.00  0.00    +0.000 A 
ENDBRANCH  23  27
ENDBRANCH  20  21
ENDBRANCH  19  20
ENDBRANCH  18  19
ENDBRANCH   4  18
TORSDOF 12
ENDMDL
MODEL 2
REMARK VINA RESULT:      -7.9      4.312     10.832
REMARK  Name = 
REMARK  14 active torsions:
REMARK  status: ('A' for Active; 'I' for Inactive)
REMARK    1  A    between atoms: C_1  and  C_2
REMARK    2  A    between atoms: C_2  and  O_3
REMARK    3  A    between atoms: O_3  and  C_4
REMARK    4  A    between atoms: C_4  and  C_6
REMARK    5  A    between atoms: C_6  and  C_7
REMARK    6  A    between atoms: C_6  and  C_29
REMARK    7  A    between atoms: C_7  and  C_8
REMARK    8  A    between atoms: C_11  and  O_12
REMARK    9  A    between atoms: O_12  and  C_13
REMARK   10  A    between atoms: C_13  and  C_14
REMARK   11  A    between atoms: C_14  and  C_15
REMARK   12  A    between atoms: C_17  and  C_18
REMARK   13  A    between atoms: C_25  and  C_26
REMARK   14  A    between atoms: C_29  and  O_31
REMARK                            x       y       z     vdW  Elec       q    Type
REMARK                         _______ _______ _______ _____ _____    ______ ____
ROOT
ATOM      1  C   UNL     1       1.744   8.427  18.790  0.00  0.00    +0.000 A 
ATOM      2  C   UNL     1       1.619   8.004  20.113  0.00  0.00    +0.000 A 
ATOM      3  C   UNL     1       2.216   6.819  20.531  0.00  0.00    +0.000 A 
ATOM      4  C   UNL     1       2.915   6.005  19.634  0.00  0.00    +0.000 A 
ATOM      5  C   UNL     1       3.038   6.418  18.310  0.00  0.00    +0.000 A 
ATOM      6  C   UNL     1       2.459   7.626  17.888  0.00  0.00    +0.000 A 
ENDROOT
BRANCH   1   7
ATOM      7  C   UNL     1       1.094   9.712  18.341  0.00  0.00    +0.000 C 
BRANCH   7   8
ATOM      8  C   UNL     1       1.241  10.873  19.332  0.00  0.00    +0.000 C 
BRANCH   8   9
ATOM      9  C   UNL     1      -0.073  11.079  20.043  0.00  0.00    +0.000 C 
ATOM     10  O   UNL     1      -1.179  10.912  19.549  0.00  0.00    +0.000 OA
BRANCH   9  11
ATOM     11  O   UNL     1       0.162  11.524  21.310  0.00  0.00    +0.000 OA
BRANCH  11  13
ATOM     12  C   UNL     1      -0.322   9.776  22.849  0.00  0.00    +0.000 C 
ATOM     13  C   UNL     1      -0.797  11.105  22.291  0.00  0.00    +0.000 C 
ENDBRANCH  11  13
ENDBRANCH   9  11
ENDBRANCH   8   9
BRANCH   8  14
ATOM     14  C   UNL     1       1.640  12.149  18.637  0.00  0.00    +0.000 C 
ATOM     15  O   UNL     1       2.675  12.296  17.996  0.00  0.00    +0.000 OA
BRANCH  14  16
ATOM     16  O   UNL     1       0.749  13.160  18.763  0.00  0.00    +0.000 OA
ATOM     17  H   UNL     1       0.732  13.601  19.634  0.00  0.00    +0.000 HD
ENDBRANCH  14  16
ENDBRANCH   8  14
ENDBRANCH   7   8
ENDBRANCH   1   7
BRANCH   4  18
ATOM     18  O   UNL     1       3.491   4.795  19.965  0.00  0.00    +0.000 OA
BRANCH  18  19
ATOM     19  C   UNL     1       4.518   4.385  19.053  0.00  0.00    +0.000 C 
BRANCH  19  20
ATOM     20  C   UNL     1       5.830   5.140  19.230  0.00  0.00    +0.000 C 
BRANCH  20  21
ATOM     21  C   UNL     1       6.439   5.388  17.890  0.00  0.00    +0.000 A 
ATOM     22  N   UNL     1       6.085   4.620  16.798  0.00  0.00    +0.000 NA
ATOM     23  C   UNL     1       6.753   5.152  15.789  0.00  0.00    +0.000 A 
ATOM     24  O   UNL     1       7.502   6.243  16.140  0.00  0.00    +0.000 OA
ATOM     25  C   UNL     1       7.293   6.392  17.480  0.00  0.00    +0.000 A 
ATOM     26  C   UNL     1       7.956   7.537  18.128  0.00  0.00    +0.000 C 
BRANCH  23  27
ATOM     27  C   UNL     1       6.794   4.764  14.380  0.00  0.00    +0.000 A 
ATOM     28  C   UNL     1       5.894   3.809  13.886  0.00  0.00    +0.000 A 
ATOM     29  C   UNL     1       5.930   3.420  12.543  0.00  0.00    +0.000 A 
ATOM     30  C   UNL     1       6.867   3.980  11.678  0.00  0.00    +0.000 A 
ATOM     31  C   UNL     1       7.767   4.931  12.151  0.00  0.00    +0.000 A 
ATOM     32  C   UNL     1       7.729   5.322  13.493  0.00  0.00    +0.000 A 
ENDBRANCH  23  27
ENDBRANCH  20  21
ENDBRANCH  19  20
ENDBRANCH  18  19
ENDBRANCH   4  18
TORSDOF 12
ENDMDL
MODEL 3
REMARK VINA RESULT:      -7.9      4.134     11.100
REMARK  Name = 
REMARK  14 active torsions:
REMARK  status: ('A' for Active; 'I' for Inactive)
REMARK    1  A    between atoms: C_1  and  C_2
REMARK    2  A    between atoms: C_2  and  O_3
REMARK    3  A    between atoms: O_3  and  C_4
REMARK    4  A    between atoms: C_4  and  C_6
REMARK    5  A    between atoms: C_6  and  C_7
REMARK    6  A    between atoms: C_6  and  C_29
REMARK    7  A    between atoms: C_7  and  C_8
REMARK    8  A    between atoms: C_11  and  O_12
REMARK    9  A    between atoms: O_12  and  C_13
REMARK   10  A    between atoms: C_13  and  C_14
REMARK   11  A    between atoms: C_14  and  C_15
REMARK   12  A    between atoms: C_17  and  C_18
REMARK   13  A    between atoms: C_25  and  C_26
REMARK   14  A    between atoms: C_29  and  O_31
REMARK                            x       y       z     vdW  Elec       q    Type
REMARK                         _______ _______ _______ _____ _____    ______ ____
ROOT
ATOM      1  C   UNL     1       1.136   9.109  19.593  0.00  0.00    +0.000 A 
ATOM      2  C   UNL     1       1.476   8.032  20.411  0.00  0.00    +0.000 A 
ATOM      3  C   UNL     1       2.406   7.090  19.981  0.00  0.00    +0.000 A 
ATOM      4  C   UNL     1       2.986   7.173  18.712  0.00  0.00    +0.000 A 
ATOM      5  C   UNL     1       2.647   8.242  17.888  0.00  0.00    +0.000 A 
ATOM      6  C   UNL     1       1.729   9.211  18.326  0.00  0.00    +0.000 A 
ENDROOT
BRANCH   1   7
ATOM      7  C   UNL     1       0.128  10.128  20.063  0.00  0.00    +0.000 C 
BRANCH   7   8
ATOM      8  C   UNL     1       0.601  10.987  21.242  0.00  0.00    +0.000 C 
BRANCH   8   9
ATOM      9  C   UNL     1      -0.362  10.816  22.390  0.00  0.00    +0.000 C 
ATOM     10  O   UNL     1      -0.125  10.214  23.428  0.00  0.00    +0.000 OA
BRANCH   9  11
ATOM     11  O   UNL     1      -1.554  11.398  22.074  0.00  0.00    +0.000 OA
BRANCH  11  13
ATOM     12  C   UNL     1      -2.621  13.469  22.557  0.00  0.00    +0.000 C 
ATOM     13  C   UNL     1      -2.170  12.141  23.135  0.00  0.00    +0.000 C 
ENDBRANCH  11  13
ENDBRANCH   9  11
ENDBRANCH   8   9
BRANCH   8  14
ATOM     14  C   UNL     1       0.681  12.445  20.870  0.00  0.00    +0.000 C 
ATOM     15  O   UNL     1       1.302  13.290  21.506  0.00  0.00    +0.000 OA
BRANCH  14  16
ATOM     16  O   UNL     1       0.005  12.776  19.745  0.00  0.00    +0.000 OA
ATOM     17  H   UNL     1       0.323  13.574  19.282  0.00  0.00    +0.000 HD
ENDBRANCH  14  16
ENDBRANCH   8  14
ENDBRANCH   7   8
ENDBRANCH   1   7
BRANCH   4  18
ATOM     18  O   UNL     1       3.877   6.251  18.200  0.00  0.00    +0.000 OA
BRANCH  18  19
ATOM     19  C   UNL     1       4.355   5.317  19.176  0.00  0.00    +0.000 C 
BRANCH  19  20
ATOM     20  C   UNL     1       5.875   5.244  19.260  0.00  0.00    +0.000 C 
BRANCH  20  21
ATOM     21  C   UNL     1       6.452   5.453  17.898  0.00  0.00    +0.000 A 
ATOM     22  N   UNL     1       6.081   4.647  16.840  0.00  0.00    +0.000 NA
ATOM     23  C   UNL     1       6.721   5.150  15.800  0.00  0.00    +0.000 A 
ATOM     24  O   UNL     1       7.468   6.258  16.098  0.00  0.00    +0.000 OA
ATOM     25  C   UNL     1       7.288   6.450  17.436  0.00  0.00    +0.000 A 
ATOM     26  C   UNL     1       7.954   7.621  18.030  0.00  0.00    +0.000 C 
BRANCH  23  27
ATOM     27  C   UNL     1       6.734   4.716  14.404  0.00  0.00    +0.000 A 
ATOM     28  C   UNL     1       5.843   3.725  13.966  0.00  0.00    +0.000 A 
ATOM     29  C   UNL     1       5.853   3.292  12.636  0.00  0.00    +0.000 A 
ATOM     30  C   UNL     1       6.755   3.843  11.728  0.00  0.00    +0.000 A 
ATOM     31  C   UNL     1       7.646   4.828  12.145  0.00  0.00    +0.000 A 
ATOM     32  C   UNL     1       7.634   5.263  13.474  0.00  0.00    +0.000 A 
ENDBRANCH  23  27
ENDBRANCH  20  21
ENDBRANCH  19  20
ENDBRANCH  18  19
ENDBRANCH   4  18
TORSDOF 12
ENDMDL
MODEL 4
REMARK VINA RESULT:      -7.7      4.239     11.123
REMARK  Name = 
REMARK  14 active torsions:
REMARK  status: ('A' for Active; 'I' for Inactive)
REMARK    1  A    between atoms: C_1  and  C_2
REMARK    2  A    between atoms: C_2  and  O_3
REMARK    3  A    between atoms: O_3  and  C_4
REMARK    4  A    between atoms: C_4  and  C_6
REMARK    5  A    between atoms: C_6  and  C_7
REMARK    6  A    between atoms: C_6  and  C_29
REMARK    7  A    between atoms: C_7  and  C_8
REMARK    8  A    between atoms: C_11  and  O_12
REMARK    9  A    between atoms: O_12  and  C_13
REMARK   10  A    between atoms: C_13  and  C_14
REMARK   11  A    between atoms: C_14  and  C_15
REMARK   12  A    between atoms: C_17  and  C_18
REMARK   13  A    between atoms: C_25  and  C_26
REMARK   14  A    between atoms: C_29  and  O_31
REMARK                            x       y       z     vdW  Elec       q    Type
REMARK                         _______ _______ _______ _____ _____    ______ ____
ROOT
ATOM      1  C   UNL     1       1.054   9.447  19.426  0.00  0.00    +0.000 A 
ATOM      2  C   UNL     1       1.312   8.500  20.417  0.00  0.00    +0.000 A 
ATOM      3  C   UNL     1       2.055   7.361  20.122  0.00  0.00    +0.000 A 
ATOM      4  C   UNL     1       2.521   7.116  18.827  0.00  0.00    +0.000 A 
ATOM      5  C   UNL     1       2.262   8.055  17.832  0.00  0.00    +0.000 A 
ATOM      6  C   UNL     1       1.534   9.219  18.129  0.00  0.00    +0.000 A 
ENDROOT
BRANCH   1   7
ATOM      7  C   UNL     1       0.247  10.680  19.750  0.00  0.00    +0.000 C 
BRANCH   7   8
ATOM      8  C   UNL     1       1.090  11.935  20.011  0.00  0.00    +0.000 C 
BRANCH   8   9
ATOM      9  C   UNL     1       0.316  12.866  20.910  0.00  0.00    +0.000 C 
ATOM     10  O   UNL     1      -0.038  14.000  20.619  0.00  0.00    +0.000 OA
BRANCH   9  11
ATOM     11  O   UNL     1       0.111  12.265  22.116  0.00  0.00    +0.000 OA
BRANCH  11  13
ATOM     12  C   UNL     1      -2.072  11.716  22.888  0.00  0.00    +0.000 C 
ATOM     13  C   UNL     1      -0.992  12.782  22.875  0.00  0.00    +0.000 C 
ENDBRANCH  11  13
ENDBRANCH   9  11
ENDBRANCH   8   9
BRANCH   8  14
ATOM     14  C   UNL     1       1.434  12.649  18.729  0.00  0.00    +0.000 C 
ATOM     15  O   UNL     1       2.551  13.069  18.448  0.00  0.00    +0.000 OA
BRANCH  14  16
ATOM     16  O   UNL     1       0.397  12.799  17.873  0.00  0.00    +0.000 OA
ATOM     17  H   UNL     1      -0.427  13.147  18.265  0.00  0.00    +0.000 HD
ENDBRANCH  14  16
ENDBRANCH   8  14
ENDBRANCH   7   8
ENDBRANCH   1   7
BRANCH   4  18
ATOM     18  O   UNL     1       3.222   5.987  18.450  0.00  0.00    +0.000 OA
BRANCH  18  19
ATOM     19  C   UNL     1       4.086   5.485  19.476  0.00  0.00    +0.000 C 
BRANCH  19  20
ATOM     20  C   UNL     1       4.789   4.186  19.100  0.00  0.00    +0.000 C 
BRANCH  20  21
ATOM     21  C   UNL     1       5.742   4.449  17.981  0.00  0.00    +0.000 A 
ATOM     22  N   UNL     1       5.416   4.121  16.680  0.00  0.00    +0.000 NA
ATOM     23  C   UNL     1       6.441   4.548  15.964  0.00  0.00    +0.000 A 
ATOM     24  O   UNL     1       7.411   5.167  16.707  0.00  0.00    +0.000 OA
ATOM     25  C   UNL     1       6.957   5.106  17.992  0.00  0.00    +0.000 A 
ATOM     26  C   UNL     1       7.796   5.745  19.019  0.00  0.00    +0.000 C 
BRANCH  23  27
ATOM     27  C   UNL     1       6.677   4.474  14.523  0.00  0.00    +0.000 A 
ATOM     28  C   UNL     1       5.968   3.552  13.740  0.00  0.00    +0.000 A 
ATOM     29  C   UNL     1       6.192   3.462  12.362  0.00  0.00    +0.000 A 
ATOM     30  C   UNL     1       7.131   4.292  11.751  0.00  0.00    +0.000 A 
ATOM     31  C   UNL     1       7.843   5.214  12.513  0.00  0.00    +0.000 A 
ATOM     32  C   UNL     1       7.616   5.305  13.890  0.00  0.00    +0.000 A 
ENDBRANCH  23  27
ENDBRANCH  20  21
ENDBRANCH  19  20
ENDBRANCH  18  19
ENDBRANCH   4  18
TORSDOF 12
ENDMDL
MODEL 5
REMARK VINA RESULT:      -7.7      3.885     10.927
REMARK  Name = 
REMARK  14 active torsions:
REMARK  status: ('A' for Active; 'I' for Inactive)
REMARK    1  A    between atoms: C_1  and  C_2
REMARK    2  A    between atoms: C_2  and  O_3
REMARK    3  A    between atoms: O_3  and  C_4
REMARK    4  A    between atoms: C_4  and  C_6
REMARK    5  A    between atoms: C_6  and  C_7
REMARK    6  A    between atoms: C_6  and  C_29
REMARK    7  A    between atoms: C_7  and  C_8
REMARK    8  A    between atoms: C_11  and  O_12
REMARK    9  A    between atoms: O_12  and  C_13
REMARK   10  A    between atoms: C_13  and  C_14
REMARK   11  A    between atoms: C_14  and  C_15
REMARK   12  A    between atoms: C_17  and  C_18
REMARK   13  A    between atoms: C_25  and  C_26
REMARK   14  A    between atoms: C_29  and  O_31
REMARK                            x       y       z     vdW  Elec       q    Type
REMARK                         _______ _______ _______ _____ _____    ______ ____
ROOT
ATOM      1  C   UNL     1       1.092   9.144  19.411  0.00  0.00    +0.000 A 
ATOM      2  C   UNL     1       1.646   9.125  18.131  0.00  0.00    +0.000 A 
ATOM      3  C   UNL     1       2.490   8.088  17.746  0.00  0.00    +0.000 A 
ATOM      4  C   UNL     1       2.837   7.069  18.638  0.00  0.00    +0.000 A 
ATOM      5  C   UNL     1       2.293   7.084  19.919  0.00  0.00    +0.000 A 
ATOM      6  C   UNL     1       1.420   8.115  20.305  0.00  0.00    +0.000 A 
ENDROOT
BRANCH   1   7
ATOM      7  C   UNL     1       0.178  10.270  19.824  0.00  0.00    +0.000 C 
BRANCH   7   8
ATOM      8  C   UNL     1       0.352  11.556  19.006  0.00  0.00    +0.000 C 
BRANCH   8   9
ATOM      9  C   UNL     1       1.143  12.551  19.819  0.00  0.00    +0.000 C 
ATOM     10  O   UNL     1       1.631  12.335  20.919  0.00  0.00    +0.000 OA
BRANCH   9  11
ATOM     11  O   UNL     1       1.193  13.741  19.157  0.00  0.00    +0.000 OA
BRANCH  11  13
ATOM     12  C   UNL     1       2.457  15.748  18.971  0.00  0.00    +0.000 C 
ATOM     13  C   UNL     1       2.513  14.234  18.887  0.00  0.00    +0.000 C 
ENDBRANCH  11  13
ENDBRANCH   9  11
ENDBRANCH   8   9
BRANCH   8  14
ATOM     14  C   UNL     1      -0.977  12.160  18.632  0.00  0.00    +0.000 C 
ATOM     15  O   UNL     1      -2.004  12.038  19.290  0.00  0.00    +0.000 OA
BRANCH  14  16
ATOM     16  O   UNL     1      -0.965  12.877  17.484  0.00  0.00    +0.000 OA
ATOM     17  H   UNL     1      -0.717  12.381  16.680  0.00  0.00    +0.000 HD
ENDBRANCH  14  16
ENDBRANCH   8  14
ENDBRANCH   7   8
ENDBRANCH   1   7
BRANCH   4  18
ATOM     18  O   UNL     1       3.705   6.036  18.342  0.00  0.00    +0.000 OA
BRANCH  18  19
ATOM     19  C   UNL     1       4.507   5.629  19.458  0.00  0.00    +0.000 C 
BRANCH  19  20
ATOM     20  C   UNL     1       5.504   4.526  19.123  0.00  0.00    +0.000 C 
BRANCH  20  21
ATOM     21  C   UNL     1       6.196   4.862  17.843  0.00  0.00    +0.000 A 
ATOM     22  N   UNL     1       5.862   4.219  16.667  0.00  0.00    +0.000 NA
ATOM     23  C   UNL     1       6.609   4.803  15.747  0.00  0.00    +0.000 A 
ATOM     24  O   UNL     1       7.393   5.814  16.235  0.00  0.00    +0.000 OA
ATOM     25  C   UNL     1       7.121   5.851  17.572  0.00  0.00    +0.000 A 
ATOM     26  C   UNL     1       7.805   6.893  18.356  0.00  0.00    +0.000 C 
BRANCH  23  27
ATOM     27  C   UNL     1       6.706   4.545  14.311  0.00  0.00    +0.000 A 
ATOM     28  C   UNL     1       7.651   5.231  13.534  0.00  0.00    +0.000 A 
ATOM     29  C   UNL     1       7.747   5.002  12.158  0.00  0.00    +0.000 A 
ATOM     30  C   UNL     1       6.897   4.086  11.540  0.00  0.00    +0.000 A 
ATOM     31  C   UNL     1       5.954   3.395  12.297  0.00  0.00    +0.000 A 
ATOM     32  C   UNL     1       5.861   3.622  13.673  0.00  0.00    +0.000 A 
ENDBRANCH  23  27
ENDBRANCH  20  21
ENDBRANCH  19  20
ENDBRANCH  18  19
ENDBRANCH   4  18
TORSDOF 12
ENDMDL
MODEL 6
REMARK VINA RESULT:      -7.7      3.669      5.484
REMARK  Name = 
REMARK  14 active torsions:
REMARK  status: ('A' for Active; 'I' for Inactive)
REMARK    1  A    between atoms: C_1  and  C_2
REMARK    2  A    between atoms: C_2  and  O_3
REMARK    3  A    between atoms: O_3  and  C_4
REMARK    4  A    between atoms: C_4  and  C_6
REMARK    5  A    between atoms: C_6  and  C_7
REMARK    6  A    between atoms: C_6  and  C_29
REMARK    7  A    between atoms: C_7  and  C_8
REMARK    8  A    between atoms: C_11  and  O_12
REMARK    9  A    between atoms: O_12  and  C_13
REMARK   10  A    between atoms: C_13  and  C_14
REMARK   11  A    between atoms: C_14  and  C_15
REMARK   12  A    between atoms: C_17  and  C_18
REMARK   13  A    between atoms: C_25  and  C_26
REMARK   14  A    between atoms: C_29  and  O_31
REMARK                            x       y       z     vdW  Elec       q    Type
REMARK                         _______ _______ _______ _____ _____    ______ ____
ROOT
ATOM      1  C   UNL     1       3.628   6.191  18.217  0.00  0.00    +0.000 A 
ATOM      2  C   UNL     1       3.165   7.488  17.993  0.00  0.00    +0.000 A 
ATOM      3  C   UNL     1       2.263   8.073  18.877  0.00  0.00    +0.000 A 
ATOM      4  C   UNL     1       1.769   7.368  19.978  0.00  0.00    +0.000 A 
ATOM      5  C   UNL     1       2.223   6.072  20.204  0.00  0.00    +0.000 A 
ATOM      6  C   UNL     1       3.152   5.485  19.330  0.00  0.00    +0.000 A 
ENDROOT
BRANCH   1   7
ATOM      7  C   UNL     1       4.605   5.560  17.256  0.00  0.00    +0.000 C 
BRANCH   7   8
ATOM      8  C   UNL     1       6.077   5.713  17.661  0.00  0.00    +0.000 C 
BRANCH   8   9
ATOM      9  C   UNL     1       6.948   5.188  16.547  0.00  0.00    +0.000 C 
ATOM     10  O   UNL     1       7.907   4.442  16.691  0.00  0.00    +0.000 OA
BRANCH   9  11
ATOM     11  O   UNL     1       6.529   5.709  15.359  0.00  0.00    +0.000 OA
BRANCH  11  13
ATOM     12  C   UNL     1       5.723   3.983  13.934  0.00  0.00    +0.000 C 
ATOM     13  C   UNL     1       6.873   4.937  14.200  0.00  0.00    +0.000 C 
ENDBRANCH  11  13
ENDBRANCH   9  11
ENDBRANCH   8   9
BRANCH   8  14
ATOM     14  C   UNL     1       6.383   4.964  18.932  0.00  0.00    +0.000 C 
ATOM     15  O   UNL     1       6.933   5.456  19.911  0.00  0.00    +0.000 OA
BRANCH  14  16
ATOM     16  O   UNL     1       5.995   3.668  18.928  0.00  0.00    +0.000 OA
ATOM     17  H   UNL     1       6.060   3.211  18.068  0.00  0.00    +0.000 HD
ENDBRANCH  14  16
ENDBRANCH   8  14
ENDBRANCH   7   8
ENDBRANCH   1   7
BRANCH   4  18
ATOM     18  O   UNL     1       0.838   7.866  20.869  0.00  0.00    +0.000 OA
BRANCH  18  19
ATOM     19  C   UNL     1       1.334   8.948  21.666  0.00  0.00    +0.000 C 
BRANCH  19  20
ATOM     20  C   UNL     1       0.353  10.107  21.800  0.00  0.00    +0.000 C 
BRANCH  20  21
ATOM     21  C   UNL     1       0.638  11.116  20.736  0.00  0.00    +0.000 A 
ATOM     22  N   UNL     1       1.528  12.148  20.958  0.00  0.00    +0.000 NA
ATOM     23  C   UNL     1       1.584  12.791  19.805  0.00  0.00    +0.000 A 
ATOM     24  O   UNL     1       0.810  12.230  18.825  0.00  0.00    +0.000 OA
ATOM     25  C   UNL     1       0.213  11.158  19.423  0.00  0.00    +0.000 A 
ATOM     26  C   UNL     1      -0.659  10.330  18.573  0.00  0.00    +0.000 C 
BRANCH  23  27
ATOM     27  C   UNL     1       2.348  13.978  19.426  0.00  0.00    +0.000 A 
ATOM     28  C   UNL     1       2.728  14.174  18.091  0.00  0.00    +0.000 A 
ATOM     29  C   UNL     1       3.469  15.300  17.716  0.00  0.00    +0.000 A 
ATOM     30  C   UNL     1       3.842  16.242  18.673  0.00  0.00    +0.000 A 
ATOM     31  C   UNL     1       3.472  16.063  20.004  0.00  0.00    +0.000 A 
ATOM     32  C   UNL     1       2.728  14.940  20.376  0.00  0.00    +0.000 A 
ENDBRANCH  23  27
ENDBRANCH  20  21
ENDBRANCH  19  20
ENDBRANCH  18  19
ENDBRANCH   4  18
TORSDOF 12
ENDMDL
MODEL 7
REMARK VINA RESULT:      -7.6      4.421     10.888
REMARK  Name = 
REMARK  14 active torsions:
REMARK  status: ('A' for Active; 'I' for Inactive)
REMARK    1  A    between atoms: C_1  and  C_2
REMARK    2  A    between atoms: C_2  and  O_3
REMARK    3  A    between atoms: O_3  and  C_4
REMARK    4  A    between atoms: C_4  and  C_6
REMARK    5  A    between atoms: C_6  and  C_7
REMARK    6  A    between atoms: C_6  and  C_29
REMARK    7  A    between atoms: C_7  and  C_8
REMARK    8  A    between atoms: C_11  and  O_12
REMARK    9  A    between atoms: O_12  and  C_13
REMARK   10  A    between atoms: C_13  and  C_14
REMARK   11  A    between atoms: C_14  and  C_15
REMARK   12  A    between atoms: C_17  and  C_18
REMARK   13  A    between atoms: C_25  and  C_26
REMARK   14  A    between atoms: C_29  and  O_31
REMARK                            x       y       z     vdW  Elec       q    Type
REMARK                         _______ _______ _______ _____ _____    ______ ____
ROOT
ATOM      1  C   UNL     1       1.060   9.210  19.175  0.00  0.00    +0.000 A 
ATOM      2  C   UNL     1       1.653   9.186  17.913  0.00  0.00    +0.000 A 
ATOM      3  C   UNL     1       2.550   8.176  17.577  0.00  0.00    +0.000 A 
ATOM      4  C   UNL     1       2.910   7.192  18.502  0.00  0.00    +0.000 A 
ATOM      5  C   UNL     1       2.326   7.213  19.765  0.00  0.00    +0.000 A 
ATOM      6  C   UNL     1       1.401   8.215  20.102  0.00  0.00    +0.000 A 
ENDROOT
BRANCH   1   7
ATOM      7  C   UNL     1       0.090  10.307  19.535  0.00  0.00    +0.000 C 
BRANCH   7   8
ATOM      8  C   UNL     1       0.754  11.615  19.984  0.00  0.00    +0.000 C 
BRANCH   8   9
ATOM      9  C   UNL     1       0.058  12.116  21.225  0.00  0.00    +0.000 C 
ATOM     10  O   UNL     1       0.414  13.073  21.898  0.00  0.00    +0.000 OA
BRANCH   9  11
ATOM     11  O   UNL     1      -1.006  11.310  21.506  0.00  0.00    +0.000 OA
BRANCH  11  13
ATOM     12  C   UNL     1      -0.355   9.739  23.169  0.00  0.00    +0.000 C 
ATOM     13  C   UNL     1      -1.175  10.985  22.893  0.00  0.00    +0.000 C 
ENDBRANCH  11  13
ENDBRANCH   9  11
ENDBRANCH   8   9
BRANCH   8  14
ATOM     14  C   UNL     1       0.685  12.670  18.911  0.00  0.00    +0.000 C 
ATOM     15  O   UNL     1       1.585  12.905  18.111  0.00  0.00    +0.000 OA
BRANCH  14  16
ATOM     16  O   UNL     1      -0.475  13.365  18.879  0.00  0.00    +0.000 OA
ATOM     17  H   UNL     1      -0.579  13.978  18.127  0.00  0.00    +0.000 HD
ENDBRANCH  14  16
ENDBRANCH   8  14
ENDBRANCH   7   8
ENDBRANCH   1   7
BRANCH   4  18
ATOM     18  O   UNL     1       3.827   6.189  18.256  0.00  0.00    +0.000 OA
BRANCH  18  19
ATOM     19  C   UNL     1       4.402   5.638  19.448  0.00  0.00    +0.000 C 
BRANCH  19  20
ATOM     20  C   UNL     1       5.608   4.744  19.187  0.00  0.00    +0.000 C 
BRANCH  20  21
ATOM     21  C   UNL     1       6.183   5.074  17.849  0.00  0.00    +0.000 A 
ATOM     22  N   UNL     1       5.889   4.304  16.742  0.00  0.00    +0.000 NA
ATOM     23  C   UNL     1       6.501   4.914  15.742  0.00  0.00    +0.000 A 
ATOM     24  O   UNL     1       7.156   6.057  16.114  0.00  0.00    +0.000 OA
ATOM     25  C   UNL     1       6.945   6.158  17.458  0.00  0.00    +0.000 A 
ATOM     26  C   UNL     1       7.512   7.340  18.128  0.00  0.00    +0.000 C 
BRANCH  23  27
ATOM     27  C   UNL     1       6.565   4.563  14.324  0.00  0.00    +0.000 A 
ATOM     28  C   UNL     1       7.603   5.059  13.522  0.00  0.00    +0.000 A 
ATOM     29  C   UNL     1       7.670   4.741  12.162  0.00  0.00    +0.000 A 
ATOM     30  C   UNL     1       6.699   3.924  11.586  0.00  0.00    +0.000 A 
ATOM     31  C   UNL     1       5.662   3.422  12.368  0.00  0.00    +0.000 A 
ATOM     32  C   UNL     1       5.597   3.738  13.728  0.00  0.00    +0.000 A 
ENDBRANCH  23  27
ENDBRANCH  20  21
ENDBRANCH  19  20
ENDBRANCH  18  19
ENDBRANCH   4  18
TORSDOF 12
ENDMDL
MODEL 8
REMARK VINA RESULT:      -7.6      3.701      4.892
REMARK  Name = 
REMARK  14 active torsions:
REMARK  status: ('A' for Active; 'I' for Inactive)
REMARK    1  A    between atoms: C_1  and  C_2
REMARK    2  A    between atoms: C_2  and  O_3
REMARK    3  A    between atoms: O_3  and  C_4
REMARK    4  A    between atoms: C_4  and  C_6
REMARK    5  A    between atoms: C_6  and  C_7
REMARK    6  A    between atoms: C_6  and  C_29
REMARK    7  A    between atoms: C_7  and  C_8
REMARK    8  A    between atoms: C_11  and  O_12
REMARK    9  A    between atoms: O_12  and  C_13
REMARK   10  A    between atoms: C_13  and  C_14
REMARK   11  A    between atoms: C_14  and  C_15
REMARK   12  A    between atoms: C_17  and  C_18
REMARK   13  A    between atoms: C_25  and  C_26
REMARK   14  A    between atoms: C_29  and  O_31
REMARK                            x       y       z     vdW  Elec       q    Type
REMARK                         _______ _______ _______ _____ _____    ______ ____
ROOT
ATOM      1  C   UNL     1       3.948   5.306  17.537  0.00  0.00    +0.000 A 
ATOM      2  C   UNL     1       3.609   4.430  18.568  0.00  0.00    +0.000 A 
ATOM      3  C   UNL     1       2.846   4.874  19.644  0.00  0.00    +0.000 A 
ATOM      4  C   UNL     1       2.440   6.209  19.741  0.00  0.00    +0.000 A 
ATOM      5  C   UNL     1       2.780   7.090  18.718  0.00  0.00    +0.000 A 
ATOM      6  C   UNL     1       3.528   6.641  17.617  0.00  0.00    +0.000 A 
ENDROOT
BRANCH   1   7
ATOM      7  C   UNL     1       4.776   4.820  16.373  0.00  0.00    +0.000 C 
BRANCH   7   8
ATOM      8  C   UNL     1       6.106   5.562  16.192  0.00  0.00    +0.000 C 
BRANCH   8   9
ATOM      9  C   UNL     1       6.795   5.037  14.957  0.00  0.00    +0.000 C 
ATOM     10  O   UNL     1       7.908   5.368  14.574  0.00  0.00    +0.000 OA
BRANCH   9  11
ATOM     11  O   UNL     1       5.966   4.170  14.309  0.00  0.00    +0.000 OA
BRANCH  11  13
ATOM     12  C   UNL     1       5.133   3.265  12.273  0.00  0.00    +0.000 C 
ATOM     13  C   UNL     1       6.350   3.850  12.964  0.00  0.00    +0.000 C 
ENDBRANCH  11  13
ENDBRANCH   9  11
ENDBRANCH   8   9
BRANCH   8  14
ATOM     14  C   UNL     1       7.009   5.381  17.384  0.00  0.00    +0.000 C 
ATOM     15  O   UNL     1       7.416   4.296  17.787  0.00  0.00    +0.000 OA
BRANCH  14  16
ATOM     16  O   UNL     1       7.362   6.532  18.003  0.00  0.00    +0.000 OA
ATOM     17  H   UNL     1       8.319   6.659  18.141  0.00  0.00    +0.000 HD
ENDBRANCH  14  16
ENDBRANCH   8  14
ENDBRANCH   7   8
ENDBRANCH   1   7
BRANCH   4  18
ATOM     18  O   UNL     1       1.725   6.731  20.800  0.00  0.00    +0.000 OA
BRANCH  18  19
ATOM     19  C   UNL     1       1.349   8.101  20.614  0.00  0.00    +0.000 C 
BRANCH  19  20
ATOM     20  C   UNL     1       1.316   8.907  21.907  0.00  0.00    +0.000 C 
BRANCH  20  21
ATOM     21  C   UNL     1       0.250   9.948  21.810  0.00  0.00    +0.000 A 
ATOM     22  N   UNL     1      -0.219  10.589  22.940  0.00  0.00    +0.000 NA
ATOM     23  C   UNL     1      -1.087  11.473  22.482  0.00  0.00    +0.000 A 
ATOM     24  O   UNL     1      -1.200  11.478  21.117  0.00  0.00    +0.000 OA
ATOM     25  C   UNL     1      -0.340  10.507  20.694  0.00  0.00    +0.000 A 
ATOM     26  C   UNL     1      -0.222  10.320  19.238  0.00  0.00    +0.000 C 
BRANCH  23  27
ATOM     27  C   UNL     1      -1.916  12.438  23.203  0.00  0.00    +0.000 A 
ATOM     28  C   UNL     1      -1.416  13.715  23.496  0.00  0.00    +0.000 A 
ATOM     29  C   UNL     1      -2.193  14.644  24.195  0.00  0.00    +0.000 A 
ATOM     30  C   UNL     1      -3.479  14.307  24.613  0.00  0.00    +0.000 A 
ATOM     31  C   UNL     1      -3.992  13.043  24.330  0.00  0.00    +0.000 A 
ATOM     32  C   UNL     1      -3.216  12.116  23.628  0.00  0.00    +0.000 A 
ENDBRANCH  23  27
ENDBRANCH  20  21
ENDBRANCH  19  20
ENDBRANCH  18  19
ENDBRANCH   4  18
TORSDOF 12
ENDMDL
MODEL 9
REMARK VINA RESULT:      -7.6      3.181     11.021
REMARK  Name = 
REMARK  14 active torsions:
REMARK  status: ('A' for Active; 'I' for Inactive)
REMARK    1  A    between atoms: C_1  and  C_2
REMARK    2  A    between atoms: C_2  and  O_3
REMARK    3  A    between atoms: O_3  and  C_4
REMARK    4  A    between atoms: C_4  and  C_6
REMARK    5  A    between atoms: C_6  and  C_7
REMARK    6  A    between atoms: C_6  and  C_29
REMARK    7  A    between atoms: C_7  and  C_8
REMARK    8  A    between atoms: C_11  and  O_12
REMARK    9  A    between atoms: O_12  and  C_13
REMARK   10  A    between atoms: C_13  and  C_14
REMARK   11  A    between atoms: C_14  and  C_15
REMARK   12  A    between atoms: C_17  and  C_18
REMARK   13  A    between atoms: C_25  and  C_26
REMARK   14  A    between atoms: C_29  and  O_31
REMARK                            x       y       z     vdW  Elec       q    Type
REMARK                         _______ _______ _______ _____ _____    ______ ____
ROOT
ATOM      1  C   UNL     1       1.284   9.445  19.363  0.00  0.00    +0.000 A 
ATOM      2  C   UNL     1       1.871   8.909  18.217  0.00  0.00    +0.000 A 
ATOM      3  C   UNL     1       2.366   7.609  18.224  0.00  0.00    +0.000 A 
ATOM      4  C   UNL     1       2.328   6.827  19.382  0.00  0.00    +0.000 A 
ATOM      5  C   UNL     1       1.749   7.357  20.531  0.00  0.00    +0.000 A 
ATOM      6  C   UNL     1       1.224   8.660  20.523  0.00  0.00    +0.000 A 
ENDROOT
BRANCH   1   7
ATOM      7  C   UNL     1       0.749  10.856  19.351  0.00  0.00    +0.000 C 
BRANCH   7   8
ATOM      8  C   UNL     1      -0.601  11.025  20.059  0.00  0.00    +0.000 C 
BRANCH   8   9
ATOM      9  C   UNL     1      -1.490  11.903  19.215  0.00  0.00    +0.000 C 
ATOM     10  O   UNL     1      -2.046  12.923  19.598  0.00  0.00    +0.000 OA
BRANCH   9  11
ATOM     11  O   UNL     1      -1.614  11.361  17.971  0.00  0.00    +0.000 OA
BRANCH  11  13
ATOM     12  C   UNL     1      -3.643  10.304  17.320  0.00  0.00    +0.000 C 
ATOM     13  C   UNL     1      -2.269  10.086  17.924  0.00  0.00    +0.000 C 
ENDBRANCH  11  13
ENDBRANCH   9  11
ENDBRANCH   8   9
BRANCH   8  14
ATOM     14  C   UNL     1      -0.438  11.642  21.424  0.00  0.00    +0.000 C 
ATOM     15  O   UNL     1       0.559  12.252  21.795  0.00  0.00    +0.000 OA
BRANCH  14  16
ATOM     16  O   UNL     1      -1.501  11.479  22.245  0.00  0.00    +0.000 OA
ATOM     17  H   UNL     1      -1.735  12.253  22.792  0.00  0.00    +0.000 HD
ENDBRANCH  14  16
ENDBRANCH   8  14
ENDBRANCH   7   8
ENDBRANCH   1   7
BRANCH   4  18
ATOM     18  O   UNL     1       2.842   5.549  19.477  0.00  0.00    +0.000 OA
BRANCH  18  19
ATOM     19  C   UNL     1       4.274   5.512  19.519  0.00  0.00    +0.000 C 
BRANCH  19  20
ATOM     20  C   UNL     1       4.864   4.185  19.055  0.00  0.00    +0.000 C 
BRANCH  20  21
ATOM     21  C   UNL     1       5.812   4.436  17.929  0.00  0.00    +0.000 A 
ATOM     22  N   UNL     1       5.473   4.109  16.631  0.00  0.00    +0.000 NA
ATOM     23  C   UNL     1       6.497   4.524  15.907  0.00  0.00    +0.000 A 
ATOM     24  O   UNL     1       7.479   5.133  16.641  0.00  0.00    +0.000 OA
ATOM     25  C   UNL     1       7.034   5.080  17.930  0.00  0.00    +0.000 A 
ATOM     26  C   UNL     1       7.888   5.712  18.949  0.00  0.00    +0.000 C 
BRANCH  23  27
ATOM     27  C   UNL     1       6.722   4.444  14.465  0.00  0.00    +0.000 A 
ATOM     28  C   UNL     1       7.642   5.304  13.847  0.00  0.00    +0.000 A 
ATOM     29  C   UNL     1       7.859   5.247  12.466  0.00  0.00    +0.000 A 
ATOM     30  C   UNL     1       7.158   4.329  11.686  0.00  0.00    +0.000 A 
ATOM     31  C   UNL     1       6.242   3.466  12.283  0.00  0.00    +0.000 A 
ATOM     32  C   UNL     1       6.028   3.523  13.663  0.00  0.00    +0.000 A 
ENDBRANCH  23  27
ENDBRANCH  20  21
ENDBRANCH  19  20
ENDBRANCH  18  19
ENDBRANCH   4  18
TORSDOF 12
ENDMDL
