MODEL 1
REMARK VINA RESULT:      -7.7      0.000      0.000
REMARK  Name = 
REMARK  8 active torsions:
REMARK  status: ('A' for Active; 'I' for Inactive)
REMARK    1  A    between atoms: C_1  and  C_2
REMARK    2  A    between atoms: C_2  and  O_3
REMARK    3  A    between atoms: O_3  and  C_4
REMARK    4  A    between atoms: C_4  and  C_6
REMARK    5  A    between atoms: C_6  and  N_7
REMARK    6  A    between atoms: C_11  and  N_12
REMARK    7  A    between atoms: C_13  and  C_15
REMARK    8  A    between atoms: C_15  and  O_17
REMARK                            x       y       z     vdW  Elec       q    Type
REMARK                         _______ _______ _______ _____ _____    ______ ____
ROOT
ATOM      1  N   UNL     1       5.694   5.170  16.525  0.00  0.00    +0.000 N 
ATOM      2  C   UNL     1       4.752   4.645  17.430  0.00  0.00    +0.000 C 
ATOM      3  O   UNL     1       4.618   3.458  17.657  0.00  0.00    +0.000 OA
ATOM      4  C   UNL     1       3.908   5.753  17.951  0.00  0.00    +0.000 A 
ATOM      5  C   UNL     1       2.807   5.674  18.801  0.00  0.00    +0.000 A 
ATOM      6  C   UNL     1       2.035   6.831  18.997  0.00  0.00    +0.000 A 
ATOM      7  C   UNL     1       2.395   8.055  18.404  0.00  0.00    +0.000 A 
ATOM      8  C   UNL     1       3.509   8.135  17.572  0.00  0.00    +0.000 A 
ATOM      9  C   UNL     1       4.233   6.976  17.365  0.00  0.00    +0.000 A 
ATOM     10  S   UNL     1       5.573   6.811  16.269  0.00  0.00    +0.000 S 
ATOM     11  O   UNL     1       6.722   7.490  16.818  0.00  0.00    +0.000 OA
ATOM     12  O   UNL     1       5.096   7.037  14.925  0.00  0.00    +0.000 OA
ENDROOT
BRANCH   5  13
ATOM     13  N   UNL     1       2.399   4.511  19.472  0.00  0.00    +0.000 N 
ATOM     14  C   UNL     1       1.552   3.577  18.906  0.00  0.00    +0.000 C 
ATOM     15  O   UNL     1       1.060   3.578  17.784  0.00  0.00    +0.000 OA
ATOM     16  H   UNL     1       2.980   4.140  20.221  0.00  0.00    +0.000 HD
BRANCH  14  17
ATOM     17  C   UNL     1       1.356   2.328  19.780  0.00  0.00    +0.000 C 
ATOM     18  O   UNL     1       1.211   2.398  20.986  0.00  0.00    +0.000 OA
BRANCH  17  19
ATOM     19  O   UNL     1       1.445   1.202  19.050  0.00  0.00    +0.000 OA
ATOM     20  H   UNL     1       1.709   0.458  19.642  0.00  0.00    +0.000 HD
ENDBRANCH  17  19
ENDBRANCH  14  17
ENDBRANCH   5  13
BRANCH   1  21
ATOM     21  C   UNL     1       6.864   4.458  16.015  0.00  0.00    +0.000 C 
BRANCH  21  22
ATOM     22  C   UNL     1       7.032   4.651  14.523  0.00  0.00    +0.000 C 
ATOM     23  O   UNL     1       7.867   5.364  13.981  0.00  0.00    +0.000 OA
BRANCH  22  24
ATOM     24  O   UNL     1       6.054   3.948  13.876  0.00  0.00    +0.000 OA
BRANCH  24  26
ATOM     25  C   UNL     1       5.053   3.175  11.855  0.00  0.00    +0.000 C 
ATOM     26  C   UNL     1       6.355   3.568  12.526  0.00  0.00    +0.000 C 
ENDBRANCH  24  26
ENDBRANCH  22  24
ENDBRANCH  21  22
ENDBRANCH   1  21
TORSDOF 7
ENDMDL
MODEL 2
REMARK VINA RESULT:      -7.7      1.014      1.126
REMARK  Name = 
REMARK  8 active torsions:
REMARK  status: ('A' for Active; 'I' for Inactive)
REMARK    1  A    between atoms: C_1  and  C_2
REMARK    2  A    between atoms: C_2  and  O_3
REMARK    3  A    between atoms: O_3  and  C_4
REMARK    4  A    between atoms: C_4  and  C_6
REMARK    5  A    between atoms: C_6  and  N_7
REMARK    6  A    between atoms: C_11  and  N_12
REMARK    7  A    between atoms: C_13  and  C_15
REMARK    8  A    between atoms: C_15  and  O_17
REMARK                            x       y       z     vdW  Elec       q    Type
REMARK                         _______ _______ _______ _____ _____    ______ ____
ROOT
ATOM      1  N   UNL     1       5.882   5.249  17.074  0.00  0.00    +0.000 N 
ATOM      2  C   UNL     1       5.121   4.833  18.184  0.00  0.00    +0.000 C 
ATOM      3  O   UNL     1       5.204   3.730  18.687  0.00  0.00    +0.000 OA
ATOM      4  C   UNL     1       4.156   5.906  18.541  0.00  0.00    +0.000 A 
ATOM      5  C   UNL     1       3.160   5.884  19.516  0.00  0.00    +0.000 A 
ATOM      6  C   UNL     1       2.230   6.935  19.539  0.00  0.00    +0.000 A 
ATOM      7  C   UNL     1       2.331   8.017  18.647  0.00  0.00    +0.000 A 
ATOM      8  C   UNL     1       3.341   8.047  17.686  0.00  0.00    +0.000 A 
ATOM      9  C   UNL     1       4.224   6.984  17.659  0.00  0.00    +0.000 A 
ATOM     10  S   UNL     1       5.471   6.747  16.472  0.00  0.00    +0.000 S 
ATOM     11  O   UNL     1       6.537   7.691  16.708  0.00  0.00    +0.000 OA
ATOM     12  O   UNL     1       4.848   6.572  15.181  0.00  0.00    +0.000 OA
ENDROOT
BRANCH   5  13
ATOM     13  N   UNL     1       3.009   4.873  20.477  0.00  0.00    +0.000 N 
ATOM     14  C   UNL     1       2.127   3.819  20.323  0.00  0.00    +0.000 C 
ATOM     15  O   UNL     1       1.390   3.576  19.376  0.00  0.00    +0.000 OA
ATOM     16  H   UNL     1       3.774   4.680  21.121  0.00  0.00    +0.000 HD
BRANCH  14  17
ATOM     17  C   UNL     1       2.234   2.771  21.443  0.00  0.00    +0.000 C 
ATOM     18  O   UNL     1       1.313   2.540  22.203  0.00  0.00    +0.000 OA
BRANCH  17  19
ATOM     19  O   UNL     1       3.467   2.237  21.496  0.00  0.00    +0.000 OA
ATOM     20  H   UNL     1       3.410   1.345  21.915  0.00  0.00    +0.000 HD
ENDBRANCH  17  19
ENDBRANCH  14  17
ENDBRANCH   5  13
BRANCH   1  21
ATOM     21  C   UNL     1       7.103   4.604  16.598  0.00  0.00    +0.000 C 
BRANCH  21  22
ATOM     22  C   UNL     1       7.227   4.681  15.091  0.00  0.00    +0.000 C 
ATOM     23  O   UNL     1       7.905   5.487  14.466  0.00  0.00    +0.000 OA
BRANCH  22  24
ATOM     24  O   UNL     1       6.405   3.740  14.534  0.00  0.00    +0.000 OA
BRANCH  24  26
ATOM     25  C   UNL     1       5.002   3.655  12.608  0.00  0.00    +0.000 C 
ATOM     26  C   UNL     1       6.436   3.661  13.102  0.00  0.00    +0.000 C 
ENDBRANCH  24  26
ENDBRANCH  22  24
ENDBRANCH  21  22
ENDBRANCH   1  21
TORSDOF 7
ENDMDL
MODEL 3
REMARK VINA RESULT:      -7.6      0.832      1.054
REMARK  Name = 
REMARK  8 active torsions:
REMARK  status: ('A' for Active; 'I' for Inactive)
REMARK    1  A    between atoms: C_1  and  C_2
REMARK    2  A    between atoms: C_2  and  O_3
REMARK    3  A    between atoms: O_3  and  C_4
REMARK    4  A    between atoms: C_4  and  C_6
REMARK    5  A    between atoms: C_6  and  N_7
REMARK    6  A    between atoms: C_11  and  N_12
REMARK    7  A    between atoms: C_13  and  C_15
REMARK    8  A    between atoms: C_15  and  O_17
REMARK                            x       y       z     vdW  Elec       q    Type
REMARK                         _______ _______ _______ _____ _____    ______ ____
ROOT
ATOM      1  N   UNL     1       5.592   5.071  16.531  0.00  0.00    +0.000 N 
ATOM      2  C   UNL     1       4.585   4.518  17.346  0.00  0.00    +0.000 C 
ATOM      3  O   UNL     1       4.418   3.324  17.500  0.00  0.00    +0.000 OA
ATOM      4  C   UNL     1       3.728   5.614  17.872  0.00  0.00    +0.000 A 
ATOM      5  C   UNL     1       2.574   5.513  18.646  0.00  0.00    +0.000 A 
ATOM      6  C   UNL     1       1.811   6.674  18.854  0.00  0.00    +0.000 A 
ATOM      7  C   UNL     1       2.228   7.919  18.351  0.00  0.00    +0.000 A 
ATOM      8  C   UNL     1       3.394   8.020  17.596  0.00  0.00    +0.000 A 
ATOM      9  C   UNL     1       4.110   6.859  17.373  0.00  0.00    +0.000 A 
ATOM     10  S   UNL     1       5.514   6.725  16.356  0.00  0.00    +0.000 S 
ATOM     11  O   UNL     1       6.637   7.352  17.011  0.00  0.00    +0.000 OA
ATOM     12  O   UNL     1       5.127   7.030  14.999  0.00  0.00    +0.000 OA
ENDROOT
BRANCH   5  13
ATOM     13  N   UNL     1       2.105   4.325  19.227  0.00  0.00    +0.000 N 
ATOM     14  C   UNL     1       2.109   4.106  20.591  0.00  0.00    +0.000 C 
ATOM     15  O   UNL     1       2.469   4.865  21.483  0.00  0.00    +0.000 OA
ATOM     16  H   UNL     1       1.429   3.757  18.720  0.00  0.00    +0.000 HD
BRANCH  14  17
ATOM     17  C   UNL     1       1.425   2.789  20.996  0.00  0.00    +0.000 C 
ATOM     18  O   UNL     1       1.428   2.386  22.144  0.00  0.00    +0.000 OA
BRANCH  17  19
ATOM     19  O   UNL     1       0.922   2.151  19.926  0.00  0.00    +0.000 OA
ATOM     20  H   UNL     1       1.649   1.997  19.275  0.00  0.00    +0.000 HD
ENDBRANCH  17  19
ENDBRANCH  14  17
ENDBRANCH   5  13
BRANCH   1  21
ATOM     21  C   UNL     1       6.779   4.363  16.058  0.00  0.00    +0.000 C 
BRANCH  21  22
ATOM     22  C   UNL     1       6.978   4.536  14.567  0.00  0.00    +0.000 C 
ATOM     23  O   UNL     1       7.758   5.314  14.032  0.00  0.00    +0.000 OA
BRANCH  22  24
ATOM     24  O   UNL     1       6.097   3.724  13.909  0.00  0.00    +0.000 OA
BRANCH  24  26
ATOM     25  C   UNL     1       4.996   3.213  11.857  0.00  0.00    +0.000 C 
ATOM     26  C   UNL     1       6.320   3.581  12.500  0.00  0.00    +0.000 C 
ENDBRANCH  24  26
ENDBRANCH  22  24
ENDBRANCH  21  22
ENDBRANCH   1  21
TORSDOF 7
ENDMDL
MODEL 4
REMARK VINA RESULT:      -7.4      3.108      5.098
REMARK  Name = 
REMARK  8 active torsions:
REMARK  status: ('A' for Active; 'I' for Inactive)
REMARK    1  A    between atoms: C_1  and  C_2
REMARK    2  A    between atoms: C_2  and  O_3
REMARK    3  A    between atoms: O_3  and  C_4
REMARK    4  A    between atoms: C_4  and  C_6
REMARK    5  A    between atoms: C_6  and  N_7
REMARK    6  A    between atoms: C_11  and  N_12
REMARK    7  A    between atoms: C_13  and  C_15
REMARK    8  A    between atoms: C_15  and  O_17
REMARK                            x       y       z     vdW  Elec       q    Type
REMARK                         _______ _______ _______ _____ _____    ______ ____
ROOT
ATOM      1  N   UNL     1       4.945   5.124  17.424  0.00  0.00    +0.000 N 
ATOM      2  C   UNL     1       4.154   6.279  17.580  0.00  0.00    +0.000 C 
ATOM      3  O   UNL     1       4.331   7.310  16.961  0.00  0.00    +0.000 OA
ATOM      4  C   UNL     1       3.178   6.055  18.679  0.00  0.00    +0.000 A 
ATOM      5  C   UNL     1       2.265   6.957  19.221  0.00  0.00    +0.000 A 
ATOM      6  C   UNL     1       1.584   6.589  20.393  0.00  0.00    +0.000 A 
ATOM      7  C   UNL     1       1.766   5.321  20.973  0.00  0.00    +0.000 A 
ATOM      8  C   UNL     1       2.664   4.412  20.415  0.00  0.00    +0.000 A 
ATOM      9  C   UNL     1       3.349   4.810  19.283  0.00  0.00    +0.000 A 
ATOM     10  S   UNL     1       4.606   3.899  18.500  0.00  0.00    +0.000 S 
ATOM     11  O   UNL     1       4.019   2.775  17.811  0.00  0.00    +0.000 OA
ATOM     12  O   UNL     1       5.715   3.767  19.416  0.00  0.00    +0.000 OA
ENDROOT
BRANCH   5  13
ATOM     13  N   UNL     1       1.982   8.224  18.687  0.00  0.00    +0.000 N 
ATOM     14  C   UNL     1       1.381   9.229  19.421  0.00  0.00    +0.000 C 
ATOM     15  O   UNL     1       1.035   9.211  20.595  0.00  0.00    +0.000 OA
ATOM     16  H   UNL     1       2.523   8.560  17.893  0.00  0.00    +0.000 HD
BRANCH  14  17
ATOM     17  C   UNL     1       1.296  10.565  18.663  0.00  0.00    +0.000 C 
ATOM     18  O   UNL     1       0.703  11.527  19.114  0.00  0.00    +0.000 OA
BRANCH  17  19
ATOM     19  O   UNL     1       1.880  10.479  17.455  0.00  0.00    +0.000 OA
ATOM     20  H   UNL     1       2.520  11.225  17.357  0.00  0.00    +0.000 HD
ENDBRANCH  17  19
ENDBRANCH  14  17
ENDBRANCH   5  13
BRANCH   1  21
ATOM     21  C   UNL     1       5.820   4.847  16.287  0.00  0.00    +0.000 C 
BRANCH  21  22
ATOM     22  C   UNL     1       7.277   5.068  16.635  0.00  0.00    +0.000 C 
ATOM     23  O   UNL     1       8.081   4.198  16.946  0.00  0.00    +0.000 OA
BRANCH  22  24
ATOM     24  O   UNL     1       7.537   6.410  16.607  0.00  0.00    +0.000 OA
BRANCH  24  26
ATOM     25  C   UNL     1       7.856   8.527  17.657  0.00  0.00    +0.000 C 
ATOM     26  C   UNL     1       7.706   7.035  17.887  0.00  0.00    +0.000 C 
ENDBRANCH  24  26
ENDBRANCH  22  24
ENDBRANCH  21  22
ENDBRANCH   1  21
TORSDOF 7
ENDMDL
MODEL 5
REMARK VINA RESULT:      -7.1      2.867      4.639
REMARK  Name = 
REMARK  8 active torsions:
REMARK  status: ('A' for Active; 'I' for Inactive)
REMARK    1  A    between atoms: C_1  and  C_2
REMARK    2  A    between atoms: C_2  and  O_3
REMARK    3  A    between atoms: O_3  and  C_4
REMARK    4  A    between atoms: C_4  and  C_6
REMARK    5  A    between atoms: C_6  and  N_7
REMARK    6  A    between atoms: C_11  and  N_12
REMARK    7  A    between atoms: C_13  and  C_15
REMARK    8  A    between atoms: C_15  and  O_17
REMARK                            x       y       z     vdW  Elec       q    Type
REMARK                         _______ _______ _______ _____ _____    ______ ____
ROOT
ATOM      1  N   UNL     1       4.803   4.677  17.333  0.00  0.00    +0.000 N 
ATOM      2  C   UNL     1       4.123   5.901  17.485  0.00  0.00    +0.000 C 
ATOM      3  O   UNL     1       4.362   6.894  16.826  0.00  0.00    +0.000 OA
ATOM      4  C   UNL     1       3.179   5.795  18.629  0.00  0.00    +0.000 A 
ATOM      5  C   UNL     1       2.373   6.789  19.179  0.00  0.00    +0.000 A 
ATOM      6  C   UNL     1       1.714   6.515  20.389  0.00  0.00    +0.000 A 
ATOM      7  C   UNL     1       1.810   5.253  21.001  0.00  0.00    +0.000 A 
ATOM      8  C   UNL     1       2.600   4.253  20.436  0.00  0.00    +0.000 A 
ATOM      9  C   UNL     1       3.268   4.557  19.265  0.00  0.00    +0.000 A 
ATOM     10  S   UNL     1       4.406   3.517  18.460  0.00  0.00    +0.000 S 
ATOM     11  O   UNL     1       3.694   2.430  17.832  0.00  0.00    +0.000 OA
ATOM     12  O   UNL     1       5.537   3.313  19.334  0.00  0.00    +0.000 OA
ENDROOT
BRANCH   5  13
ATOM     13  N   UNL     1       2.179   8.060  18.617  0.00  0.00    +0.000 N 
ATOM     14  C   UNL     1       1.444   9.051  19.241  0.00  0.00    +0.000 C 
ATOM     15  O   UNL     1       0.890   9.014  20.332  0.00  0.00    +0.000 OA
ATOM     16  H   UNL     1       2.852   8.411  17.939  0.00  0.00    +0.000 HD
BRANCH  14  17
ATOM     17  C   UNL     1       1.484  10.395  18.496  0.00  0.00    +0.000 C 
ATOM     18  O   UNL     1       0.922  11.387  18.921  0.00  0.00    +0.000 OA
BRANCH  17  19
ATOM     19  O   UNL     1       2.136  10.286  17.325  0.00  0.00    +0.000 OA
ATOM     20  H   UNL     1       2.573  11.148  17.122  0.00  0.00    +0.000 HD
ENDBRANCH  17  19
ENDBRANCH  14  17
ENDBRANCH   5  13
BRANCH   1  21
ATOM     21  C   UNL     1       5.601   4.292  16.171  0.00  0.00    +0.000 C 
BRANCH  21  22
ATOM     22  C   UNL     1       7.046   4.720  16.316  0.00  0.00    +0.000 C 
ATOM     23  O   UNL     1       7.772   4.481  17.272  0.00  0.00    +0.000 OA
BRANCH  22  24
ATOM     24  O   UNL     1       7.391   5.476  15.231  0.00  0.00    +0.000 OA
BRANCH  24  26
ATOM     25  C   UNL     1       8.090   5.473  12.951  0.00  0.00    +0.000 C 
ATOM     26  C   UNL     1       7.114   4.885  13.953  0.00  0.00    +0.000 C 
ENDBRANCH  24  26
ENDBRANCH  22  24
ENDBRANCH  21  22
ENDBRANCH   1  21
TORSDOF 7
ENDMDL
MODEL 6
REMARK VINA RESULT:      -7.0      2.495      6.854
REMARK  Name = 
REMARK  8 active torsions:
REMARK  status: ('A' for Active; 'I' for Inactive)
REMARK    1  A    between atoms: C_1  and  C_2
REMARK    2  A    between atoms: C_2  and  O_3
REMARK    3  A    between atoms: O_3  and  C_4
REMARK    4  A    between atoms: C_4  and  C_6
REMARK    5  A    between atoms: C_6  and  N_7
REMARK    6  A    between atoms: C_11  and  N_12
REMARK    7  A    between atoms: C_13  and  C_15
REMARK    8  A    between atoms: C_15  and  O_17
REMARK                            x       y       z     vdW  Elec       q    Type
REMARK                         _______ _______ _______ _____ _____    ______ ____
ROOT
ATOM      1  N   UNL     1       3.851   3.833  18.951  0.00  0.00    +0.000 N 
ATOM      2  C   UNL     1       4.973   4.664  18.771  0.00  0.00    +0.000 C 
ATOM      3  O   UNL     1       5.347   5.484  19.587  0.00  0.00    +0.000 OA
ATOM      4  C   UNL     1       5.527   4.445  17.409  0.00  0.00    +0.000 A 
ATOM      5  C   UNL     1       6.579   5.113  16.785  0.00  0.00    +0.000 A 
ATOM      6  C   UNL     1       6.796   4.880  15.418  0.00  0.00    +0.000 A 
ATOM      7  C   UNL     1       6.018   3.951  14.705  0.00  0.00    +0.000 A 
ATOM      8  C   UNL     1       4.980   3.268  15.337  0.00  0.00    +0.000 A 
ATOM      9  C   UNL     1       4.762   3.540  16.674  0.00  0.00    +0.000 A 
ATOM     10  S   UNL     1       3.449   2.910  17.625  0.00  0.00    +0.000 S 
ATOM     11  O   UNL     1       3.688   1.513  17.897  0.00  0.00    +0.000 OA
ATOM     12  O   UNL     1       2.208   3.402  17.076  0.00  0.00    +0.000 OA
ENDROOT
BRANCH   5  13
ATOM     13  N   UNL     1       7.437   6.021  17.425  0.00  0.00    +0.000 N 
ATOM     14  C   UNL     1       7.244   7.389  17.387  0.00  0.00    +0.000 C 
ATOM     15  O   UNL     1       6.337   8.014  16.851  0.00  0.00    +0.000 OA
ATOM     16  H   UNL     1       7.994   5.705  18.216  0.00  0.00    +0.000 HD
BRANCH  14  17
ATOM     17  C   UNL     1       8.234   8.166  18.269  0.00  0.00    +0.000 C 
ATOM     18  O   UNL     1       8.532   9.324  18.041  0.00  0.00    +0.000 OA
BRANCH  17  19
ATOM     19  O   UNL     1       8.752   7.382  19.231  0.00  0.00    +0.000 OA
ATOM     20  H   UNL     1       8.102   6.669  19.444  0.00  0.00    +0.000 HD
ENDBRANCH  17  19
ENDBRANCH  14  17
ENDBRANCH   5  13
BRANCH   1  21
ATOM     21  C   UNL     1       3.202   3.556  20.231  0.00  0.00    +0.000 C 
BRANCH  21  22
ATOM     22  C   UNL     1       1.919   4.344  20.391  0.00  0.00    +0.000 C 
ATOM     23  O   UNL     1       0.801   3.971  20.057  0.00  0.00    +0.000 OA
BRANCH  22  24
ATOM     24  O   UNL     1       2.220   5.571  20.914  0.00  0.00    +0.000 OA
BRANCH  24  26
ATOM     25  C   UNL     1       1.427   7.817  20.817  0.00  0.00    +0.000 C 
ATOM     26  C   UNL     1       2.047   6.682  20.024  0.00  0.00    +0.000 C 
ENDBRANCH  24  26
ENDBRANCH  22  24
ENDBRANCH  21  22
ENDBRANCH   1  21
TORSDOF 7
ENDMDL
MODEL 7
REMARK VINA RESULT:      -7.0      1.448      1.806
REMARK  Name = 
REMARK  8 active torsions:
REMARK  status: ('A' for Active; 'I' for Inactive)
REMARK    1  A    between atoms: C_1  and  C_2
REMARK    2  A    between atoms: C_2  and  O_3
REMARK    3  A    between atoms: O_3  and  C_4
REMARK    4  A    between atoms: C_4  and  C_6
REMARK    5  A    between atoms: C_6  and  N_7
REMARK    6  A    between atoms: C_11  and  N_12
REMARK    7  A    between atoms: C_13  and  C_15
REMARK    8  A    between atoms: C_15  and  O_17
REMARK                            x       y       z     vdW  Elec       q    Type
REMARK                         _______ _______ _______ _____ _____    ______ ____
ROOT
ATOM      1  N   UNL     1       5.735   5.285  17.306  0.00  0.00    +0.000 N 
ATOM      2  C   UNL     1       4.976   4.853  18.412  0.00  0.00    +0.000 C 
ATOM      3  O   UNL     1       5.074   3.749  18.911  0.00  0.00    +0.000 OA
ATOM      4  C   UNL     1       3.993   5.910  18.769  0.00  0.00    +0.000 A 
ATOM      5  C   UNL     1       2.995   5.869  19.741  0.00  0.00    +0.000 A 
ATOM      6  C   UNL     1       2.048   6.906  19.764  0.00  0.00    +0.000 A 
ATOM      7  C   UNL     1       2.136   7.992  18.875  0.00  0.00    +0.000 A 
ATOM      8  C   UNL     1       3.149   8.041  17.919  0.00  0.00    +0.000 A 
ATOM      9  C   UNL     1       4.048   6.992  17.891  0.00  0.00    +0.000 A 
ATOM     10  S   UNL     1       5.304   6.778  16.708  0.00  0.00    +0.000 S 
ATOM     11  O   UNL     1       6.354   7.737  16.951  0.00  0.00    +0.000 OA
ATOM     12  O   UNL     1       4.688   6.599  15.414  0.00  0.00    +0.000 OA
ENDROOT
BRANCH   5  13
ATOM     13  N   UNL     1       2.855   4.852  20.697  0.00  0.00    +0.000 N 
ATOM     14  C   UNL     1       1.820   3.936  20.672  0.00  0.00    +0.000 C 
ATOM     15  O   UNL     1       0.915   3.833  19.853  0.00  0.00    +0.000 OA
ATOM     16  H   UNL     1       3.677   4.531  21.205  0.00  0.00    +0.000 HD
BRANCH  14  17
ATOM     17  C   UNL     1       1.953   2.841  21.742  0.00  0.00    +0.000 C 
ATOM     18  O   UNL     1       3.026   2.348  22.034  0.00  0.00    +0.000 OA
BRANCH  17  19
ATOM     19  O   UNL     1       0.750   2.477  22.221  0.00  0.00    +0.000 OA
ATOM     20  H   UNL     1       0.766   2.543  23.206  0.00  0.00    +0.000 HD
ENDBRANCH  17  19
ENDBRANCH  14  17
ENDBRANCH   5  13
BRANCH   1  21
ATOM     21  C   UNL     1       6.968   4.660  16.832  0.00  0.00    +0.000 C 
BRANCH  21  22
ATOM     22  C   UNL     1       6.893   4.319  15.359  0.00  0.00    +0.000 C 
ATOM     23  O   UNL     1       6.251   3.400  14.867  0.00  0.00    +0.000 OA
BRANCH  22  24
ATOM     24  O   UNL     1       7.713   5.168  14.669  0.00  0.00    +0.000 OA
BRANCH  24  26
ATOM     25  C   UNL     1       8.666   6.034  12.662  0.00  0.00    +0.000 C 
ATOM     26  C   UNL     1       7.707   5.012  13.243  0.00  0.00    +0.000 C 
ENDBRANCH  24  26
ENDBRANCH  22  24
ENDBRANCH  21  22
ENDBRANCH   1  21
TORSDOF 7
ENDMDL
MODEL 8
REMARK VINA RESULT:      -6.7      1.214      1.706
REMARK  Name = 
REMARK  8 active torsions:
REMARK  status: ('A' for Active; 'I' for Inactive)
REMARK    1  A    between atoms: C_1  and  C_2
REMARK    2  A    between atoms: C_2  and  O_3
REMARK    3  A    between atoms: O_3  and  C_4
REMARK    4  A    between atoms: C_4  and  C_6
REMARK    5  A    between atoms: C_6  and  N_7
REMARK    6  A    between atoms: C_11  and  N_12
REMARK    7  A    between atoms: C_13  and  C_15
REMARK    8  A    between atoms: C_15  and  O_17
REMARK                            x       y       z     vdW  Elec       q    Type
REMARK                         _______ _______ _______ _____ _____    ______ ____
ROOT
ATOM      1  N   UNL     1       5.336   4.979  16.472  0.00  0.00    +0.000 N 
ATOM      2  C   UNL     1       4.301   4.523  17.310  0.00  0.00    +0.000 C 
ATOM      3  O   UNL     1       4.020   3.351  17.465  0.00  0.00    +0.000 OA
ATOM      4  C   UNL     1       3.569   5.695  17.861  0.00  0.00    +0.000 A 
ATOM      5  C   UNL     1       2.430   5.704  18.663  0.00  0.00    +0.000 A 
ATOM      6  C   UNL     1       1.790   6.932  18.894  0.00  0.00    +0.000 A 
ATOM      7  C   UNL     1       2.314   8.133  18.385  0.00  0.00    +0.000 A 
ATOM      8  C   UNL     1       3.466   8.124  17.601  0.00  0.00    +0.000 A 
ATOM      9  C   UNL     1       4.059   6.900  17.357  0.00  0.00    +0.000 A 
ATOM     10  S   UNL     1       5.417   6.634  16.304  0.00  0.00    +0.000 S 
ATOM     11  O   UNL     1       6.612   7.143  16.933  0.00  0.00    +0.000 OA
ATOM     12  O   UNL     1       5.028   6.983  14.958  0.00  0.00    +0.000 OA
ENDROOT
BRANCH   5  13
ATOM     13  N   UNL     1       1.861   4.564  19.252  0.00  0.00    +0.000 N 
ATOM     14  C   UNL     1       2.021   4.252  20.589  0.00  0.00    +0.000 C 
ATOM     15  O   UNL     1       2.622   4.882  21.450  0.00  0.00    +0.000 OA
ATOM     16  H   UNL     1       1.037   4.144  18.827  0.00  0.00    +0.000 HD
BRANCH  14  17
ATOM     17  C   UNL     1       1.197   3.031  21.030  0.00  0.00    +0.000 C 
ATOM     18  O   UNL     1       1.427   2.436  22.065  0.00  0.00    +0.000 OA
BRANCH  17  19
ATOM     19  O   UNL     1       0.284   2.697  20.101  0.00  0.00    +0.000 OA
ATOM     20  H   UNL     1      -0.603   2.641  20.532  0.00  0.00    +0.000 HD
ENDBRANCH  17  19
ENDBRANCH  14  17
ENDBRANCH   5  13
BRANCH   1  21
ATOM     21  C   UNL     1       6.436   4.161  15.967  0.00  0.00    +0.000 C 
BRANCH  21  22
ATOM     22  C   UNL     1       6.500   4.179  14.454  0.00  0.00    +0.000 C 
ATOM     23  O   UNL     1       5.705   3.640  13.696  0.00  0.00    +0.000 OA
BRANCH  22  24
ATOM     24  O   UNL     1       7.631   4.845  14.070  0.00  0.00    +0.000 OA
BRANCH  24  26
ATOM     25  C   UNL     1       8.700   6.225  12.446  0.00  0.00    +0.000 C 
ATOM     26  C   UNL     1       7.791   5.028  12.657  0.00  0.00    +0.000 C 
ENDBRANCH  24  26
ENDBRANCH  22  24
ENDBRANCH  21  22
ENDBRANCH   1  21
TORSDOF 7
ENDMDL
MODEL 9
REMARK VINA RESULT:      -6.6      2.848      5.009
REMARK  Name = 
REMARK  8 active torsions:
REMARK  status: ('A' for Active; 'I' for Inactive)
REMARK    1  A    between atoms: C_1  and  C_2
REMARK    2  A    between atoms: C_2  and  O_3
REMARK    3  A    between atoms: O_3  and  C_4
REMARK    4  A    between atoms: C_4  and  C_6
REMARK    5  A    between atoms: C_6  and  N_7
REMARK    6  A    between atoms: C_11  and  N_12
REMARK    7  A    between atoms: C_13  and  C_15
REMARK    8  A    between atoms: C_15  and  O_17
REMARK                            x       y       z     vdW  Elec       q    Type
REMARK                         _______ _______ _______ _____ _____    ______ ____
ROOT
ATOM      1  N   UNL     1       4.303   4.914  17.059  0.00  0.00    +0.000 N 
ATOM      2  C   UNL     1       3.878   6.156  17.567  0.00  0.00    +0.000 C 
ATOM      3  O   UNL     1       4.346   7.225  17.226  0.00  0.00    +0.000 OA
ATOM      4  C   UNL     1       2.873   5.925  18.639  0.00  0.00    +0.000 A 
ATOM      5  C   UNL     1       2.256   6.864  19.462  0.00  0.00    +0.000 A 
ATOM      6  C   UNL     1       1.492   6.398  20.545  0.00  0.00    +0.000 A 
ATOM      7  C   UNL     1       1.299   5.023  20.761  0.00  0.00    +0.000 A 
ATOM      8  C   UNL     1       1.900   4.085  19.922  0.00  0.00    +0.000 A 
ATOM      9  C   UNL     1       2.676   4.567  18.885  0.00  0.00    +0.000 A 
ATOM     10  S   UNL     1       3.621   3.588  17.802  0.00  0.00    +0.000 S 
ATOM     11  O   UNL     1       2.739   2.902  16.890  0.00  0.00    +0.000 OA
ATOM     12  O   UNL     1       4.640   2.911  18.568  0.00  0.00    +0.000 OA
ENDROOT
BRANCH   5  13
ATOM     13  N   UNL     1       2.352   8.255  19.298  0.00  0.00    +0.000 N 
ATOM     14  C   UNL     1       1.651   8.945  18.327  0.00  0.00    +0.000 C 
ATOM     15  O   UNL     1       0.852   8.506  17.509  0.00  0.00    +0.000 OA
ATOM     16  H   UNL     1       2.637   8.830  20.088  0.00  0.00    +0.000 HD
BRANCH  14  17
ATOM     17  C   UNL     1       1.817  10.470  18.428  0.00  0.00    +0.000 C 
ATOM     18  O   UNL     1       1.432  11.100  19.395  0.00  0.00    +0.000 OA
BRANCH  17  19
ATOM     19  O   UNL     1       2.353  10.978  17.305  0.00  0.00    +0.000 OA
ATOM     20  H   UNL     1       1.779  11.714  16.983  0.00  0.00    +0.000 HD
ENDBRANCH  17  19
ENDBRANCH  14  17
ENDBRANCH   5  13
BRANCH   1  21
ATOM     21  C   UNL     1       5.067   4.721  15.829  0.00  0.00    +0.000 C 
BRANCH  21  22
ATOM     22  C   UNL     1       6.525   5.088  16.010  0.00  0.00    +0.000 C 
ATOM     23  O   UNL     1       7.273   5.508  15.138  0.00  0.00    +0.000 OA
BRANCH  22  24
ATOM     24  O   UNL     1       6.890   4.812  17.299  0.00  0.00    +0.000 OA
BRANCH  24  26
ATOM     25  C   UNL     1       7.402   5.640  19.475  0.00  0.00    +0.000 C 
ATOM     26  C   UNL     1       7.580   5.865  17.985  0.00  0.00    +0.000 C 
ENDBRANCH  24  26
ENDBRANCH  22  24
ENDBRANCH  21  22
ENDBRANCH   1  21
TORSDOF 7
ENDMDL
