MODEL 1
REMARK VINA RESULT:      -9.4      0.000      0.000
REMARK  Name = 
REMARK  7 active torsions:
REMARK  status: ('A' for Active; 'I' for Inactive)
REMARK    1  A    between atoms: N_1  and  C_2
REMARK    2  A    between atoms: C_2  and  C_3
REMARK    3  A    between atoms: C_2  and  C_24
REMARK    4  A    between atoms: C_3  and  C_4
REMARK    5  A    between atoms: C_7  and  C_8
REMARK    6  A    between atoms: N_10  and  C_11
REMARK    7  A    between atoms: C_24  and  C_25
REMARK                            x       y       z     vdW  Elec       q    Type
REMARK                         _______ _______ _______ _____ _____    ______ ____
ROOT
ATOM      1  C   UNL     1       5.024   6.009  18.067  0.00  0.00    +0.000 C 
ATOM      2  O   UNL     1       5.171   7.061  17.442  0.00  0.00    +0.000 OA
ATOM      3  N   UNL     1       3.759   5.557  18.389  0.00  0.00    +0.000 N 
ATOM      4  C   UNL     1       2.569   6.274  17.897  0.00  0.00    +0.000 C 
ATOM      5  C   UNL     1       1.418   5.263  18.033  0.00  0.00    +0.000 C 
ATOM      6  C   UNL     1       2.109   3.905  18.098  0.00  0.00    +0.000 C 
ATOM      7  C   UNL     1       1.233   2.808  18.700  0.00  0.00    +0.000 C 
ATOM      8  C   UNL     1       1.110   2.881  20.219  0.00  0.00    +0.000 C 
ATOM      9  C   UNL     1       2.480   2.976  20.879  0.00  0.00    +0.000 C 
ATOM     10  C   UNL     1       3.237   4.206  20.392  0.00  0.00    +0.000 C 
ATOM     11  C   UNL     1       3.401   4.216  18.867  0.00  0.00    +0.000 C 
ENDROOT
BRANCH   4  12
ATOM     12  C   UNL     1       2.227   7.571  18.672  0.00  0.00    +0.000 C 
ATOM     13  O   UNL     1       2.173   7.569  19.906  0.00  0.00    +0.000 OA
ATOM     14  N   UNL     1       1.883   8.649  17.878  0.00  0.00    +0.000 N 
ATOM     15  H   UNL     1       1.873   8.486  16.869  0.00  0.00    +0.000 HD
BRANCH  14  16
ATOM     16  C   UNL     1       1.383   9.887  18.347  0.00  0.00    +0.000 A 
ATOM     17  C   UNL     1       0.124  10.028  18.943  0.00  0.00    +0.000 A 
ATOM     18  C   UNL     1      -0.350  11.280  19.337  0.00  0.00    +0.000 A 
ATOM     19  C   UNL     1       0.431  12.413  19.137  0.00  0.00    +0.000 A 
ATOM     20  C   UNL     1       1.695  12.286  18.563  0.00  0.00    +0.000 A 
ATOM     21  C   UNL     1       2.176  11.027  18.184  0.00  0.00    +0.000 A 
ENDBRANCH  14  16
ENDBRANCH   4  12
BRANCH   1  22
ATOM     22  C   UNL     1       6.209   5.164  18.523  0.00  0.00    +0.000 C 
BRANCH  22  23
ATOM     23  C   UNL     1       6.980   4.512  17.362  0.00  0.00    +0.000 C 
BRANCH  23  24
ATOM     24  N   UNL     1       8.327   4.111  17.815  0.00  0.00    +0.000 NA
ATOM     25  H   UNL     1       9.008   4.845  17.630  0.00  0.00    +0.000 HD
ATOM     26  H   UNL     1       8.640   3.275  17.319  0.00  0.00    +0.000 HD
ENDBRANCH  23  24
BRANCH  23  27
ATOM     27  C   UNL     1       7.107   5.427  16.113  0.00  0.00    +0.000 C 
BRANCH  27  28
ATOM     28  C   UNL     1       6.662   4.728  14.846  0.00  0.00    +0.000 A 
ATOM     29  C   UNL     1       7.450   4.784  13.684  0.00  0.00    +0.000 A 
ATOM     30  C   UNL     1       6.975   4.238  12.496  0.00  0.00    +0.000 A 
ATOM     31  F   UNL     1       7.715   4.343  11.384  0.00  0.00    +0.000 F 
ATOM     32  C   UNL     1       5.737   3.605  12.457  0.00  0.00    +0.000 A 
ATOM     33  F   UNL     1       5.277   3.098  11.305  0.00  0.00    +0.000 F 
ATOM     34  C   UNL     1       4.965   3.497  13.607  0.00  0.00    +0.000 A 
ATOM     35  C   UNL     1       5.432   4.059  14.790  0.00  0.00    +0.000 A 
ATOM     36  F   UNL     1       4.671   3.965  15.889  0.00  0.00    +0.000 F 
ENDBRANCH  27  28
ENDBRANCH  23  27
ENDBRANCH  22  23
ENDBRANCH   1  22
TORSDOF 7
ENDMDL
MODEL 2
REMARK VINA RESULT:      -9.1      3.707      8.487
REMARK  Name = 
REMARK  7 active torsions:
REMARK  status: ('A' for Active; 'I' for Inactive)
REMARK    1  A    between atoms: N_1  and  C_2
REMARK    2  A    between atoms: C_2  and  C_3
REMARK    3  A    between atoms: C_2  and  C_24
REMARK    4  A    between atoms: C_3  and  C_4
REMARK    5  A    between atoms: C_7  and  C_8
REMARK    6  A    between atoms: N_10  and  C_11
REMARK    7  A    between atoms: C_24  and  C_25
REMARK                            x       y       z     vdW  Elec       q    Type
REMARK                         _______ _______ _______ _____ _____    ______ ____
ROOT
ATOM      1  C   UNL     1       3.048   7.677  17.964  0.00  0.00    +0.000 C 
ATOM      2  O   UNL     1       3.812   8.581  17.619  0.00  0.00    +0.000 OA
ATOM      3  N   UNL     1       3.491   6.371  18.024  0.00  0.00    +0.000 N 
ATOM      4  C   UNL     1       4.910   6.058  17.780  0.00  0.00    +0.000 C 
ATOM      5  C   UNL     1       5.112   4.657  18.382  0.00  0.00    +0.000 C 
ATOM      6  C   UNL     1       3.958   4.494  19.366  0.00  0.00    +0.000 C 
ATOM      7  C   UNL     1       3.671   3.039  19.727  0.00  0.00    +0.000 C 
ATOM      8  C   UNL     1       2.927   2.268  18.640  0.00  0.00    +0.000 C 
ATOM      9  C   UNL     1       1.685   3.022  18.182  0.00  0.00    +0.000 C 
ATOM     10  C   UNL     1       2.050   4.399  17.640  0.00  0.00    +0.000 C 
ATOM     11  C   UNL     1       2.810   5.242  18.671  0.00  0.00    +0.000 C 
ENDROOT
BRANCH   4  12
ATOM     12  C   UNL     1       5.326   6.056  16.287  0.00  0.00    +0.000 C 
ATOM     13  O   UNL     1       4.927   6.941  15.524  0.00  0.00    +0.000 OA
ATOM     14  N   UNL     1       6.052   4.949  15.889  0.00  0.00    +0.000 N 
ATOM     15  H   UNL     1       6.230   4.240  16.602  0.00  0.00    +0.000 HD
BRANCH  14  16
ATOM     16  C   UNL     1       6.411   4.642  14.555  0.00  0.00    +0.000 A 
ATOM     17  C   UNL     1       7.483   5.249  13.891  0.00  0.00    +0.000 A 
ATOM     18  C   UNL     1       7.761   4.957  12.555  0.00  0.00    +0.000 A 
ATOM     19  C   UNL     1       6.967   4.051  11.861  0.00  0.00    +0.000 A 
ATOM     20  C   UNL     1       5.908   3.422  12.515  0.00  0.00    +0.000 A 
ATOM     21  C   UNL     1       5.640   3.704  13.860  0.00  0.00    +0.000 A 
ENDBRANCH  14  16
ENDBRANCH   4  12
BRANCH   1  22
ATOM     22  C   UNL     1       1.590   7.943  18.326  0.00  0.00    +0.000 C 
BRANCH  22  23
ATOM     23  C   UNL     1       1.069   9.299  17.817  0.00  0.00    +0.000 C 
BRANCH  23  24
ATOM     24  N   UNL     1       2.206  10.188  17.503  0.00  0.00    +0.000 NA
ATOM     25  H   UNL     1       1.888  11.037  17.040  0.00  0.00    +0.000 HD
ATOM     26  H   UNL     1       2.862   9.725  16.873  0.00  0.00    +0.000 HD
ENDBRANCH  23  24
BRANCH  23  27
ATOM     27  C   UNL     1       0.119  10.010  18.817  0.00  0.00    +0.000 C 
BRANCH  27  28
ATOM     28  C   UNL     1      -1.228  10.323  18.201  0.00  0.00    +0.000 A 
ATOM     29  C   UNL     1      -1.605   9.748  16.976  0.00  0.00    +0.000 A 
ATOM     30  C   UNL     1      -2.794  10.133  16.364  0.00  0.00    +0.000 A 
ATOM     31  F   UNL     1      -3.116   9.614  15.172  0.00  0.00    +0.000 F 
ATOM     32  C   UNL     1      -3.630  11.062  16.973  0.00  0.00    +0.000 A 
ATOM     33  F   UNL     1      -4.764  11.444  16.370  0.00  0.00    +0.000 F 
ATOM     34  C   UNL     1      -3.298  11.606  18.207  0.00  0.00    +0.000 A 
ATOM     35  C   UNL     1      -2.102  11.234  18.811  0.00  0.00    +0.000 A 
ATOM     36  F   UNL     1      -1.782  11.779  19.993  0.00  0.00    +0.000 F 
ENDBRANCH  27  28
ENDBRANCH  23  27
ENDBRANCH  22  23
ENDBRANCH   1  22
TORSDOF 7
ENDMDL
MODEL 3
REMARK VINA RESULT:      -9.1      3.624      8.419
REMARK  Name = 
REMARK  7 active torsions:
REMARK  status: ('A' for Active; 'I' for Inactive)
REMARK    1  A    between atoms: N_1  and  C_2
REMARK    2  A    between atoms: C_2  and  C_3
REMARK    3  A    between atoms: C_2  and  C_24
REMARK    4  A    between atoms: C_3  and  C_4
REMARK    5  A    between atoms: C_7  and  C_8
REMARK    6  A    between atoms: N_10  and  C_11
REMARK    7  A    between atoms: C_24  and  C_25
REMARK                            x       y       z     vdW  Elec       q    Type
REMARK                         _______ _______ _______ _____ _____    ______ ____
ROOT
ATOM      1  C   UNL     1       3.237   7.074  17.754  0.00  0.00    +0.000 C 
ATOM      2  O   UNL     1       4.248   7.734  17.504  0.00  0.00    +0.000 OA
ATOM      3  N   UNL     1       3.343   5.809  18.297  0.00  0.00    +0.000 N 
ATOM      4  C   UNL     1       4.662   5.278  18.683  0.00  0.00    +0.000 C 
ATOM      5  C   UNL     1       4.352   4.119  19.646  0.00  0.00    +0.000 C 
ATOM      6  C   UNL     1       2.936   4.401  20.138  0.00  0.00    +0.000 C 
ATOM      7  C   UNL     1       2.241   3.171  20.718  0.00  0.00    +0.000 C 
ATOM      8  C   UNL     1       1.738   2.191  19.662  0.00  0.00    +0.000 C 
ATOM      9  C   UNL     1       0.904   2.902  18.603  0.00  0.00    +0.000 C 
ATOM     10  C   UNL     1       1.713   3.992  17.911  0.00  0.00    +0.000 C 
ATOM     11  C   UNL     1       2.264   5.021  18.905  0.00  0.00    +0.000 C 
ENDROOT
BRANCH   4  12
ATOM     12  C   UNL     1       5.526   4.766  17.502  0.00  0.00    +0.000 C 
ATOM     13  O   UNL     1       6.670   4.343  17.699  0.00  0.00    +0.000 OA
ATOM     14  N   UNL     1       4.961   4.938  16.253  0.00  0.00    +0.000 N 
ATOM     15  H   UNL     1       4.047   5.393  16.224  0.00  0.00    +0.000 HD
BRANCH  14  16
ATOM     16  C   UNL     1       5.612   4.697  15.019  0.00  0.00    +0.000 A 
ATOM     17  C   UNL     1       5.102   3.839  14.039  0.00  0.00    +0.000 A 
ATOM     18  C   UNL     1       5.811   3.587  12.863  0.00  0.00    +0.000 A 
ATOM     19  C   UNL     1       7.046   4.191  12.652  0.00  0.00    +0.000 A 
ATOM     20  C   UNL     1       7.557   5.065  13.610  0.00  0.00    +0.000 A 
ATOM     21  C   UNL     1       6.837   5.329  14.782  0.00  0.00    +0.000 A 
ENDBRANCH  14  16
ENDBRANCH   4  12
BRANCH   1  22
ATOM     22  C   UNL     1       1.834   7.602  17.471  0.00  0.00    +0.000 C 
BRANCH  22  23
ATOM     23  C   UNL     1       1.503   8.901  18.228  0.00  0.00    +0.000 C 
BRANCH  23  24
ATOM     24  N   UNL     1       2.059  10.061  17.503  0.00  0.00    +0.000 NA
ATOM     25  H   UNL     1       1.529  10.250  16.655  0.00  0.00    +0.000 HD
ATOM     26  H   UNL     1       3.025   9.882  17.225  0.00  0.00    +0.000 HD
ENDBRANCH  23  24
BRANCH  23  27
ATOM     27  C   UNL     1       2.021   8.911  19.692  0.00  0.00    +0.000 C 
BRANCH  27  28
ATOM     28  C   UNL     1       0.988   9.448  20.660  0.00  0.00    +0.000 A 
ATOM     29  C   UNL     1       0.770  10.831  20.778  0.00  0.00    +0.000 A 
ATOM     30  C   UNL     1      -0.097  11.316  21.751  0.00  0.00    +0.000 A 
ATOM     31  F   UNL     1      -0.258  12.639  21.885  0.00  0.00    +0.000 F 
ATOM     32  C   UNL     1      -0.777  10.439  22.589  0.00  0.00    +0.000 A 
ATOM     33  F   UNL     1      -1.596  10.914  23.538  0.00  0.00    +0.000 F 
ATOM     34  C   UNL     1      -0.611   9.066  22.456  0.00  0.00    +0.000 A 
ATOM     35  C   UNL     1       0.269   8.582  21.494  0.00  0.00    +0.000 A 
ATOM     36  F   UNL     1       0.436   7.256  21.387  0.00  0.00    +0.000 F 
ENDBRANCH  27  28
ENDBRANCH  23  27
ENDBRANCH  22  23
ENDBRANCH   1  22
TORSDOF 7
ENDMDL
MODEL 4
REMARK VINA RESULT:      -9.1      3.785      8.329
REMARK  Name = 
REMARK  7 active torsions:
REMARK  status: ('A' for Active; 'I' for Inactive)
REMARK    1  A    between atoms: N_1  and  C_2
REMARK    2  A    between atoms: C_2  and  C_3
REMARK    3  A    between atoms: C_2  and  C_24
REMARK    4  A    between atoms: C_3  and  C_4
REMARK    5  A    between atoms: C_7  and  C_8
REMARK    6  A    between atoms: N_10  and  C_11
REMARK    7  A    between atoms: C_24  and  C_25
REMARK                            x       y       z     vdW  Elec       q    Type
REMARK                         _______ _______ _______ _____ _____    ______ ____
ROOT
ATOM      1  C   UNL     1       4.122   6.896  17.532  0.00  0.00    +0.000 C 
ATOM      2  O   UNL     1       5.129   7.572  17.310  0.00  0.00    +0.000 OA
ATOM      3  N   UNL     1       4.237   5.582  17.941  0.00  0.00    +0.000 N 
ATOM      4  C   UNL     1       5.565   5.007  18.219  0.00  0.00    +0.000 C 
ATOM      5  C   UNL     1       5.281   3.759  19.072  0.00  0.00    +0.000 C 
ATOM      6  C   UNL     1       3.888   3.998  19.645  0.00  0.00    +0.000 C 
ATOM      7  C   UNL     1       3.203   2.720  20.125  0.00  0.00    +0.000 C 
ATOM      8  C   UNL     1       2.651   1.854  18.996  0.00  0.00    +0.000 C 
ATOM      9  C   UNL     1       1.784   2.673  18.048  0.00  0.00    +0.000 C 
ATOM     10  C   UNL     1       2.576   3.822  17.438  0.00  0.00    +0.000 C 
ATOM     11  C   UNL     1       3.174   4.743  18.508  0.00  0.00    +0.000 C 
ENDROOT
BRANCH   4  12
ATOM     12  C   UNL     1       6.378   4.612  16.961  0.00  0.00    +0.000 C 
ATOM     13  O   UNL     1       7.590   4.385  17.042  0.00  0.00    +0.000 OA
ATOM     14  N   UNL     1       5.670   4.658  15.774  0.00  0.00    +0.000 N 
ATOM     15  H   UNL     1       4.696   4.958  15.836  0.00  0.00    +0.000 HD
BRANCH  14  16
ATOM     16  C   UNL     1       6.225   4.495  14.482  0.00  0.00    +0.000 A 
ATOM     17  C   UNL     1       7.325   5.228  14.024  0.00  0.00    +0.000 A 
ATOM     18  C   UNL     1       7.800   5.074  12.720  0.00  0.00    +0.000 A 
ATOM     19  C   UNL     1       7.176   4.184  11.853  0.00  0.00    +0.000 A 
ATOM     20  C   UNL     1       6.092   3.431  12.302  0.00  0.00    +0.000 A 
ATOM     21  C   UNL     1       5.627   3.574  13.615  0.00  0.00    +0.000 A 
ENDBRANCH  14  16
ENDBRANCH   4  12
BRANCH   1  22
ATOM     22  C   UNL     1       2.715   7.458  17.358  0.00  0.00    +0.000 C 
BRANCH  22  23
ATOM     23  C   UNL     1       2.342   8.515  18.413  0.00  0.00    +0.000 C 
BRANCH  23  24
ATOM     24  N   UNL     1       2.016   7.854  19.693  0.00  0.00    +0.000 NA
ATOM     25  H   UNL     1       2.773   7.965  20.364  0.00  0.00    +0.000 HD
ATOM     26  H   UNL     1       1.875   6.853  19.556  0.00  0.00    +0.000 HD
ENDBRANCH  23  24
BRANCH  23  27
ATOM     27  C   UNL     1       1.158   9.424  17.986  0.00  0.00    +0.000 C 
BRANCH  27  28
ATOM     28  C   UNL     1       1.106  10.708  18.786  0.00  0.00    +0.000 A 
ATOM     29  C   UNL     1       1.994  11.761  18.507  0.00  0.00    +0.000 A 
ATOM     30  C   UNL     1       2.014  12.887  19.323  0.00  0.00    +0.000 A 
ATOM     31  F   UNL     1       2.901  13.860  19.076  0.00  0.00    +0.000 F 
ATOM     32  C   UNL     1       1.137  12.994  20.397  0.00  0.00    +0.000 A 
ATOM     33  F   UNL     1       1.175  14.073  21.191  0.00  0.00    +0.000 F 
ATOM     34  C   UNL     1       0.219  11.985  20.660  0.00  0.00    +0.000 A 
ATOM     35  C   UNL     1       0.211  10.852  19.854  0.00  0.00    +0.000 A 
ATOM     36  F   UNL     1      -0.667   9.876  20.127  0.00  0.00    +0.000 F 
ENDBRANCH  27  28
ENDBRANCH  23  27
ENDBRANCH  22  23
ENDBRANCH   1  22
TORSDOF 7
ENDMDL
MODEL 5
REMARK VINA RESULT:      -9.1      3.476      8.512
REMARK  Name = 
REMARK  7 active torsions:
REMARK  status: ('A' for Active; 'I' for Inactive)
REMARK    1  A    between atoms: N_1  and  C_2
REMARK    2  A    between atoms: C_2  and  C_3
REMARK    3  A    between atoms: C_2  and  C_24
REMARK    4  A    between atoms: C_3  and  C_4
REMARK    5  A    between atoms: C_7  and  C_8
REMARK    6  A    between atoms: N_10  and  C_11
REMARK    7  A    between atoms: C_24  and  C_25
REMARK                            x       y       z     vdW  Elec       q    Type
REMARK                         _______ _______ _______ _____ _____    ______ ____
ROOT
ATOM      1  C   UNL     1       4.092   6.890  17.534  0.00  0.00    +0.000 C 
ATOM      2  O   UNL     1       5.085   7.587  17.316  0.00  0.00    +0.000 OA
ATOM      3  N   UNL     1       4.233   5.580  17.947  0.00  0.00    +0.000 N 
ATOM      4  C   UNL     1       5.571   5.033  18.232  0.00  0.00    +0.000 C 
ATOM      5  C   UNL     1       5.310   3.781  19.086  0.00  0.00    +0.000 C 
ATOM      6  C   UNL     1       3.909   3.991  19.653  0.00  0.00    +0.000 C 
ATOM      7  C   UNL     1       3.250   2.700  20.132  0.00  0.00    +0.000 C 
ATOM      8  C   UNL     1       2.722   1.821  19.002  0.00  0.00    +0.000 C 
ATOM      9  C   UNL     1       1.842   2.619  18.048  0.00  0.00    +0.000 C 
ATOM     10  C   UNL     1       2.612   3.784  17.439  0.00  0.00    +0.000 C 
ATOM     11  C   UNL     1       3.186   4.719  18.511  0.00  0.00    +0.000 C 
ENDROOT
BRANCH   4  12
ATOM     12  C   UNL     1       6.398   4.654  16.978  0.00  0.00    +0.000 C 
ATOM     13  O   UNL     1       7.616   4.463  17.064  0.00  0.00    +0.000 OA
ATOM     14  N   UNL     1       5.692   4.670  15.790  0.00  0.00    +0.000 N 
ATOM     15  H   UNL     1       4.709   4.942  15.848  0.00  0.00    +0.000 HD
BRANCH  14  16
ATOM     16  C   UNL     1       6.254   4.514  14.500  0.00  0.00    +0.000 A 
ATOM     17  C   UNL     1       7.343   5.265  14.044  0.00  0.00    +0.000 A 
ATOM     18  C   UNL     1       7.825   5.117  12.742  0.00  0.00    +0.000 A 
ATOM     19  C   UNL     1       7.220   4.214  11.875  0.00  0.00    +0.000 A 
ATOM     20  C   UNL     1       6.148   3.443  12.322  0.00  0.00    +0.000 A 
ATOM     21  C   UNL     1       5.676   3.581  13.633  0.00  0.00    +0.000 A 
ENDBRANCH  14  16
ENDBRANCH   4  12
BRANCH   1  22
ATOM     22  C   UNL     1       2.673   7.421  17.353  0.00  0.00    +0.000 C 
BRANCH  22  23
ATOM     23  C   UNL     1       2.295   8.515  18.367  0.00  0.00    +0.000 C 
BRANCH  23  24
ATOM     24  N   UNL     1       1.985   7.904  19.675  0.00  0.00    +0.000 NA
ATOM     25  H   UNL     1       1.053   8.165  19.989  0.00  0.00    +0.000 HD
ATOM     26  H   UNL     1       2.645   8.221  20.386  0.00  0.00    +0.000 HD
ENDBRANCH  23  24
BRANCH  23  27
ATOM     27  C   UNL     1       1.096   9.392  17.911  0.00  0.00    +0.000 C 
BRANCH  27  28
ATOM     28  C   UNL     1       0.866  10.569  18.835  0.00  0.00    +0.000 A 
ATOM     29  C   UNL     1      -0.184  10.551  19.769  0.00  0.00    +0.000 A 
ATOM     30  C   UNL     1      -0.456  11.683  20.529  0.00  0.00    +0.000 A 
ATOM     31  F   UNL     1      -1.491  11.668  21.380  0.00  0.00    +0.000 F 
ATOM     32  C   UNL     1       0.326  12.826  20.396  0.00  0.00    +0.000 A 
ATOM     33  F   UNL     1       0.046  13.920  21.118  0.00  0.00    +0.000 F 
ATOM     34  C   UNL     1       1.398  12.847  19.514  0.00  0.00    +0.000 A 
ATOM     35  C   UNL     1       1.659  11.720  18.740  0.00  0.00    +0.000 A 
ATOM     36  F   UNL     1       2.685  11.758  17.878  0.00  0.00    +0.000 F 
ENDBRANCH  27  28
ENDBRANCH  23  27
ENDBRANCH  22  23
ENDBRANCH   1  22
TORSDOF 7
ENDMDL
MODEL 6
REMARK VINA RESULT:      -9.0      3.732      8.691
REMARK  Name = 
REMARK  7 active torsions:
REMARK  status: ('A' for Active; 'I' for Inactive)
REMARK    1  A    between atoms: N_1  and  C_2
REMARK    2  A    between atoms: C_2  and  C_3
REMARK    3  A    between atoms: C_2  and  C_24
REMARK    4  A    between atoms: C_3  and  C_4
REMARK    5  A    between atoms: C_7  and  C_8
REMARK    6  A    between atoms: N_10  and  C_11
REMARK    7  A    between atoms: C_24  and  C_25
REMARK                            x       y       z     vdW  Elec       q    Type
REMARK                         _______ _______ _______ _____ _____    ______ ____
ROOT
ATOM      1  C   UNL     1       3.398   7.209  17.700  0.00  0.00    +0.000 C 
ATOM      2  O   UNL     1       4.170   8.151  17.508  0.00  0.00    +0.000 OA
ATOM      3  N   UNL     1       3.888   5.935  17.907  0.00  0.00    +0.000 N 
ATOM      4  C   UNL     1       5.340   5.706  18.006  0.00  0.00    +0.000 C 
ATOM      5  C   UNL     1       5.476   4.335  18.689  0.00  0.00    +0.000 C 
ATOM      6  C   UNL     1       4.136   4.122  19.387  0.00  0.00    +0.000 C 
ATOM      7  C   UNL     1       3.855   2.659  19.725  0.00  0.00    +0.000 C 
ATOM      8  C   UNL     1       3.426   1.820  18.525  0.00  0.00    +0.000 C 
ATOM      9  C   UNL     1       2.284   2.484  17.767  0.00  0.00    +0.000 C 
ATOM     10  C   UNL     1       2.687   3.869  17.275  0.00  0.00    +0.000 C 
ATOM     11  C   UNL     1       3.140   4.780  18.422  0.00  0.00    +0.000 C 
ENDROOT
BRANCH   4  12
ATOM     12  C   UNL     1       6.089   5.697  16.650  0.00  0.00    +0.000 C 
ATOM     13  O   UNL     1       6.755   6.675  16.295  0.00  0.00    +0.000 OA
ATOM     14  N   UNL     1       5.848   4.588  15.861  0.00  0.00    +0.000 N 
ATOM     15  H   UNL     1       5.197   3.896  16.235  0.00  0.00    +0.000 HD
BRANCH  14  16
ATOM     16  C   UNL     1       6.287   4.421  14.526  0.00  0.00    +0.000 A 
ATOM     17  C   UNL     1       7.396   5.091  13.995  0.00  0.00    +0.000 A 
ATOM     18  C   UNL     1       7.754   4.940  12.655  0.00  0.00    +0.000 A 
ATOM     19  C   UNL     1       7.005   4.114  11.823  0.00  0.00    +0.000 A 
ATOM     20  C   UNL     1       5.911   3.424  12.343  0.00  0.00    +0.000 A 
ATOM     21  C   UNL     1       5.562   3.564  13.692  0.00  0.00    +0.000 A 
ENDBRANCH  14  16
ENDBRANCH   4  12
BRANCH   1  22
ATOM     22  C   UNL     1       1.884   7.391  17.708  0.00  0.00    +0.000 C 
BRANCH  22  23
ATOM     23  C   UNL     1       1.427   8.701  18.376  0.00  0.00    +0.000 C 
BRANCH  23  24
ATOM     24  N   UNL     1       1.841   9.855  17.554  0.00  0.00    +0.000 NA
ATOM     25  H   UNL     1       1.261  10.668  17.748  0.00  0.00    +0.000 HD
ATOM     26  H   UNL     1       1.743   9.643  16.560  0.00  0.00    +0.000 HD
ENDBRANCH  23  24
BRANCH  23  27
ATOM     27  C   UNL     1       1.966   8.877  19.822  0.00  0.00    +0.000 C 
BRANCH  27  28
ATOM     28  C   UNL     1       0.935   9.491  20.745  0.00  0.00    +0.000 A 
ATOM     29  C   UNL     1       0.792  10.886  20.831  0.00  0.00    +0.000 A 
ATOM     30  C   UNL     1      -0.077  11.437  21.767  0.00  0.00    +0.000 A 
ATOM     31  F   UNL     1      -0.165  12.770  21.873  0.00  0.00    +0.000 F 
ATOM     32  C   UNL     1      -0.832  10.617  22.597  0.00  0.00    +0.000 A 
ATOM     33  F   UNL     1      -1.653  11.155  23.509  0.00  0.00    +0.000 F 
ATOM     34  C   UNL     1      -0.741   9.235  22.493  0.00  0.00    +0.000 A 
ATOM     35  C   UNL     1       0.141   8.683  21.570  0.00  0.00    +0.000 A 
ATOM     36  F   UNL     1       0.235   7.348  21.490  0.00  0.00    +0.000 F 
ENDBRANCH  27  28
ENDBRANCH  23  27
ENDBRANCH  22  23
ENDBRANCH   1  22
TORSDOF 7
ENDMDL
MODEL 7
REMARK VINA RESULT:      -8.9      3.910      8.492
REMARK  Name = 
REMARK  7 active torsions:
REMARK  status: ('A' for Active; 'I' for Inactive)
REMARK    1  A    between atoms: N_1  and  C_2
REMARK    2  A    between atoms: C_2  and  C_3
REMARK    3  A    between atoms: C_2  and  C_24
REMARK    4  A    between atoms: C_3  and  C_4
REMARK    5  A    between atoms: C_7  and  C_8
REMARK    6  A    between atoms: N_10  and  C_11
REMARK    7  A    between atoms: C_24  and  C_25
REMARK                            x       y       z     vdW  Elec       q    Type
REMARK                         _______ _______ _______ _____ _____    ______ ____
ROOT
ATOM      1  C   UNL     1       3.268   7.080  17.749  0.00  0.00    +0.000 C 
ATOM      2  O   UNL     1       4.283   7.747  17.536  0.00  0.00    +0.000 OA
ATOM      3  N   UNL     1       3.365   5.818  18.302  0.00  0.00    +0.000 N 
ATOM      4  C   UNL     1       4.672   5.300  18.741  0.00  0.00    +0.000 C 
ATOM      5  C   UNL     1       4.335   4.142  19.697  0.00  0.00    +0.000 C 
ATOM      6  C   UNL     1       2.898   4.414  20.132  0.00  0.00    +0.000 C 
ATOM      7  C   UNL     1       2.191   3.180  20.689  0.00  0.00    +0.000 C 
ATOM      8  C   UNL     1       1.739   2.191  19.619  0.00  0.00    +0.000 C 
ATOM      9  C   UNL     1       0.941   2.890  18.525  0.00  0.00    +0.000 C 
ATOM     10  C   UNL     1       1.767   3.985  17.860  0.00  0.00    +0.000 C 
ATOM     11  C   UNL     1       2.269   5.023  18.871  0.00  0.00    +0.000 C 
ENDROOT
BRANCH   4  12
ATOM     12  C   UNL     1       5.586   4.791  17.598  0.00  0.00    +0.000 C 
ATOM     13  O   UNL     1       6.732   4.397  17.839  0.00  0.00    +0.000 OA
ATOM     14  N   UNL     1       5.060   4.932  16.328  0.00  0.00    +0.000 N 
ATOM     15  H   UNL     1       4.137   5.365  16.262  0.00  0.00    +0.000 HD
BRANCH  14  16
ATOM     16  C   UNL     1       5.757   4.689  15.121  0.00  0.00    +0.000 A 
ATOM     17  C   UNL     1       6.969   5.309  14.798  0.00  0.00    +0.000 A 
ATOM     18  C   UNL     1       7.589   5.082  13.568  0.00  0.00    +0.000 A 
ATOM     19  C   UNL     1       7.002   4.230  12.640  0.00  0.00    +0.000 A 
ATOM     20  C   UNL     1       5.805   3.587  12.956  0.00  0.00    +0.000 A 
ATOM     21  C   UNL     1       5.193   3.803  14.196  0.00  0.00    +0.000 A 
ENDBRANCH  14  16
ENDBRANCH   4  12
BRANCH   1  22
ATOM     22  C   UNL     1       1.873   7.594  17.409  0.00  0.00    +0.000 C 
BRANCH  22  23
ATOM     23  C   UNL     1       1.498   8.887  18.154  0.00  0.00    +0.000 C 
BRANCH  23  24
ATOM     24  N   UNL     1       2.326  10.008  17.665  0.00  0.00    +0.000 NA
ATOM     25  H   UNL     1       1.977  10.898  18.012  0.00  0.00    +0.000 HD
ATOM     26  H   UNL     1       2.307  10.050  16.645  0.00  0.00    +0.000 HD
ENDBRANCH  23  24
BRANCH  23  27
ATOM     27  C   UNL     1       1.642   8.775  19.697  0.00  0.00    +0.000 C 
BRANCH  27  28
ATOM     28  C   UNL     1       0.621   9.621  20.428  0.00  0.00    +0.000 A 
ATOM     29  C   UNL     1      -0.338  10.360  19.715  0.00  0.00    +0.000 A 
ATOM     30  C   UNL     1      -1.193  11.222  20.393  0.00  0.00    +0.000 A 
ATOM     31  F   UNL     1      -2.070  11.958  19.695  0.00  0.00    +0.000 F 
ATOM     32  C   UNL     1      -1.129  11.335  21.777  0.00  0.00    +0.000 A 
ATOM     33  F   UNL     1      -1.943  12.183  22.421  0.00  0.00    +0.000 F 
ATOM     34  C   UNL     1      -0.220  10.577  22.504  0.00  0.00    +0.000 A 
ATOM     35  C   UNL     1       0.647   9.728  21.825  0.00  0.00    +0.000 A 
ATOM     36  F   UNL     1       1.533   9.015  22.534  0.00  0.00    +0.000 F 
ENDBRANCH  27  28
ENDBRANCH  23  27
ENDBRANCH  22  23
ENDBRANCH   1  22
TORSDOF 7
ENDMDL
MODEL 8
REMARK VINA RESULT:      -8.9      3.793      8.400
REMARK  Name = 
REMARK  7 active torsions:
REMARK  status: ('A' for Active; 'I' for Inactive)
REMARK    1  A    between atoms: N_1  and  C_2
REMARK    2  A    between atoms: C_2  and  C_3
REMARK    3  A    between atoms: C_2  and  C_24
REMARK    4  A    between atoms: C_3  and  C_4
REMARK    5  A    between atoms: C_7  and  C_8
REMARK    6  A    between atoms: N_10  and  C_11
REMARK    7  A    between atoms: C_24  and  C_25
REMARK                            x       y       z     vdW  Elec       q    Type
REMARK                         _______ _______ _______ _____ _____    ______ ____
ROOT
ATOM      1  C   UNL     1       3.154   7.507  18.083  0.00  0.00    +0.000 C 
ATOM      2  O   UNL     1       3.927   8.405  17.743  0.00  0.00    +0.000 OA
ATOM      3  N   UNL     1       3.566   6.190  18.077  0.00  0.00    +0.000 N 
ATOM      4  C   UNL     1       4.967   5.853  17.767  0.00  0.00    +0.000 C 
ATOM      5  C   UNL     1       5.157   4.426  18.308  0.00  0.00    +0.000 C 
ATOM      6  C   UNL     1       4.036   4.252  19.328  0.00  0.00    +0.000 C 
ATOM      7  C   UNL     1       3.727   2.791  19.645  0.00  0.00    +0.000 C 
ATOM      8  C   UNL     1       2.924   2.080  18.559  0.00  0.00    +0.000 C 
ATOM      9  C   UNL     1       1.685   2.881  18.177  0.00  0.00    +0.000 C 
ATOM     10  C   UNL     1       2.064   4.268  17.674  0.00  0.00    +0.000 C 
ATOM     11  C   UNL     1       2.883   5.053  18.706  0.00  0.00    +0.000 C 
ENDROOT
BRANCH   4  12
ATOM     12  C   UNL     1       5.328   5.899  16.261  0.00  0.00    +0.000 C 
ATOM     13  O   UNL     1       4.956   6.842  15.555  0.00  0.00    +0.000 OA
ATOM     14  N   UNL     1       5.970   4.772  15.783  0.00  0.00    +0.000 N 
ATOM     15  H   UNL     1       6.131   4.020  16.456  0.00  0.00    +0.000 HD
BRANCH  14  16
ATOM     16  C   UNL     1       6.261   4.509  14.424  0.00  0.00    +0.000 A 
ATOM     17  C   UNL     1       5.513   3.625  13.638  0.00  0.00    +0.000 A 
ATOM     18  C   UNL     1       5.875   3.353  12.317  0.00  0.00    +0.000 A 
ATOM     19  C   UNL     1       6.996   3.962  11.764  0.00  0.00    +0.000 A 
ATOM     20  C   UNL     1       7.739   4.861  12.528  0.00  0.00    +0.000 A 
ATOM     21  C   UNL     1       7.365   5.145  13.847  0.00  0.00    +0.000 A 
ENDBRANCH  14  16
ENDBRANCH   4  12
BRANCH   1  22
ATOM     22  C   UNL     1       1.718   7.793  18.509  0.00  0.00    +0.000 C 
BRANCH  22  23
ATOM     23  C   UNL     1       1.612   8.506  19.869  0.00  0.00    +0.000 C 
BRANCH  23  24
ATOM     24  N   UNL     1       1.946   7.565  20.957  0.00  0.00    +0.000 NA
ATOM     25  H   UNL     1       2.031   8.051  21.847  0.00  0.00    +0.000 HD
ATOM     26  H   UNL     1       2.839   7.106  20.775  0.00  0.00    +0.000 HD
ENDBRANCH  23  24
BRANCH  23  27
ATOM     27  C   UNL     1       0.214   9.127  20.134  0.00  0.00    +0.000 C 
BRANCH  27  28
ATOM     28  C   UNL     1       0.078  10.508  19.529  0.00  0.00    +0.000 A 
ATOM     29  C   UNL     1       1.020  11.510  19.817  0.00  0.00    +0.000 A 
ATOM     30  C   UNL     1       0.820  12.805  19.349  0.00  0.00    +0.000 A 
ATOM     31  F   UNL     1       1.699  13.762  19.674  0.00  0.00    +0.000 F 
ATOM     32  C   UNL     1      -0.290  13.108  18.569  0.00  0.00    +0.000 A 
ATOM     33  F   UNL     1      -0.486  14.362  18.137  0.00  0.00    +0.000 F 
ATOM     34  C   UNL     1      -1.206  12.120  18.233  0.00  0.00    +0.000 A 
ATOM     35  C   UNL     1      -1.016  10.829  18.715  0.00  0.00    +0.000 A 
ATOM     36  F   UNL     1      -1.916   9.887  18.400  0.00  0.00    +0.000 F 
ENDBRANCH  27  28
ENDBRANCH  23  27
ENDBRANCH  22  23
ENDBRANCH   1  22
TORSDOF 7
ENDMDL
MODEL 9
REMARK VINA RESULT:      -8.9      3.779      8.286
REMARK  Name = 
REMARK  7 active torsions:
REMARK  status: ('A' for Active; 'I' for Inactive)
REMARK    1  A    between atoms: N_1  and  C_2
REMARK    2  A    between atoms: C_2  and  C_3
REMARK    3  A    between atoms: C_2  and  C_24
REMARK    4  A    between atoms: C_3  and  C_4
REMARK    5  A    between atoms: C_7  and  C_8
REMARK    6  A    between atoms: N_10  and  C_11
REMARK    7  A    between atoms: C_24  and  C_25
REMARK                            x       y       z     vdW  Elec       q    Type
REMARK                         _______ _______ _______ _____ _____    ______ ____
ROOT
ATOM      1  C   UNL     1       3.339   6.877  17.688  0.00  0.00    +0.000 C 
ATOM      2  O   UNL     1       4.313   7.367  17.113  0.00  0.00    +0.000 OA
ATOM      3  N   UNL     1       3.402   5.599  18.207  0.00  0.00    +0.000 N 
ATOM      4  C   UNL     1       4.669   4.847  18.171  0.00  0.00    +0.000 C 
ATOM      5  C   UNL     1       4.493   3.732  19.216  0.00  0.00    +0.000 C 
ATOM      6  C   UNL     1       3.372   4.231  20.122  0.00  0.00    +0.000 C 
ATOM      7  C   UNL     1       2.703   3.119  20.927  0.00  0.00    +0.000 C 
ATOM      8  C   UNL     1       1.739   2.262  20.112  0.00  0.00    +0.000 C 
ATOM      9  C   UNL     1       0.742   3.127  19.350  0.00  0.00    +0.000 C 
ATOM     10  C   UNL     1       1.458   4.086  18.407  0.00  0.00    +0.000 C 
ATOM     11  C   UNL     1       2.456   4.985  19.147  0.00  0.00    +0.000 C 
ENDROOT
BRANCH   4  12
ATOM     12  C   UNL     1       5.019   4.230  16.794  0.00  0.00    +0.000 C 
ATOM     13  O   UNL     1       4.893   3.016  16.600  0.00  0.00    +0.000 OA
ATOM     14  N   UNL     1       5.577   5.112  15.887  0.00  0.00    +0.000 N 
ATOM     15  H   UNL     1       5.717   6.070  16.211  0.00  0.00    +0.000 HD
BRANCH  14  16
ATOM     16  C   UNL     1       6.120   4.758  14.629  0.00  0.00    +0.000 A 
ATOM     17  C   UNL     1       7.328   5.273  14.145  0.00  0.00    +0.000 A 
ATOM     18  C   UNL     1       7.793   4.941  12.872  0.00  0.00    +0.000 A 
ATOM     19  C   UNL     1       7.053   4.087  12.061  0.00  0.00    +0.000 A 
ATOM     20  C   UNL     1       5.858   3.549  12.538  0.00  0.00    +0.000 A 
ATOM     21  C   UNL     1       5.400   3.871  13.821  0.00  0.00    +0.000 A 
ENDBRANCH  14  16
ENDBRANCH   4  12
BRANCH   1  22
ATOM     22  C   UNL     1       2.025   7.636  17.847  0.00  0.00    +0.000 C 
BRANCH  22  23
ATOM     23  C   UNL     1       2.126   8.842  18.799  0.00  0.00    +0.000 C 
BRANCH  23  24
ATOM     24  N   UNL     1       1.318   8.596  20.010  0.00  0.00    +0.000 NA
ATOM     25  H   UNL     1       1.804   8.917  20.844  0.00  0.00    +0.000 HD
ATOM     26  H   UNL     1       1.140   7.598  20.127  0.00  0.00    +0.000 HD
ENDBRANCH  23  24
BRANCH  23  27
ATOM     27  C   UNL     1       1.684  10.181  18.147  0.00  0.00    +0.000 C 
BRANCH  27  28
ATOM     28  C   UNL     1       0.219  10.477  18.389  0.00  0.00    +0.000 A 
ATOM     29  C   UNL     1      -0.776   9.803  17.660  0.00  0.00    +0.000 A 
ATOM     30  C   UNL     1      -2.111  10.167  17.808  0.00  0.00    +0.000 A 
ATOM     31  F   UNL     1      -3.044   9.550  17.070  0.00  0.00    +0.000 F 
ATOM     32  C   UNL     1      -2.472  11.172  18.698  0.00  0.00    +0.000 A 
ATOM     33  F   UNL     1      -3.758  11.531  18.821  0.00  0.00    +0.000 F 
ATOM     34  C   UNL     1      -1.508  11.816  19.462  0.00  0.00    +0.000 A 
ATOM     35  C   UNL     1      -0.172  11.465  19.301  0.00  0.00    +0.000 A 
ATOM     36  F   UNL     1       0.752  12.106  20.030  0.00  0.00    +0.000 F 
ENDBRANCH  27  28
ENDBRANCH  23  27
ENDBRANCH  22  23
ENDBRANCH   1  22
TORSDOF 7
ENDMDL
