MODEL 1
REMARK VINA RESULT:      -8.7      0.000      0.000
REMARK  Name = 
REMARK  9 active torsions:
REMARK  status: ('A' for Active; 'I' for Inactive)
REMARK    1  A    between atoms: C_1  and  C_2
REMARK    2  A    between atoms: C_2  and  O_4
REMARK    3  A    between atoms: O_4  and  C_5
REMARK    4  A    between atoms: C_5  and  C_6
REMARK    5  A    between atoms: C_8  and  C_9
REMARK    6  A    between atoms: C_12  and  C_13
REMARK    7  A    between atoms: C_13  and  O_14
REMARK    8  A    between atoms: C_13  and  C_15
REMARK    9  A    between atoms: C_15  and  C_16
REMARK                            x       y       z     vdW  Elec       q    Type
REMARK                         _______ _______ _______ _____ _____    ______ ____
ROOT
ATOM      1  C   UNL     1       6.219   4.890  15.837  0.00  0.00    +0.000 C 
ATOM      2  C   UNL     1       5.161   5.808  15.220  0.00  0.00    +0.000 C 
ATOM      3  C   UNL     1       7.372   5.650  16.520  0.00  0.00    +0.000 C 
ATOM      4  C   UNL     1       6.954   6.377  17.803  0.00  0.00    +0.000 C 
ATOM      5  C   UNL     1       8.164   7.057  18.442  0.00  0.00    +0.000 C 
ATOM      6  C   UNL     1       6.257   5.414  18.763  0.00  0.00    +0.000 C 
ATOM      7  O   UNL     1       6.480   5.411  19.974  0.00  0.00    +0.000 OA
ATOM      8  C   UNL     1       5.111   4.570  18.208  0.00  0.00    +0.000 C 
ATOM      9  C   UNL     1       5.574   3.941  16.883  0.00  0.00    +0.000 C 
ENDROOT
BRANCH   1  10
ATOM     10  O   UNL     1       6.738   4.005  14.792  0.00  0.00    +0.000 OA
BRANCH  10  12
ATOM     11  C   UNL     1       6.316   3.672  12.497  0.00  0.00    +0.000 C 
ATOM     12  C   UNL     1       7.004   4.489  13.544  0.00  0.00    +0.000 C 
ATOM     13  O   UNL     1       7.697   5.466  13.287  0.00  0.00    +0.000 OA
ENDBRANCH  10  12
ENDBRANCH   1  10
BRANCH   8  14
ATOM     14  C   UNL     1       3.810   5.417  18.247  0.00  0.00    +0.000 C 
BRANCH  14  15
ATOM     15  O   UNL     1       4.135   6.815  18.200  0.00  0.00    +0.000 OA
ATOM     16  H   UNL     1       4.940   6.954  17.662  0.00  0.00    +0.000 HD
ENDBRANCH  14  15
BRANCH  14  17
ATOM     17  C   UNL     1       2.943   5.241  19.511  0.00  0.00    +0.000 C 
BRANCH  17  18
ATOM     18  C   UNL     1       1.511   4.676  19.246  0.00  0.00    +0.000 C 
ATOM     19  C   UNL     1       1.437   3.632  18.128  0.00  0.00    +0.000 C 
ATOM     20  C   UNL     1       2.125   2.350  18.524  0.00  0.00    +0.000 C 
ATOM     21  O   UNL     1       2.847   1.723  17.756  0.00  0.00    +0.000 OA
ATOM     22  N   UNL     1       1.903   1.919  19.805  0.00  0.00    +0.000 N 
ATOM     23  C   UNL     1       1.572   2.731  20.857  0.00  0.00    +0.000 C 
ATOM     24  O   UNL     1       1.805   2.394  22.014  0.00  0.00    +0.000 OA
ATOM     25  C   UNL     1       0.908   4.043  20.508  0.00  0.00    +0.000 C 
ATOM     26  H   UNL     1       2.389   1.071  20.061  0.00  0.00    +0.000 HD
ENDBRANCH  17  18
ENDBRANCH  14  17
ENDBRANCH   8  14
TORSDOF 6
ENDMDL
MODEL 2
REMARK VINA RESULT:      -8.4      1.480      1.582
REMARK  Name = 
REMARK  9 active torsions:
REMARK  status: ('A' for Active; 'I' for Inactive)
REMARK    1  A    between atoms: C_1  and  C_2
REMARK    2  A    between atoms: C_2  and  O_4
REMARK    3  A    between atoms: O_4  and  C_5
REMARK    4  A    between atoms: C_5  and  C_6
REMARK    5  A    between atoms: C_8  and  C_9
REMARK    6  A    between atoms: C_12  and  C_13
REMARK    7  A    between atoms: C_13  and  O_14
REMARK    8  A    between atoms: C_13  and  C_15
REMARK    9  A    between atoms: C_15  and  C_16
REMARK                            x       y       z     vdW  Elec       q    Type
REMARK                         _______ _______ _______ _____ _____    ______ ____
ROOT
ATOM      1  C   UNL     1       5.842   5.959  16.175  0.00  0.00    +0.000 C 
ATOM      2  C   UNL     1       4.460   6.457  16.605  0.00  0.00    +0.000 C 
ATOM      3  C   UNL     1       6.997   6.862  16.649  0.00  0.00    +0.000 C 
ATOM      4  C   UNL     1       7.225   6.825  18.164  0.00  0.00    +0.000 C 
ATOM      5  C   UNL     1       8.418   7.702  18.540  0.00  0.00    +0.000 C 
ATOM      6  C   UNL     1       7.390   5.385  18.647  0.00  0.00    +0.000 C 
ATOM      7  O   UNL     1       8.244   5.059  19.473  0.00  0.00    +0.000 OA
ATOM      8  C   UNL     1       6.330   4.371  18.223  0.00  0.00    +0.000 C 
ATOM      9  C   UNL     1       6.095   4.524  16.710  0.00  0.00    +0.000 C 
ENDROOT
BRANCH   1  10
ATOM     10  O   UNL     1       5.860   5.829  14.716  0.00  0.00    +0.000 OA
BRANCH  10  12
ATOM     11  C   UNL     1       6.213   3.842  13.499  0.00  0.00    +0.000 C 
ATOM     12  C   UNL     1       6.814   5.072  14.101  0.00  0.00    +0.000 C 
ATOM     13  O   UNL     1       8.006   5.345  14.024  0.00  0.00    +0.000 OA
ENDBRANCH  10  12
ENDBRANCH   1  10
BRANCH   8  14
ATOM     14  C   UNL     1       5.130   4.473  19.204  0.00  0.00    +0.000 C 
BRANCH  14  15
ATOM     15  O   UNL     1       5.436   3.784  20.425  0.00  0.00    +0.000 OA
ATOM     16  H   UNL     1       4.850   3.007  20.528  0.00  0.00    +0.000 HD
ENDBRANCH  14  15
BRANCH  14  17
ATOM     17  C   UNL     1       3.810   3.850  18.701  0.00  0.00    +0.000 C 
BRANCH  17  18
ATOM     18  C   UNL     1       2.539   4.723  18.955  0.00  0.00    +0.000 C 
ATOM     19  C   UNL     1       1.255   4.171  18.331  0.00  0.00    +0.000 C 
ATOM     20  C   UNL     1       0.809   2.902  19.014  0.00  0.00    +0.000 C 
ATOM     21  O   UNL     1       0.392   1.929  18.395  0.00  0.00    +0.000 OA
ATOM     22  N   UNL     1       0.901   2.892  20.381  0.00  0.00    +0.000 N 
ATOM     23  C   UNL     1       1.776   3.650  21.112  0.00  0.00    +0.000 C 
ATOM     24  O   UNL     1       2.120   3.308  22.240  0.00  0.00    +0.000 OA
ATOM     25  C   UNL     1       2.275   4.917  20.455  0.00  0.00    +0.000 C 
ATOM     26  H   UNL     1       0.620   2.027  20.821  0.00  0.00    +0.000 HD
ENDBRANCH  17  18
ENDBRANCH  14  17
ENDBRANCH   8  14
TORSDOF 6
ENDMDL
MODEL 3
REMARK VINA RESULT:      -8.1      1.184      1.934
REMARK  Name = 
REMARK  9 active torsions:
REMARK  status: ('A' for Active; 'I' for Inactive)
REMARK    1  A    between atoms: C_1  and  C_2
REMARK    2  A    between atoms: C_2  and  O_4
REMARK    3  A    between atoms: O_4  and  C_5
REMARK    4  A    between atoms: C_5  and  C_6
REMARK    5  A    between atoms: C_8  and  C_9
REMARK    6  A    between atoms: C_12  and  C_13
REMARK    7  A    between atoms: C_13  and  O_14
REMARK    8  A    between atoms: C_13  and  C_15
REMARK    9  A    between atoms: C_15  and  C_16
REMARK                            x       y       z     vdW  Elec       q    Type
REMARK                         _______ _______ _______ _____ _____    ______ ____
ROOT
ATOM      1  C   UNL     1       6.509   5.107  15.998  0.00  0.00    +0.000 C 
ATOM      2  C   UNL     1       5.235   5.795  15.503  0.00  0.00    +0.000 C 
ATOM      3  C   UNL     1       7.589   6.091  16.490  0.00  0.00    +0.000 C 
ATOM      4  C   UNL     1       7.221   6.808  17.793  0.00  0.00    +0.000 C 
ATOM      5  C   UNL     1       8.364   7.719  18.235  0.00  0.00    +0.000 C 
ATOM      6  C   UNL     1       6.835   5.797  18.872  0.00  0.00    +0.000 C 
ATOM      7  O   UNL     1       7.211   5.901  20.040  0.00  0.00    +0.000 OA
ATOM      8  C   UNL     1       5.794   4.739  18.510  0.00  0.00    +0.000 C 
ATOM      9  C   UNL     1       6.185   4.124  17.155  0.00  0.00    +0.000 C 
ENDROOT
BRANCH   1  10
ATOM     10  O   UNL     1       7.037   4.265  14.922  0.00  0.00    +0.000 OA
BRANCH  10  12
ATOM     11  C   UNL     1       6.519   4.088  12.630  0.00  0.00    +0.000 C 
ATOM     12  C   UNL     1       7.297   4.796  13.693  0.00  0.00    +0.000 C 
ATOM     13  O   UNL     1       8.050   5.736  13.463  0.00  0.00    +0.000 OA
ENDBRANCH  10  12
ENDBRANCH   1  10
BRANCH   8  14
ATOM     14  C   UNL     1       4.381   5.353  18.699  0.00  0.00    +0.000 C 
BRANCH  14  15
ATOM     15  O   UNL     1       4.216   5.795  20.055  0.00  0.00    +0.000 OA
ATOM     16  H   UNL     1       3.867   6.709  20.071  0.00  0.00    +0.000 HD
ENDBRANCH  14  15
BRANCH  14  17
ATOM     17  C   UNL     1       3.201   4.393  18.435  0.00  0.00    +0.000 C 
BRANCH  17  18
ATOM     18  C   UNL     1       3.491   2.896  18.773  0.00  0.00    +0.000 C 
ATOM     19  C   UNL     1       3.637   2.599  20.268  0.00  0.00    +0.000 C 
ATOM     20  C   UNL     1       2.325   2.754  20.993  0.00  0.00    +0.000 C 
ATOM     21  O   UNL     1       2.234   3.301  22.087  0.00  0.00    +0.000 OA
ATOM     22  N   UNL     1       1.223   2.250  20.356  0.00  0.00    +0.000 N 
ATOM     23  C   UNL     1       1.104   2.097  19.000  0.00  0.00    +0.000 C 
ATOM     24  O   UNL     1       0.002   2.063  18.461  0.00  0.00    +0.000 OA
ATOM     25  C   UNL     1       2.396   1.969  18.225  0.00  0.00    +0.000 C 
ATOM     26  H   UNL     1       0.348   2.381  20.845  0.00  0.00    +0.000 HD
ENDBRANCH  17  18
ENDBRANCH  14  17
ENDBRANCH   8  14
TORSDOF 6
ENDMDL
MODEL 4
REMARK VINA RESULT:      -8.1      2.359      6.330
REMARK  Name = 
REMARK  9 active torsions:
REMARK  status: ('A' for Active; 'I' for Inactive)
REMARK    1  A    between atoms: C_1  and  C_2
REMARK    2  A    between atoms: C_2  and  O_4
REMARK    3  A    between atoms: O_4  and  C_5
REMARK    4  A    between atoms: C_5  and  C_6
REMARK    5  A    between atoms: C_8  and  C_9
REMARK    6  A    between atoms: C_12  and  C_13
REMARK    7  A    between atoms: C_13  and  O_14
REMARK    8  A    between atoms: C_13  and  C_15
REMARK    9  A    between atoms: C_15  and  C_16
REMARK                            x       y       z     vdW  Elec       q    Type
REMARK                         _______ _______ _______ _____ _____    ______ ____
ROOT
ATOM      1  C   UNL     1       2.025   4.883  19.545  0.00  0.00    +0.000 C 
ATOM      2  C   UNL     1       3.449   4.488  19.942  0.00  0.00    +0.000 C 
ATOM      3  C   UNL     1       1.447   6.034  20.390  0.00  0.00    +0.000 C 
ATOM      4  C   UNL     1       2.117   7.387  20.128  0.00  0.00    +0.000 C 
ATOM      5  C   UNL     1       1.450   8.477  20.964  0.00  0.00    +0.000 C 
ATOM      6  C   UNL     1       2.105   7.712  18.635  0.00  0.00    +0.000 C 
ATOM      7  O   UNL     1       1.843   8.836  18.206  0.00  0.00    +0.000 OA
ATOM      8  C   UNL     1       2.623   6.643  17.674  0.00  0.00    +0.000 C 
ATOM      9  C   UNL     1       1.971   5.301  18.051  0.00  0.00    +0.000 C 
ENDROOT
BRANCH   1  10
ATOM     10  O   UNL     1       1.168   3.699  19.638  0.00  0.00    +0.000 OA
BRANCH  10  12
ATOM     11  C   UNL     1       1.506   2.484  21.629  0.00  0.00    +0.000 C 
ATOM     12  C   UNL     1       1.656   2.529  20.142  0.00  0.00    +0.000 C 
ATOM     13  O   UNL     1       2.143   1.615  19.486  0.00  0.00    +0.000 OA
ENDBRANCH  10  12
ENDBRANCH   1  10
BRANCH   8  14
ATOM     14  C   UNL     1       4.170   6.755  17.600  0.00  0.00    +0.000 C 
BRANCH  14  15
ATOM     15  O   UNL     1       4.577   8.104  17.876  0.00  0.00    +0.000 OA
ATOM     16  H   UNL     1       5.546   8.189  17.774  0.00  0.00    +0.000 HD
ENDBRANCH  14  15
BRANCH  14  17
ATOM     17  C   UNL     1       4.793   6.411  16.230  0.00  0.00    +0.000 C 
BRANCH  17  18
ATOM     18  C   UNL     1       4.928   4.882  15.941  0.00  0.00    +0.000 C 
ATOM     19  C   UNL     1       5.709   4.543  14.669  0.00  0.00    +0.000 C 
ATOM     20  C   UNL     1       7.171   4.885  14.810  0.00  0.00    +0.000 C 
ATOM     21  O   UNL     1       7.814   5.422  13.914  0.00  0.00    +0.000 OA
ATOM     22  N   UNL     1       7.749   4.565  16.009  0.00  0.00    +0.000 N 
ATOM     23  C   UNL     1       7.078   4.453  17.197  0.00  0.00    +0.000 C 
ATOM     24  O   UNL     1       7.660   4.595  18.269  0.00  0.00    +0.000 OA
ATOM     25  C   UNL     1       5.601   4.141  17.105  0.00  0.00    +0.000 C 
ATOM     26  H   UNL     1       8.723   4.820  16.095  0.00  0.00    +0.000 HD
ENDBRANCH  17  18
ENDBRANCH  14  17
ENDBRANCH   8  14
TORSDOF 6
ENDMDL
MODEL 5
REMARK VINA RESULT:      -8.1      2.455      6.457
REMARK  Name = 
REMARK  9 active torsions:
REMARK  status: ('A' for Active; 'I' for Inactive)
REMARK    1  A    between atoms: C_1  and  C_2
REMARK    2  A    between atoms: C_2  and  O_4
REMARK    3  A    between atoms: O_4  and  C_5
REMARK    4  A    between atoms: C_5  and  C_6
REMARK    5  A    between atoms: C_8  and  C_9
REMARK    6  A    between atoms: C_12  and  C_13
REMARK    7  A    between atoms: C_13  and  O_14
REMARK    8  A    between atoms: C_13  and  C_15
REMARK    9  A    between atoms: C_15  and  C_16
REMARK                            x       y       z     vdW  Elec       q    Type
REMARK                         _______ _______ _______ _____ _____    ______ ____
ROOT
ATOM      1  C   UNL     1       2.385   5.709  19.437  0.00  0.00    +0.000 C 
ATOM      2  C   UNL     1       1.725   5.508  18.071  0.00  0.00    +0.000 C 
ATOM      3  C   UNL     1       1.729   4.888  20.565  0.00  0.00    +0.000 C 
ATOM      4  C   UNL     1       1.961   3.379  20.442  0.00  0.00    +0.000 C 
ATOM      5  C   UNL     1       1.325   2.649  21.624  0.00  0.00    +0.000 C 
ATOM      6  C   UNL     1       3.452   3.074  20.307  0.00  0.00    +0.000 C 
ATOM      7  O   UNL     1       3.992   2.142  20.904  0.00  0.00    +0.000 OA
ATOM      8  C   UNL     1       4.237   3.841  19.245  0.00  0.00    +0.000 C 
ATOM      9  C   UNL     1       3.890   5.334  19.376  0.00  0.00    +0.000 C 
ENDROOT
BRANCH   1  10
ATOM     10  O   UNL     1       2.362   7.136  19.764  0.00  0.00    +0.000 OA
BRANCH  10  12
ATOM     11  C   UNL     1       1.212   9.056  19.026  0.00  0.00    +0.000 C 
ATOM     12  C   UNL     1       2.309   8.072  18.773  0.00  0.00    +0.000 C 
ATOM     13  O   UNL     1       3.056   8.132  17.803  0.00  0.00    +0.000 OA
ENDBRANCH  10  12
ENDBRANCH   1  10
BRANCH   8  14
ATOM     14  C   UNL     1       4.052   3.124  17.880  0.00  0.00    +0.000 C 
BRANCH  14  15
ATOM     15  O   UNL     1       4.153   1.702  18.057  0.00  0.00    +0.000 OA
ATOM     16  H   UNL     1       5.003   1.379  17.696  0.00  0.00    +0.000 HD
ENDBRANCH  14  15
BRANCH  14  17
ATOM     17  C   UNL     1       5.096   3.477  16.800  0.00  0.00    +0.000 C 
BRANCH  17  18
ATOM     18  C   UNL     1       4.773   4.765  15.977  0.00  0.00    +0.000 C 
ATOM     19  C   UNL     1       5.479   6.030  16.473  0.00  0.00    +0.000 C 
ATOM     20  C   UNL     1       6.965   5.964  16.231  0.00  0.00    +0.000 C 
ATOM     21  O   UNL     1       7.788   6.333  17.063  0.00  0.00    +0.000 OA
ATOM     22  N   UNL     1       7.355   5.458  15.019  0.00  0.00    +0.000 N 
ATOM     23  C   UNL     1       6.620   4.585  14.263  0.00  0.00    +0.000 C 
ATOM     24  O   UNL     1       7.161   3.848  13.443  0.00  0.00    +0.000 OA
ATOM     25  C   UNL     1       5.126   4.593  14.493  0.00  0.00    +0.000 C 
ATOM     26  H   UNL     1       8.355   5.400  14.882  0.00  0.00    +0.000 HD
ENDBRANCH  17  18
ENDBRANCH  14  17
ENDBRANCH   8  14
TORSDOF 6
ENDMDL
MODEL 6
REMARK VINA RESULT:      -8.0      1.217      1.516
REMARK  Name = 
REMARK  9 active torsions:
REMARK  status: ('A' for Active; 'I' for Inactive)
REMARK    1  A    between atoms: C_1  and  C_2
REMARK    2  A    between atoms: C_2  and  O_4
REMARK    3  A    between atoms: O_4  and  C_5
REMARK    4  A    between atoms: C_5  and  C_6
REMARK    5  A    between atoms: C_8  and  C_9
REMARK    6  A    between atoms: C_12  and  C_13
REMARK    7  A    between atoms: C_13  and  O_14
REMARK    8  A    between atoms: C_13  and  C_15
REMARK    9  A    between atoms: C_15  and  C_16
REMARK                            x       y       z     vdW  Elec       q    Type
REMARK                         _______ _______ _______ _____ _____    ______ ____
ROOT
ATOM      1  C   UNL     1       6.242   4.982  15.970  0.00  0.00    +0.000 C 
ATOM      2  C   UNL     1       5.169   5.906  15.392  0.00  0.00    +0.000 C 
ATOM      3  C   UNL     1       7.436   5.735  16.589  0.00  0.00    +0.000 C 
ATOM      4  C   UNL     1       7.088   6.482  17.881  0.00  0.00    +0.000 C 
ATOM      5  C   UNL     1       8.334   7.153  18.455  0.00  0.00    +0.000 C 
ATOM      6  C   UNL     1       6.424   5.540  18.884  0.00  0.00    +0.000 C 
ATOM      7  O   UNL     1       6.704   5.548  20.084  0.00  0.00    +0.000 OA
ATOM      8  C   UNL     1       5.243   4.704  18.394  0.00  0.00    +0.000 C 
ATOM      9  C   UNL     1       5.636   4.054  17.057  0.00  0.00    +0.000 C 
ENDROOT
BRANCH   1  10
ATOM     10  O   UNL     1       6.701   4.078  14.912  0.00  0.00    +0.000 OA
BRANCH  10  12
ATOM     11  C   UNL     1       6.054   3.788  12.665  0.00  0.00    +0.000 C 
ATOM     12  C   UNL     1       6.898   4.540  13.644  0.00  0.00    +0.000 C 
ATOM     13  O   UNL     1       7.648   5.456  13.323  0.00  0.00    +0.000 OA
ENDBRANCH  10  12
ENDBRANCH   1  10
BRANCH   8  14
ATOM     14  C   UNL     1       3.956   5.569  18.483  0.00  0.00    +0.000 C 
BRANCH  14  15
ATOM     15  O   UNL     1       3.959   6.327  19.702  0.00  0.00    +0.000 OA
ATOM     16  H   UNL     1       3.215   6.962  19.704  0.00  0.00    +0.000 HD
ENDBRANCH  14  15
BRANCH  14  17
ATOM     17  C   UNL     1       2.629   4.781  18.494  0.00  0.00    +0.000 C 
BRANCH  17  18
ATOM     18  C   UNL     1       2.343   4.003  19.819  0.00  0.00    +0.000 C 
ATOM     19  C   UNL     1       0.951   3.370  19.896  0.00  0.00    +0.000 C 
ATOM     20  C   UNL     1       0.807   2.231  18.918  0.00  0.00    +0.000 C 
ATOM     21  O   UNL     1      -0.203   2.064  18.243  0.00  0.00    +0.000 OA
ATOM     22  N   UNL     1       1.879   1.385  18.819  0.00  0.00    +0.000 N 
ATOM     23  C   UNL     1       3.175   1.727  19.101  0.00  0.00    +0.000 C 
ATOM     24  O   UNL     1       4.114   1.113  18.603  0.00  0.00    +0.000 OA
ATOM     25  C   UNL     1       3.370   2.886  20.053  0.00  0.00    +0.000 C 
ATOM     26  H   UNL     1       1.775   0.641  18.144  0.00  0.00    +0.000 HD
ENDBRANCH  17  18
ENDBRANCH  14  17
ENDBRANCH   8  14
TORSDOF 6
ENDMDL
MODEL 7
REMARK VINA RESULT:      -7.9      1.592      2.153
REMARK  Name = 
REMARK  9 active torsions:
REMARK  status: ('A' for Active; 'I' for Inactive)
REMARK    1  A    between atoms: C_1  and  C_2
REMARK    2  A    between atoms: C_2  and  O_4
REMARK    3  A    between atoms: O_4  and  C_5
REMARK    4  A    between atoms: C_5  and  C_6
REMARK    5  A    between atoms: C_8  and  C_9
REMARK    6  A    between atoms: C_12  and  C_13
REMARK    7  A    between atoms: C_13  and  O_14
REMARK    8  A    between atoms: C_13  and  C_15
REMARK    9  A    between atoms: C_15  and  C_16
REMARK                            x       y       z     vdW  Elec       q    Type
REMARK                         _______ _______ _______ _____ _____    ______ ____
ROOT
ATOM      1  C   UNL     1       5.870   5.965  16.001  0.00  0.00    +0.000 C 
ATOM      2  C   UNL     1       4.480   6.501  16.352  0.00  0.00    +0.000 C 
ATOM      3  C   UNL     1       7.020   6.848  16.522  0.00  0.00    +0.000 C 
ATOM      4  C   UNL     1       7.169   6.828  18.047  0.00  0.00    +0.000 C 
ATOM      5  C   UNL     1       8.361   7.683  18.473  0.00  0.00    +0.000 C 
ATOM      6  C   UNL     1       7.275   5.391  18.557  0.00  0.00    +0.000 C 
ATOM      7  O   UNL     1       8.077   5.057  19.430  0.00  0.00    +0.000 OA
ATOM      8  C   UNL     1       6.214   4.395  18.092  0.00  0.00    +0.000 C 
ATOM      9  C   UNL     1       6.061   4.532  16.567  0.00  0.00    +0.000 C 
ENDROOT
BRANCH   1  10
ATOM     10  O   UNL     1       5.960   5.814  14.547  0.00  0.00    +0.000 OA
BRANCH  10  12
ATOM     11  C   UNL     1       6.380   3.835  13.339  0.00  0.00    +0.000 C 
ATOM     12  C   UNL     1       6.947   5.055  13.990  0.00  0.00    +0.000 C 
ATOM     13  O   UNL     1       8.144   5.321  13.996  0.00  0.00    +0.000 OA
ENDBRANCH  10  12
ENDBRANCH   1  10
BRANCH   8  14
ATOM     14  C   UNL     1       4.969   4.539  19.008  0.00  0.00    +0.000 C 
BRANCH  14  15
ATOM     15  O   UNL     1       5.345   5.144  20.254  0.00  0.00    +0.000 OA
ATOM     16  H   UNL     1       4.555   5.271  20.818  0.00  0.00    +0.000 HD
ENDBRANCH  14  15
BRANCH  14  17
ATOM     17  C   UNL     1       4.272   3.216  19.389  0.00  0.00    +0.000 C 
BRANCH  17  18
ATOM     18  C   UNL     1       2.807   3.075  18.864  0.00  0.00    +0.000 C 
ATOM     19  C   UNL     1       1.880   2.267  19.777  0.00  0.00    +0.000 C 
ATOM     20  C   UNL     1       1.599   2.998  21.065  0.00  0.00    +0.000 C 
ATOM     21  O   UNL     1       1.586   2.436  22.155  0.00  0.00    +0.000 OA
ATOM     22  N   UNL     1       1.359   4.342  20.953  0.00  0.00    +0.000 N 
ATOM     23  C   UNL     1       1.825   5.138  19.941  0.00  0.00    +0.000 C 
ATOM     24  O   UNL     1       1.959   6.348  20.100  0.00  0.00    +0.000 OA
ATOM     25  C   UNL     1       2.152   4.444  18.639  0.00  0.00    +0.000 C 
ATOM     26  H   UNL     1       1.194   4.820  21.827  0.00  0.00    +0.000 HD
ENDBRANCH  17  18
ENDBRANCH  14  17
ENDBRANCH   8  14
TORSDOF 6
ENDMDL
MODEL 8
REMARK VINA RESULT:      -7.8      1.106      1.241
REMARK  Name = 
REMARK  9 active torsions:
REMARK  status: ('A' for Active; 'I' for Inactive)
REMARK    1  A    between atoms: C_1  and  C_2
REMARK    2  A    between atoms: C_2  and  O_4
REMARK    3  A    between atoms: O_4  and  C_5
REMARK    4  A    between atoms: C_5  and  C_6
REMARK    5  A    between atoms: C_8  and  C_9
REMARK    6  A    between atoms: C_12  and  C_13
REMARK    7  A    between atoms: C_13  and  O_14
REMARK    8  A    between atoms: C_13  and  C_15
REMARK    9  A    between atoms: C_15  and  C_16
REMARK                            x       y       z     vdW  Elec       q    Type
REMARK                         _______ _______ _______ _____ _____    ______ ____
ROOT
ATOM      1  C   UNL     1       6.282   4.862  15.617  0.00  0.00    +0.000 C 
ATOM      2  C   UNL     1       5.195   5.726  14.973  0.00  0.00    +0.000 C 
ATOM      3  C   UNL     1       7.346   5.677  16.378  0.00  0.00    +0.000 C 
ATOM      4  C   UNL     1       6.818   6.334  17.658  0.00  0.00    +0.000 C 
ATOM      5  C   UNL     1       7.945   7.074  18.375  0.00  0.00    +0.000 C 
ATOM      6  C   UNL     1       6.142   5.297  18.554  0.00  0.00    +0.000 C 
ATOM      7  O   UNL     1       6.307   5.271  19.775  0.00  0.00    +0.000 OA
ATOM      8  C   UNL     1       5.086   4.395  17.920  0.00  0.00    +0.000 C 
ATOM      9  C   UNL     1       5.655   3.840  16.603  0.00  0.00    +0.000 C 
ENDROOT
BRANCH   1  10
ATOM     10  O   UNL     1       6.911   4.048  14.575  0.00  0.00    +0.000 OA
BRANCH  10  12
ATOM     11  C   UNL     1       6.469   3.778  12.276  0.00  0.00    +0.000 C 
ATOM     12  C   UNL     1       7.157   4.572  13.340  0.00  0.00    +0.000 C 
ATOM     13  O   UNL     1       7.834   5.567  13.106  0.00  0.00    +0.000 OA
ENDBRANCH  10  12
ENDBRANCH   1  10
BRANCH   8  14
ATOM     14  C   UNL     1       3.730   5.151  17.917  0.00  0.00    +0.000 C 
BRANCH  14  15
ATOM     15  O   UNL     1       3.946   6.546  18.176  0.00  0.00    +0.000 OA
ATOM     16  H   UNL     1       4.836   6.811  17.866  0.00  0.00    +0.000 HD
ENDBRANCH  14  15
BRANCH  14  17
ATOM     17  C   UNL     1       2.712   4.689  18.982  0.00  0.00    +0.000 C 
BRANCH  17  18
ATOM     18  C   UNL     1       2.238   3.208  18.833  0.00  0.00    +0.000 C 
ATOM     19  C   UNL     1       3.367   2.174  18.874  0.00  0.00    +0.000 C 
ATOM     20  C   UNL     1       3.987   2.086  20.245  0.00  0.00    +0.000 C 
ATOM     21  O   UNL     1       5.198   2.002  20.419  0.00  0.00    +0.000 OA
ATOM     22  N   UNL     1       3.115   2.109  21.301  0.00  0.00    +0.000 N 
ATOM     23  C   UNL     1       1.873   2.686  21.278  0.00  0.00    +0.000 C 
ATOM     24  O   UNL     1       1.330   3.060  22.314  0.00  0.00    +0.000 OA
ATOM     25  C   UNL     1       1.224   2.825  19.920  0.00  0.00    +0.000 C 
ATOM     26  H   UNL     1       3.548   2.071  22.213  0.00  0.00    +0.000 HD
ENDBRANCH  17  18
ENDBRANCH  14  17
ENDBRANCH   8  14
TORSDOF 6
ENDMDL
MODEL 9
REMARK VINA RESULT:      -7.6      3.750      5.501
REMARK  Name = 
REMARK  9 active torsions:
REMARK  status: ('A' for Active; 'I' for Inactive)
REMARK    1  A    between atoms: C_1  and  C_2
REMARK    2  A    between atoms: C_2  and  O_4
REMARK    3  A    between atoms: O_4  and  C_5
REMARK    4  A    between atoms: C_5  and  C_6
REMARK    5  A    between atoms: C_8  and  C_9
REMARK    6  A    between atoms: C_12  and  C_13
REMARK    7  A    between atoms: C_13  and  O_14
REMARK    8  A    between atoms: C_13  and  C_15
REMARK    9  A    between atoms: C_15  and  C_16
REMARK                            x       y       z     vdW  Elec       q    Type
REMARK                         _______ _______ _______ _____ _____    ______ ____
ROOT
ATOM      1  C   UNL     1       5.084   5.360  17.769  0.00  0.00    +0.000 C 
ATOM      2  C   UNL     1       5.621   5.450  19.199  0.00  0.00    +0.000 C 
ATOM      3  C   UNL     1       4.592   3.951  17.383  0.00  0.00    +0.000 C 
ATOM      4  C   UNL     1       3.313   3.525  18.113  0.00  0.00    +0.000 C 
ATOM      5  C   UNL     1       2.867   2.145  17.634  0.00  0.00    +0.000 C 
ATOM      6  C   UNL     1       2.220   4.579  17.942  0.00  0.00    +0.000 C 
ATOM      7  O   UNL     1       1.047   4.283  17.712  0.00  0.00    +0.000 OA
ATOM      8  C   UNL     1       2.580   6.029  18.259  0.00  0.00    +0.000 C 
ATOM      9  C   UNL     1       3.912   6.358  17.563  0.00  0.00    +0.000 C 
ENDROOT
BRANCH   1  10
ATOM     10  O   UNL     1       6.129   5.807  16.846  0.00  0.00    +0.000 OA
BRANCH  10  12
ATOM     11  C   UNL     1       6.921   4.715  14.914  0.00  0.00    +0.000 C 
ATOM     12  C   UNL     1       7.068   4.930  16.386  0.00  0.00    +0.000 C 
ATOM     13  O   UNL     1       7.934   4.388  17.063  0.00  0.00    +0.000 OA
ENDBRANCH  10  12
ENDBRANCH   1  10
BRANCH   8  14
ATOM     14  C   UNL     1       2.435   6.249  19.789  0.00  0.00    +0.000 C 
BRANCH  14  15
ATOM     15  O   UNL     1       1.332   5.480  20.292  0.00  0.00    +0.000 OA
ATOM     16  H   UNL     1       1.642   4.863  20.986  0.00  0.00    +0.000 HD
ENDBRANCH  14  15
BRANCH  14  17
ATOM     17  C   UNL     1       2.153   7.703  20.225  0.00  0.00    +0.000 C 
BRANCH  17  18
ATOM     18  C   UNL     1       0.647   8.117  20.178  0.00  0.00    +0.000 C 
ATOM     19  C   UNL     1       0.026   8.408  21.547  0.00  0.00    +0.000 C 
ATOM     20  C   UNL     1       0.596   9.663  22.157  0.00  0.00    +0.000 C 
ATOM     21  O   UNL     1       0.897   9.744  23.343  0.00  0.00    +0.000 OA
ATOM     22  N   UNL     1       0.768  10.722  21.305  0.00  0.00    +0.000 N 
ATOM     23  C   UNL     1       0.956  10.615  19.953  0.00  0.00    +0.000 C 
ATOM     24  O   UNL     1       1.519  11.504  19.321  0.00  0.00    +0.000 OA
ATOM     25  C   UNL     1       0.428   9.358  19.300  0.00  0.00    +0.000 C 
ATOM     26  H   UNL     1       1.171  11.547  21.725  0.00  0.00    +0.000 HD
ENDBRANCH  17  18
ENDBRANCH  14  17
ENDBRANCH   8  14
TORSDOF 6
ENDMDL
