MODEL 1
REMARK VINA RESULT:      -7.3      0.000      0.000
REMARK  Name = 
REMARK  16 active torsions:
REMARK  status: ('A' for Active; 'I' for Inactive)
REMARK    1  A    between atoms: C_1  and  O_2
REMARK    2  A    between atoms: O_2  and  C_3
REMARK    3  A    between atoms: C_3  and  C_5
REMARK    4  A    between atoms: C_5  and  C_6
REMARK    5  A    between atoms: C_5  and  N_10
REMARK    6  A    between atoms: C_6  and  C_7
REMARK    7  A    between atoms: C_7  and  C_8
REMARK    8  A    between atoms: C_7  and  C_9
REMARK    9  A    between atoms: N_10  and  P_11
REMARK   10  A    between atoms: P_11  and  O_13
REMARK   11  A    between atoms: P_11  and  O_14
REMARK   12  A    between atoms: O_14  and  C_15
REMARK   13  A    between atoms: C_15  and  C_16
REMARK   14  A    between atoms: C_18  and  N_19
REMARK   15  A    between atoms: C_21  and  C_22
REMARK   16  A    between atoms: C_29  and  N_30
REMARK                            x       y       z     vdW  Elec       q    Type
REMARK                         _______ _______ _______ _____ _____    ______ ____
ROOT
ATOM      1  C   UNL     1       1.380  10.126  19.351  0.00  0.00    +0.000 C 
ATOM      2  O   UNL     1       0.794  11.163  18.547  0.00  0.00    +0.000 OA
ATOM      3  C   UNL     1      -0.234  11.821  19.301  0.00  0.00    +0.000 C 
ATOM      4  C   UNL     1      -0.069  11.366  20.748  0.00  0.00    +0.000 C 
ATOM      5  C   UNL     1       0.517   9.984  20.609  0.00  0.00    +0.000 C 
ENDROOT
BRANCH   3   6
ATOM      6  N   UNL     1      -1.553  11.560  18.717  0.00  0.00    +0.000 N 
ATOM      7  C   UNL     1      -1.713  10.775  17.586  0.00  0.00    +0.000 A 
ATOM      8  C   UNL     1      -2.876  10.670  16.931  0.00  0.00    +0.000 A 
ATOM      9  C   UNL     1      -3.074   9.861  15.691  0.00  0.00    +0.000 C 
ATOM     10  C   UNL     1      -4.036  11.426  17.451  0.00  0.00    +0.000 A 
ATOM     11  O   UNL     1      -5.120  11.442  16.879  0.00  0.00    +0.000 OA
ATOM     12  N   UNL     1      -3.821  12.120  18.603  0.00  0.00    +0.000 N 
ATOM     13  C   UNL     1      -2.616  12.297  19.227  0.00  0.00    +0.000 A 
ATOM     14  O   UNL     1      -2.518  13.078  20.173  0.00  0.00    +0.000 OA
ATOM     15  H   UNL     1      -4.588  12.677  18.945  0.00  0.00    +0.000 HD
ENDBRANCH   3   6
BRANCH   5  16
ATOM     16  N   UNL     1       1.339   9.628  21.773  0.00  0.00    +0.000 NA
ATOM     17  N   UNL     1       0.761   9.628  22.877  0.00  0.00    +0.000 NA
ATOM     18  N   UNL     1       0.230   9.628  23.886  0.00  0.00    +0.000 NA
ENDBRANCH   5  16
BRANCH   1  19
ATOM     19  C   UNL     1       1.405   8.807  18.589  0.00  0.00    +0.000 C 
BRANCH  19  20
ATOM     20  O   UNL     1       2.734   8.315  18.370  0.00  0.00    +0.000 OA
BRANCH  20  21
ATOM     21  P   UNL     1       3.043   6.722  18.970  0.00  0.00    +0.000 P 
ATOM     22  O   UNL     1       2.053   6.112  17.975  0.00  0.00    +0.000 OA
BRANCH  21  23
ATOM     23  N   UNL     1       3.362   5.084  19.587  0.00  0.00    +0.000 NA
ATOM     24  H   UNL     1       4.058   5.135  20.321  0.00  0.00    +0.000 HD
BRANCH  23  25
ATOM     25  C   UNL     1       3.772   4.139  18.527  0.00  0.00    +0.000 C 
BRANCH  25  26
ATOM     26  C   UNL     1       3.161   2.735  18.647  0.00  0.00    +0.000 C 
ATOM     27  O   UNL     1       3.643   1.760  18.072  0.00  0.00    +0.000 OA
BRANCH  26  29
ATOM     28  C   UNL     1       0.842   2.476  18.851  0.00  0.00    +0.000 C 
ATOM     29  O   UNL     1       2.103   2.662  19.501  0.00  0.00    +0.000 OA
ENDBRANCH  26  29
ENDBRANCH  25  26
BRANCH  25  30
ATOM     30  C   UNL     1       5.306   4.046  18.395  0.00  0.00    +0.000 C 
BRANCH  30  31
ATOM     31  C   UNL     1       5.905   4.261  16.984  0.00  0.00    +0.000 C 
ATOM     32  C   UNL     1       5.188   5.335  16.167  0.00  0.00    +0.000 C 
ATOM     33  C   UNL     1       7.383   4.638  17.110  0.00  0.00    +0.000 C 
ENDBRANCH  30  31
ENDBRANCH  25  30
ENDBRANCH  23  25
ENDBRANCH  21  23
BRANCH  21  34
ATOM     34  O   UNL     1       2.200   6.983  20.341  0.00  0.00    +0.000 OA
ATOM     35  H   UNL     1       1.626   6.201  20.467  0.00  0.00    +0.000 HD
ENDBRANCH  21  34
ENDBRANCH  20  21
ENDBRANCH  19  20
ENDBRANCH   1  19
TORSDOF 12
ENDMDL
MODEL 2
REMARK VINA RESULT:      -7.2      1.512      2.510
REMARK  Name = 
REMARK  16 active torsions:
REMARK  status: ('A' for Active; 'I' for Inactive)
REMARK    1  A    between atoms: C_1  and  O_2
REMARK    2  A    between atoms: O_2  and  C_3
REMARK    3  A    between atoms: C_3  and  C_5
REMARK    4  A    between atoms: C_5  and  C_6
REMARK    5  A    between atoms: C_5  and  N_10
REMARK    6  A    between atoms: C_6  and  C_7
REMARK    7  A    between atoms: C_7  and  C_8
REMARK    8  A    between atoms: C_7  and  C_9
REMARK    9  A    between atoms: N_10  and  P_11
REMARK   10  A    between atoms: P_11  and  O_13
REMARK   11  A    between atoms: P_11  and  O_14
REMARK   12  A    between atoms: O_14  and  C_15
REMARK   13  A    between atoms: C_15  and  C_16
REMARK   14  A    between atoms: C_18  and  N_19
REMARK   15  A    between atoms: C_21  and  C_22
REMARK   16  A    between atoms: C_29  and  N_30
REMARK                            x       y       z     vdW  Elec       q    Type
REMARK                         _______ _______ _______ _____ _____    ______ ____
ROOT
ATOM      1  C   UNL     1       1.460   9.880  19.286  0.00  0.00    +0.000 C 
ATOM      2  O   UNL     1       0.869  11.029  18.657  0.00  0.00    +0.000 OA
ATOM      3  C   UNL     1      -0.239  11.482  19.448  0.00  0.00    +0.000 C 
ATOM      4  C   UNL     1      -0.140  10.758  20.788  0.00  0.00    +0.000 C 
ATOM      5  C   UNL     1       0.530   9.457  20.428  0.00  0.00    +0.000 C 
ENDROOT
BRANCH   3   6
ATOM      6  N   UNL     1      -1.502  11.284  18.731  0.00  0.00    +0.000 N 
ATOM      7  C   UNL     1      -1.575  10.542  17.562  0.00  0.00    +0.000 A 
ATOM      8  C   UNL     1      -2.671  10.499  16.795  0.00  0.00    +0.000 A 
ATOM      9  C   UNL     1      -2.772   9.738  15.513  0.00  0.00    +0.000 C 
ATOM     10  C   UNL     1      -3.853  11.276  17.228  0.00  0.00    +0.000 A 
ATOM     11  O   UNL     1      -4.875  11.347  16.555  0.00  0.00    +0.000 OA
ATOM     12  N   UNL     1      -3.730  11.924  18.419  0.00  0.00    +0.000 N 
ATOM     13  C   UNL     1      -2.587  12.039  19.163  0.00  0.00    +0.000 A 
ATOM     14  O   UNL     1      -2.558  12.786  20.140  0.00  0.00    +0.000 OA
ATOM     15  H   UNL     1      -4.509  12.495  18.706  0.00  0.00    +0.000 HD
ENDBRANCH   3   6
BRANCH   5  16
ATOM     16  N   UNL     1       1.296   8.915  21.558  0.00  0.00    +0.000 NA
ATOM     17  N   UNL     1       0.921   9.262  22.694  0.00  0.00    +0.000 NA
ATOM     18  N   UNL     1       0.578   9.580  23.734  0.00  0.00    +0.000 NA
ENDBRANCH   5  16
BRANCH   1  19
ATOM     19  C   UNL     1       1.607   8.739  18.288  0.00  0.00    +0.000 C 
BRANCH  19  20
ATOM     20  O   UNL     1       2.965   8.307  18.130  0.00  0.00    +0.000 OA
BRANCH  20  21
ATOM     21  P   UNL     1       3.173   6.623  17.788  0.00  0.00    +0.000 P 
ATOM     22  O   UNL     1       3.937   6.411  19.098  0.00  0.00    +0.000 OA
BRANCH  21  23
ATOM     23  N   UNL     1       3.386   4.892  17.437  0.00  0.00    +0.000 NA
ATOM     24  H   UNL     1       2.838   4.649  16.620  0.00  0.00    +0.000 HD
BRANCH  23  25
ATOM     25  C   UNL     1       3.045   4.026  18.585  0.00  0.00    +0.000 C 
BRANCH  25  26
ATOM     26  C   UNL     1       3.741   2.656  18.584  0.00  0.00    +0.000 C 
ATOM     27  O   UNL     1       3.381   1.740  17.847  0.00  0.00    +0.000 OA
BRANCH  26  29
ATOM     28  C   UNL     1       4.523   2.146  20.733  0.00  0.00    +0.000 C 
ATOM     29  O   UNL     1       4.826   2.586  19.404  0.00  0.00    +0.000 OA
ENDBRANCH  26  29
ENDBRANCH  25  26
BRANCH  25  30
ATOM     30  C   UNL     1       1.521   3.852  18.747  0.00  0.00    +0.000 C 
BRANCH  30  31
ATOM     31  C   UNL     1       0.939   4.046  20.168  0.00  0.00    +0.000 C 
ATOM     32  C   UNL     1       1.120   2.834  21.081  0.00  0.00    +0.000 C 
ATOM     33  C   UNL     1       1.594   5.263  20.824  0.00  0.00    +0.000 C 
ENDBRANCH  30  31
ENDBRANCH  25  30
ENDBRANCH  23  25
ENDBRANCH  21  23
BRANCH  21  34
ATOM     34  O   UNL     1       4.305   6.907  16.650  0.00  0.00    +0.000 OA
ATOM     35  H   UNL     1       5.169   6.710  17.062  0.00  0.00    +0.000 HD
ENDBRANCH  21  34
ENDBRANCH  20  21
ENDBRANCH  19  20
ENDBRANCH   1  19
TORSDOF 12
ENDMDL
MODEL 3
REMARK VINA RESULT:      -7.0      0.933      1.159
REMARK  Name = 
REMARK  16 active torsions:
REMARK  status: ('A' for Active; 'I' for Inactive)
REMARK    1  A    between atoms: C_1  and  O_2
REMARK    2  A    between atoms: O_2  and  C_3
REMARK    3  A    between atoms: C_3  and  C_5
REMARK    4  A    between atoms: C_5  and  C_6
REMARK    5  A    between atoms: C_5  and  N_10
REMARK    6  A    between atoms: C_6  and  C_7
REMARK    7  A    between atoms: C_7  and  C_8
REMARK    8  A    between atoms: C_7  and  C_9
REMARK    9  A    between atoms: N_10  and  P_11
REMARK   10  A    between atoms: P_11  and  O_13
REMARK   11  A    between atoms: P_11  and  O_14
REMARK   12  A    between atoms: O_14  and  C_15
REMARK   13  A    between atoms: C_15  and  C_16
REMARK   14  A    between atoms: C_18  and  N_19
REMARK   15  A    between atoms: C_21  and  C_22
REMARK   16  A    between atoms: C_29  and  N_30
REMARK                            x       y       z     vdW  Elec       q    Type
REMARK                         _______ _______ _______ _____ _____    ______ ____
ROOT
ATOM      1  C   UNL     1       1.316  10.049  19.464  0.00  0.00    +0.000 C 
ATOM      2  O   UNL     1       0.800  10.927  18.450  0.00  0.00    +0.000 OA
ATOM      3  C   UNL     1      -0.140  11.833  19.045  0.00  0.00    +0.000 C 
ATOM      4  C   UNL     1       0.031  11.705  20.556  0.00  0.00    +0.000 C 
ATOM      5  C   UNL     1       0.486  10.279  20.732  0.00  0.00    +0.000 C 
ENDROOT
BRANCH   3   6
ATOM      6  N   UNL     1      -1.496  11.573  18.552  0.00  0.00    +0.000 N 
ATOM      7  C   UNL     1      -1.734  10.759  17.456  0.00  0.00    +0.000 A 
ATOM      8  C   UNL     1      -2.937  10.651  16.878  0.00  0.00    +0.000 A 
ATOM      9  C   UNL     1      -3.220   9.810  15.676  0.00  0.00    +0.000 C 
ATOM     10  C   UNL     1      -4.054  11.435  17.447  0.00  0.00    +0.000 A 
ATOM     11  O   UNL     1      -5.171  11.449  16.943  0.00  0.00    +0.000 OA
ATOM     12  N   UNL     1      -3.760  12.158  18.563  0.00  0.00    +0.000 N 
ATOM     13  C   UNL     1      -2.516  12.337  19.106  0.00  0.00    +0.000 A 
ATOM     14  O   UNL     1      -2.351  13.143  20.021  0.00  0.00    +0.000 OA
ATOM     15  H   UNL     1      -4.498  12.734  18.936  0.00  0.00    +0.000 HD
ENDBRANCH   3   6
BRANCH   5  16
ATOM     16  N   UNL     1       1.311  10.121  21.937  0.00  0.00    +0.000 NA
ATOM     17  N   UNL     1       0.701   9.859  22.991  0.00  0.00    +0.000 NA
ATOM     18  N   UNL     1       0.142   9.619  23.955  0.00  0.00    +0.000 NA
ENDBRANCH   5  16
BRANCH   1  19
ATOM     19  C   UNL     1       1.199   8.596  19.024  0.00  0.00    +0.000 C 
BRANCH  19  20
ATOM     20  O   UNL     1       2.364   8.126  18.333  0.00  0.00    +0.000 OA
BRANCH  20  21
ATOM     21  P   UNL     1       3.169   6.781  19.066  0.00  0.00    +0.000 P 
ATOM     22  O   UNL     1       2.411   5.792  18.179  0.00  0.00    +0.000 OA
BRANCH  21  23
ATOM     23  N   UNL     1       3.998   5.399  19.820  0.00  0.00    +0.000 NA
ATOM     24  H   UNL     1       4.826   5.730  20.301  0.00  0.00    +0.000 HD
BRANCH  23  25
ATOM     25  C   UNL     1       4.333   4.332  18.854  0.00  0.00    +0.000 C 
BRANCH  25  26
ATOM     26  C   UNL     1       4.144   2.903  19.385  0.00  0.00    +0.000 C 
ATOM     27  O   UNL     1       4.995   2.342  20.072  0.00  0.00    +0.000 OA
BRANCH  26  29
ATOM     28  C   UNL     1       2.611   2.361  17.698  0.00  0.00    +0.000 C 
ATOM     29  O   UNL     1       2.929   2.360  19.094  0.00  0.00    +0.000 OA
ENDBRANCH  26  29
ENDBRANCH  25  26
BRANCH  25  30
ATOM     30  C   UNL     1       5.750   4.502  18.268  0.00  0.00    +0.000 C 
BRANCH  30  31
ATOM     31  C   UNL     1       6.494   5.817  18.602  0.00  0.00    +0.000 C 
ATOM     32  C   UNL     1       7.819   5.607  19.335  0.00  0.00    +0.000 C 
ATOM     33  C   UNL     1       6.761   6.593  17.310  0.00  0.00    +0.000 C 
ENDBRANCH  30  31
ENDBRANCH  25  30
ENDBRANCH  23  25
ENDBRANCH  21  23
BRANCH  21  34
ATOM     34  O   UNL     1       2.304   6.904  20.443  0.00  0.00    +0.000 OA
ATOM     35  H   UNL     1       2.935   6.784  21.180  0.00  0.00    +0.000 HD
ENDBRANCH  21  34
ENDBRANCH  20  21
ENDBRANCH  19  20
ENDBRANCH   1  19
TORSDOF 12
ENDMDL
MODEL 4
REMARK VINA RESULT:      -6.9      1.418      2.612
REMARK  Name = 
REMARK  16 active torsions:
REMARK  status: ('A' for Active; 'I' for Inactive)
REMARK    1  A    between atoms: C_1  and  O_2
REMARK    2  A    between atoms: O_2  and  C_3
REMARK    3  A    between atoms: C_3  and  C_5
REMARK    4  A    between atoms: C_5  and  C_6
REMARK    5  A    between atoms: C_5  and  N_10
REMARK    6  A    between atoms: C_6  and  C_7
REMARK    7  A    between atoms: C_7  and  C_8
REMARK    8  A    between atoms: C_7  and  C_9
REMARK    9  A    between atoms: N_10  and  P_11
REMARK   10  A    between atoms: P_11  and  O_13
REMARK   11  A    between atoms: P_11  and  O_14
REMARK   12  A    between atoms: O_14  and  C_15
REMARK   13  A    between atoms: C_15  and  C_16
REMARK   14  A    between atoms: C_18  and  N_19
REMARK   15  A    between atoms: C_21  and  C_22
REMARK   16  A    between atoms: C_29  and  N_30
REMARK                            x       y       z     vdW  Elec       q    Type
REMARK                         _______ _______ _______ _____ _____    ______ ____
ROOT
ATOM      1  C   UNL     1       1.398  10.252  19.469  0.00  0.00    +0.000 C 
ATOM      2  O   UNL     1       0.790  11.277  18.665  0.00  0.00    +0.000 OA
ATOM      3  C   UNL     1      -0.273  11.890  19.407  0.00  0.00    +0.000 C 
ATOM      4  C   UNL     1      -0.117  11.426  20.853  0.00  0.00    +0.000 C 
ATOM      5  C   UNL     1       0.520  10.067  20.711  0.00  0.00    +0.000 C 
ENDROOT
BRANCH   3   6
ATOM      6  N   UNL     1      -1.572  11.590  18.799  0.00  0.00    +0.000 N 
ATOM      7  C   UNL     1      -1.689  10.775  17.683  0.00  0.00    +0.000 A 
ATOM      8  C   UNL     1      -2.834  10.633  17.003  0.00  0.00    +0.000 A 
ATOM      9  C   UNL     1      -2.986   9.792  15.778  0.00  0.00    +0.000 C 
ATOM     10  C   UNL     1      -4.020  11.377  17.477  0.00  0.00    +0.000 A 
ATOM     11  O   UNL     1      -5.090  11.359  16.879  0.00  0.00    +0.000 OA
ATOM     12  N   UNL     1      -3.847  12.102  18.617  0.00  0.00    +0.000 N 
ATOM     13  C   UNL     1      -2.661  12.317  19.266  0.00  0.00    +0.000 A 
ATOM     14  O   UNL     1      -2.601  13.122  20.194  0.00  0.00    +0.000 OA
ATOM     15  H   UNL     1      -4.632  12.652  18.927  0.00  0.00    +0.000 HD
ENDBRANCH   3   6
BRANCH   5  16
ATOM     16  N   UNL     1       1.334   9.728  21.885  0.00  0.00    +0.000 NA
ATOM     17  N   UNL     1       0.739   9.700  22.979  0.00  0.00    +0.000 NA
ATOM     18  N   UNL     1       0.192   9.675  23.979  0.00  0.00    +0.000 NA
ENDBRANCH   5  16
BRANCH   1  19
ATOM     19  C   UNL     1       1.483   8.943  18.694  0.00  0.00    +0.000 C 
BRANCH  19  20
ATOM     20  O   UNL     1       2.175   7.914  19.412  0.00  0.00    +0.000 OA
BRANCH  20  21
ATOM     21  P   UNL     1       3.100   6.823  18.437  0.00  0.00    +0.000 P 
ATOM     22  O   UNL     1       3.363   7.914  17.395  0.00  0.00    +0.000 OA
BRANCH  21  23
ATOM     23  N   UNL     1       4.051   5.702  17.435  0.00  0.00    +0.000 NA
ATOM     24  H   UNL     1       3.420   5.122  16.894  0.00  0.00    +0.000 HD
BRANCH  23  25
ATOM     25  C   UNL     1       4.988   4.877  18.226  0.00  0.00    +0.000 C 
BRANCH  25  26
ATOM     26  C   UNL     1       6.460   4.987  17.798  0.00  0.00    +0.000 C 
ATOM     27  O   UNL     1       7.372   4.494  18.458  0.00  0.00    +0.000 OA
BRANCH  26  29
ATOM     28  C   UNL     1       6.971   4.706  15.529  0.00  0.00    +0.000 C 
ATOM     29  O   UNL     1       6.642   5.602  16.597  0.00  0.00    +0.000 OA
ENDBRANCH  26  29
ENDBRANCH  25  26
BRANCH  25  30
ATOM     30  C   UNL     1       4.556   3.397  18.279  0.00  0.00    +0.000 C 
BRANCH  30  31
ATOM     31  C   UNL     1       3.169   3.091  18.894  0.00  0.00    +0.000 C 
ATOM     32  C   UNL     1       2.371   2.039  18.124  0.00  0.00    +0.000 C 
ATOM     33  C   UNL     1       3.346   2.620  20.339  0.00  0.00    +0.000 C 
ENDBRANCH  30  31
ENDBRANCH  25  30
ENDBRANCH  23  25
ENDBRANCH  21  23
BRANCH  21  34
ATOM     34  O   UNL     1       1.775   6.024  17.924  0.00  0.00    +0.000 OA
ATOM     35  H   UNL     1       1.915   5.082  18.146  0.00  0.00    +0.000 HD
ENDBRANCH  21  34
ENDBRANCH  20  21
ENDBRANCH  19  20
ENDBRANCH   1  19
TORSDOF 12
ENDMDL
MODEL 5
REMARK VINA RESULT:      -6.8      1.464      2.776
REMARK  Name = 
REMARK  16 active torsions:
REMARK  status: ('A' for Active; 'I' for Inactive)
REMARK    1  A    between atoms: C_1  and  O_2
REMARK    2  A    between atoms: O_2  and  C_3
REMARK    3  A    between atoms: C_3  and  C_5
REMARK    4  A    between atoms: C_5  and  C_6
REMARK    5  A    between atoms: C_5  and  N_10
REMARK    6  A    between atoms: C_6  and  C_7
REMARK    7  A    between atoms: C_7  and  C_8
REMARK    8  A    between atoms: C_7  and  C_9
REMARK    9  A    between atoms: N_10  and  P_11
REMARK   10  A    between atoms: P_11  and  O_13
REMARK   11  A    between atoms: P_11  and  O_14
REMARK   12  A    between atoms: O_14  and  C_15
REMARK   13  A    between atoms: C_15  and  C_16
REMARK   14  A    between atoms: C_18  and  N_19
REMARK   15  A    between atoms: C_21  and  C_22
REMARK   16  A    between atoms: C_29  and  N_30
REMARK                            x       y       z     vdW  Elec       q    Type
REMARK                         _______ _______ _______ _____ _____    ______ ____
ROOT
ATOM      1  C   UNL     1       1.003  11.563  19.599  0.00  0.00    +0.000 C 
ATOM      2  O   UNL     1       0.113  12.545  19.043  0.00  0.00    +0.000 OA
ATOM      3  C   UNL     1      -1.038  12.672  19.889  0.00  0.00    +0.000 C 
ATOM      4  C   UNL     1      -0.700  11.950  21.191  0.00  0.00    +0.000 C 
ATOM      5  C   UNL     1       0.261  10.876  20.750  0.00  0.00    +0.000 C 
ENDROOT
BRANCH   3   6
ATOM      6  N   UNL     1      -2.240  12.185  19.207  0.00  0.00    +0.000 N 
ATOM      7  C   UNL     1      -2.171  11.457  18.029  0.00  0.00    +0.000 A 
ATOM      8  C   UNL     1      -3.250  11.159  17.294  0.00  0.00    +0.000 A 
ATOM      9  C   UNL     1      -3.207  10.407  16.003  0.00  0.00    +0.000 C 
ATOM     10  C   UNL     1      -4.568  11.628  17.773  0.00  0.00    +0.000 A 
ATOM     11  O   UNL     1      -5.598  11.459  17.131  0.00  0.00    +0.000 OA
ATOM     12  N   UNL     1      -4.565  12.277  18.970  0.00  0.00    +0.000 N 
ATOM     13  C   UNL     1      -3.459  12.656  19.682  0.00  0.00    +0.000 A 
ATOM     14  O   UNL     1      -3.577  13.379  20.670  0.00  0.00    +0.000 OA
ATOM     15  H   UNL     1      -5.448  12.643  19.288  0.00  0.00    +0.000 HD
ENDBRANCH   3   6
BRANCH   5  16
ATOM     16  N   UNL     1       1.188  10.508  21.828  0.00  0.00    +0.000 NA
ATOM     17  N   UNL     1       0.675  10.018  22.852  0.00  0.00    +0.000 NA
ATOM     18  N   UNL     1       0.205   9.570  23.789  0.00  0.00    +0.000 NA
ENDBRANCH   5  16
BRANCH   1  19
ATOM     19  C   UNL     1       1.391  10.534  18.545  0.00  0.00    +0.000 C 
BRANCH  19  20
ATOM     20  O   UNL     1       1.019   9.197  18.907  0.00  0.00    +0.000 OA
BRANCH  20  21
ATOM     21  P   UNL     1       2.011   7.946  18.240  0.00  0.00    +0.000 P 
ATOM     22  O   UNL     1       2.529   7.562  19.629  0.00  0.00    +0.000 OA
BRANCH  21  23
ATOM     23  N   UNL     1       3.031   6.659  17.555  0.00  0.00    +0.000 NA
ATOM     24  H   UNL     1       2.640   6.362  16.669  0.00  0.00    +0.000 HD
BRANCH  23  25
ATOM     25  C   UNL     1       3.205   5.513  18.472  0.00  0.00    +0.000 C 
BRANCH  25  26
ATOM     26  C   UNL     1       4.647   4.997  18.588  0.00  0.00    +0.000 C 
ATOM     27  O   UNL     1       5.000   4.238  19.489  0.00  0.00    +0.000 OA
BRANCH  26  29
ATOM     28  C   UNL     1       5.835   4.329  16.683  0.00  0.00    +0.000 C 
ATOM     29  O   UNL     1       5.460   5.389  17.568  0.00  0.00    +0.000 OA
ENDBRANCH  26  29
ENDBRANCH  25  26
BRANCH  25  30
ATOM     30  C   UNL     1       2.246   4.351  18.137  0.00  0.00    +0.000 C 
BRANCH  30  31
ATOM     31  C   UNL     1       1.730   3.502  19.323  0.00  0.00    +0.000 C 
ATOM     32  C   UNL     1       1.132   4.329  20.461  0.00  0.00    +0.000 C 
ATOM     33  C   UNL     1       0.675   2.514  18.821  0.00  0.00    +0.000 C 
ENDBRANCH  30  31
ENDBRANCH  25  30
ENDBRANCH  23  25
ENDBRANCH  21  23
BRANCH  21  34
ATOM     34  O   UNL     1       3.092   9.007  17.636  0.00  0.00    +0.000 OA
ATOM     35  H   UNL     1       3.579   8.536  16.931  0.00  0.00    +0.000 HD
ENDBRANCH  21  34
ENDBRANCH  20  21
ENDBRANCH  19  20
ENDBRANCH   1  19
TORSDOF 12
ENDMDL
MODEL 6
REMARK VINA RESULT:      -6.8      1.242      2.458
REMARK  Name = 
REMARK  16 active torsions:
REMARK  status: ('A' for Active; 'I' for Inactive)
REMARK    1  A    between atoms: C_1  and  O_2
REMARK    2  A    between atoms: O_2  and  C_3
REMARK    3  A    between atoms: C_3  and  C_5
REMARK    4  A    between atoms: C_5  and  C_6
REMARK    5  A    between atoms: C_5  and  N_10
REMARK    6  A    between atoms: C_6  and  C_7
REMARK    7  A    between atoms: C_7  and  C_8
REMARK    8  A    between atoms: C_7  and  C_9
REMARK    9  A    between atoms: N_10  and  P_11
REMARK   10  A    between atoms: P_11  and  O_13
REMARK   11  A    between atoms: P_11  and  O_14
REMARK   12  A    between atoms: O_14  and  C_15
REMARK   13  A    between atoms: C_15  and  C_16
REMARK   14  A    between atoms: C_18  and  N_19
REMARK   15  A    between atoms: C_21  and  C_22
REMARK   16  A    between atoms: C_29  and  N_30
REMARK                            x       y       z     vdW  Elec       q    Type
REMARK                         _______ _______ _______ _____ _____    ______ ____
ROOT
ATOM      1  C   UNL     1       1.386  10.142  19.215  0.00  0.00    +0.000 C 
ATOM      2  O   UNL     1       0.740  11.279  18.618  0.00  0.00    +0.000 OA
ATOM      3  C   UNL     1      -0.376  11.667  19.431  0.00  0.00    +0.000 C 
ATOM      4  C   UNL     1      -0.231  10.919  20.753  0.00  0.00    +0.000 C 
ATOM      5  C   UNL     1       0.488   9.655  20.357  0.00  0.00    +0.000 C 
ENDROOT
BRANCH   3   6
ATOM      6  N   UNL     1      -1.639  11.433  18.724  0.00  0.00    +0.000 N 
ATOM      7  C   UNL     1      -1.699  10.690  17.556  0.00  0.00    +0.000 A 
ATOM      8  C   UNL     1      -2.799  10.614  16.797  0.00  0.00    +0.000 A 
ATOM      9  C   UNL     1      -2.887   9.851  15.515  0.00  0.00    +0.000 C 
ATOM     10  C   UNL     1      -4.000  11.356  17.239  0.00  0.00    +0.000 A 
ATOM     11  O   UNL     1      -5.029  11.397  16.574  0.00  0.00    +0.000 OA
ATOM     12  N   UNL     1      -3.887  12.007  18.430  0.00  0.00    +0.000 N 
ATOM     13  C   UNL     1      -2.742  12.156  19.165  0.00  0.00    +0.000 A 
ATOM     14  O   UNL     1      -2.727  12.902  20.142  0.00  0.00    +0.000 OA
ATOM     15  H   UNL     1      -4.680  12.554  18.723  0.00  0.00    +0.000 HD
ENDBRANCH   3   6
BRANCH   5  16
ATOM     16  N   UNL     1       1.290   9.121  21.465  0.00  0.00    +0.000 NA
ATOM     17  N   UNL     1       0.885   9.384  22.614  0.00  0.00    +0.000 NA
ATOM     18  N   UNL     1       0.514   9.625  23.665  0.00  0.00    +0.000 NA
ENDBRANCH   5  16
BRANCH   1  19
ATOM     19  C   UNL     1       1.569   9.031  18.189  0.00  0.00    +0.000 C 
BRANCH  19  20
ATOM     20  O   UNL     1       2.865   8.422  18.251  0.00  0.00    +0.000 OA
BRANCH  20  21
ATOM     21  P   UNL     1       2.869   6.697  18.385  0.00  0.00    +0.000 P 
ATOM     22  O   UNL     1       1.491   6.603  17.725  0.00  0.00    +0.000 OA
BRANCH  21  23
ATOM     23  N   UNL     1       2.873   4.923  18.522  0.00  0.00    +0.000 NA
ATOM     24  H   UNL     1       1.972   4.614  18.866  0.00  0.00    +0.000 HD
BRANCH  23  25
ATOM     25  C   UNL     1       3.971   4.414  19.372  0.00  0.00    +0.000 C 
BRANCH  25  26
ATOM     26  C   UNL     1       5.348   4.382  18.690  0.00  0.00    +0.000 C 
ATOM     27  O   UNL     1       5.486   4.070  17.509  0.00  0.00    +0.000 OA
BRANCH  26  29
ATOM     28  C   UNL     1       7.269   5.714  18.840  0.00  0.00    +0.000 C 
ATOM     29  O   UNL     1       6.369   4.806  19.485  0.00  0.00    +0.000 OA
ENDBRANCH  26  29
ENDBRANCH  25  26
BRANCH  25  30
ATOM     30  C   UNL     1       3.643   3.036  19.980  0.00  0.00    +0.000 C 
BRANCH  30  31
ATOM     31  C   UNL     1       2.341   2.349  19.503  0.00  0.00    +0.000 C 
ATOM     32  C   UNL     1       1.067   3.086  19.913  0.00  0.00    +0.000 C 
ATOM     33  C   UNL     1       2.366   2.213  17.979  0.00  0.00    +0.000 C 
ENDBRANCH  30  31
ENDBRANCH  25  30
ENDBRANCH  23  25
ENDBRANCH  21  23
BRANCH  21  34
ATOM     34  O   UNL     1       2.595   6.736  19.991  0.00  0.00    +0.000 OA
ATOM     35  H   UNL     1       1.771   6.233  20.146  0.00  0.00    +0.000 HD
ENDBRANCH  21  34
ENDBRANCH  20  21
ENDBRANCH  19  20
ENDBRANCH   1  19
TORSDOF 12
ENDMDL
MODEL 7
REMARK VINA RESULT:      -6.8      2.464      9.020
REMARK  Name = 
REMARK  16 active torsions:
REMARK  status: ('A' for Active; 'I' for Inactive)
REMARK    1  A    between atoms: C_1  and  O_2
REMARK    2  A    between atoms: O_2  and  C_3
REMARK    3  A    between atoms: C_3  and  C_5
REMARK    4  A    between atoms: C_5  and  C_6
REMARK    5  A    between atoms: C_5  and  N_10
REMARK    6  A    between atoms: C_6  and  C_7
REMARK    7  A    between atoms: C_7  and  C_8
REMARK    8  A    between atoms: C_7  and  C_9
REMARK    9  A    between atoms: N_10  and  P_11
REMARK   10  A    between atoms: P_11  and  O_13
REMARK   11  A    between atoms: P_11  and  O_14
REMARK   12  A    between atoms: O_14  and  C_15
REMARK   13  A    between atoms: C_15  and  C_16
REMARK   14  A    between atoms: C_18  and  N_19
REMARK   15  A    between atoms: C_21  and  C_22
REMARK   16  A    between atoms: C_29  and  N_30
REMARK                            x       y       z     vdW  Elec       q    Type
REMARK                         _______ _______ _______ _____ _____    ______ ____
ROOT
ATOM      1  C   UNL     1       1.739   6.091  19.355  0.00  0.00    +0.000 C 
ATOM      2  O   UNL     1       2.289   6.199  18.032  0.00  0.00    +0.000 OA
ATOM      3  C   UNL     1       2.718   4.903  17.593  0.00  0.00    +0.000 C 
ATOM      4  C   UNL     1       2.129   3.895  18.575  0.00  0.00    +0.000 C 
ATOM      5  C   UNL     1       2.043   4.677  19.861  0.00  0.00    +0.000 C 
ENDROOT
BRANCH   3   6
ATOM      6  N   UNL     1       4.178   4.858  17.461  0.00  0.00    +0.000 N 
ATOM      7  C   UNL     1       4.959   5.998  17.561  0.00  0.00    +0.000 A 
ATOM      8  C   UNL     1       6.265   6.013  17.265  0.00  0.00    +0.000 A 
ATOM      9  C   UNL     1       7.129   7.230  17.328  0.00  0.00    +0.000 C 
ATOM     10  C   UNL     1       6.891   4.749  16.820  0.00  0.00    +0.000 A 
ATOM     11  O   UNL     1       8.063   4.685  16.466  0.00  0.00    +0.000 OA
ATOM     12  N   UNL     1       6.077   3.657  16.813  0.00  0.00    +0.000 N 
ATOM     13  C   UNL     1       4.726   3.654  17.032  0.00  0.00    +0.000 A 
ATOM     14  O   UNL     1       4.071   2.631  16.839  0.00  0.00    +0.000 OA
ATOM     15  H   UNL     1       6.476   2.798  16.468  0.00  0.00    +0.000 HD
ENDBRANCH   3   6
BRANCH   5  16
ATOM     16  N   UNL     1       0.959   4.182  20.720  0.00  0.00    +0.000 NA
ATOM     17  N   UNL     1       1.243   3.227  21.468  0.00  0.00    +0.000 NA
ATOM     18  N   UNL     1       1.503   2.352  22.152  0.00  0.00    +0.000 NA
ENDBRANCH   5  16
BRANCH   1  19
ATOM     19  C   UNL     1       2.372   7.120  20.283  0.00  0.00    +0.000 C 
BRANCH  19  20
ATOM     20  O   UNL     1       1.510   7.503  21.363  0.00  0.00    +0.000 OA
BRANCH  20  21
ATOM     21  P   UNL     1       0.546   8.912  21.078  0.00  0.00    +0.000 P 
ATOM     22  O   UNL     1       1.298   9.694  22.158  0.00  0.00    +0.000 OA
BRANCH  21  23
ATOM     23  N   UNL     1      -0.445  10.361  20.785  0.00  0.00    +0.000 NA
ATOM     24  H   UNL     1      -1.388  10.189  21.111  0.00  0.00    +0.000 HD
BRANCH  23  25
ATOM     25  C   UNL     1      -0.438  10.786  19.369  0.00  0.00    +0.000 C 
BRANCH  25  26
ATOM     26  C   UNL     1       0.749  11.678  18.973  0.00  0.00    +0.000 C 
ATOM     27  O   UNL     1       1.762  11.223  18.446  0.00  0.00    +0.000 OA
BRANCH  26  29
ATOM     28  C   UNL     1       1.139  13.510  20.380  0.00  0.00    +0.000 C 
ATOM     29  O   UNL     1       0.536  13.007  19.183  0.00  0.00    +0.000 OA
ENDBRANCH  26  29
ENDBRANCH  25  26
BRANCH  25  30
ATOM     30  C   UNL     1      -1.768  11.448  18.956  0.00  0.00    +0.000 C 
BRANCH  30  31
ATOM     31  C   UNL     1      -2.733  10.605  18.088  0.00  0.00    +0.000 C 
ATOM     32  C   UNL     1      -3.866  11.416  17.460  0.00  0.00    +0.000 C 
ATOM     33  C   UNL     1      -1.944   9.912  16.975  0.00  0.00    +0.000 C 
ENDBRANCH  30  31
ENDBRANCH  25  30
ENDBRANCH  23  25
ENDBRANCH  21  23
BRANCH  21  34
ATOM     34  O   UNL     1      -0.759   8.272  21.815  0.00  0.00    +0.000 OA
ATOM     35  H   UNL     1      -1.356   7.963  21.105  0.00  0.00    +0.000 HD
ENDBRANCH  21  34
ENDBRANCH  20  21
ENDBRANCH  19  20
ENDBRANCH   1  19
TORSDOF 12
ENDMDL
MODEL 8
REMARK VINA RESULT:      -6.8      0.914      1.250
REMARK  Name = 
REMARK  16 active torsions:
REMARK  status: ('A' for Active; 'I' for Inactive)
REMARK    1  A    between atoms: C_1  and  O_2
REMARK    2  A    between atoms: O_2  and  C_3
REMARK    3  A    between atoms: C_3  and  C_5
REMARK    4  A    between atoms: C_5  and  C_6
REMARK    5  A    between atoms: C_5  and  N_10
REMARK    6  A    between atoms: C_6  and  C_7
REMARK    7  A    between atoms: C_7  and  C_8
REMARK    8  A    between atoms: C_7  and  C_9
REMARK    9  A    between atoms: N_10  and  P_11
REMARK   10  A    between atoms: P_11  and  O_13
REMARK   11  A    between atoms: P_11  and  O_14
REMARK   12  A    between atoms: O_14  and  C_15
REMARK   13  A    between atoms: C_15  and  C_16
REMARK   14  A    between atoms: C_18  and  N_19
REMARK   15  A    between atoms: C_21  and  C_22
REMARK   16  A    between atoms: C_29  and  N_30
REMARK                            x       y       z     vdW  Elec       q    Type
REMARK                         _______ _______ _______ _____ _____    ______ ____
ROOT
ATOM      1  C   UNL     1       1.523  10.120  19.388  0.00  0.00    +0.000 C 
ATOM      2  O   UNL     1       0.934  11.160  18.590  0.00  0.00    +0.000 OA
ATOM      3  C   UNL     1      -0.124  11.783  19.332  0.00  0.00    +0.000 C 
ATOM      4  C   UNL     1       0.017  11.304  20.773  0.00  0.00    +0.000 C 
ATOM      5  C   UNL     1       0.635   9.937  20.623  0.00  0.00    +0.000 C 
ENDROOT
BRANCH   3   6
ATOM      6  N   UNL     1      -1.424  11.506  18.713  0.00  0.00    +0.000 N 
ATOM      7  C   UNL     1      -1.548  10.684  17.604  0.00  0.00    +0.000 A 
ATOM      8  C   UNL     1      -2.689  10.561  16.914  0.00  0.00    +0.000 A 
ATOM      9  C   UNL     1      -2.849   9.711  15.696  0.00  0.00    +0.000 C 
ATOM     10  C   UNL     1      -3.863  11.338  17.369  0.00  0.00    +0.000 A 
ATOM     11  O   UNL     1      -4.927  11.338  16.760  0.00  0.00    +0.000 OA
ATOM     12  N   UNL     1      -3.684  12.070  18.504  0.00  0.00    +0.000 N 
ATOM     13  C   UNL     1      -2.500  12.264  19.162  0.00  0.00    +0.000 A 
ATOM     14  O   UNL     1      -2.431  13.076  20.083  0.00  0.00    +0.000 OA
ATOM     15  H   UNL     1      -4.459  12.640  18.800  0.00  0.00    +0.000 HD
ENDBRANCH   3   6
BRANCH   5  16
ATOM     16  N   UNL     1       1.437   9.577  21.800  0.00  0.00    +0.000 NA
ATOM     17  N   UNL     1       0.842   9.578  22.894  0.00  0.00    +0.000 NA
ATOM     18  N   UNL     1       0.296   9.579  23.895  0.00  0.00    +0.000 NA
ENDBRANCH   5  16
BRANCH   1  19
ATOM     19  C   UNL     1       1.593   8.817  18.603  0.00  0.00    +0.000 C 
BRANCH  19  20
ATOM     20  O   UNL     1       1.801   7.672  19.439  0.00  0.00    +0.000 OA
BRANCH  20  21
ATOM     21  P   UNL     1       3.012   6.563  18.892  0.00  0.00    +0.000 P 
ATOM     22  O   UNL     1       3.523   7.570  17.859  0.00  0.00    +0.000 OA
BRANCH  21  23
ATOM     23  N   UNL     1       4.257   5.423  18.329  0.00  0.00    +0.000 NA
ATOM     24  H   UNL     1       5.025   5.944  17.923  0.00  0.00    +0.000 HD
BRANCH  23  25
ATOM     25  C   UNL     1       3.731   4.420  17.379  0.00  0.00    +0.000 C 
BRANCH  25  26
ATOM     26  C   UNL     1       2.956   3.264  18.030  0.00  0.00    +0.000 C 
ATOM     27  O   UNL     1       2.101   2.625  17.420  0.00  0.00    +0.000 OA
BRANCH  26  29
ATOM     28  C   UNL     1       2.285   2.825  20.231  0.00  0.00    +0.000 C 
ATOM     29  O   UNL     1       3.360   2.970  19.296  0.00  0.00    +0.000 OA
ENDBRANCH  26  29
ENDBRANCH  25  26
BRANCH  25  30
ATOM     30  C   UNL     1       4.831   3.870  16.449  0.00  0.00    +0.000 C 
BRANCH  30  31
ATOM     31  C   UNL     1       5.525   4.881  15.506  0.00  0.00    +0.000 C 
ATOM     32  C   UNL     1       6.908   5.324  15.985  0.00  0.00    +0.000 C 
ATOM     33  C   UNL     1       5.658   4.268  14.110  0.00  0.00    +0.000 C 
ENDBRANCH  30  31
ENDBRANCH  25  30
ENDBRANCH  23  25
ENDBRANCH  21  23
BRANCH  21  34
ATOM     34  O   UNL     1       1.926   5.631  18.110  0.00  0.00    +0.000 OA
ATOM     35  H   UNL     1       2.418   5.159  17.410  0.00  0.00    +0.000 HD
ENDBRANCH  21  34
ENDBRANCH  20  21
ENDBRANCH  19  20
ENDBRANCH   1  19
TORSDOF 12
ENDMDL
MODEL 9
REMARK VINA RESULT:      -6.7      1.397      1.873
REMARK  Name = 
REMARK  16 active torsions:
REMARK  status: ('A' for Active; 'I' for Inactive)
REMARK    1  A    between atoms: C_1  and  O_2
REMARK    2  A    between atoms: O_2  and  C_3
REMARK    3  A    between atoms: C_3  and  C_5
REMARK    4  A    between atoms: C_5  and  C_6
REMARK    5  A    between atoms: C_5  and  N_10
REMARK    6  A    between atoms: C_6  and  C_7
REMARK    7  A    between atoms: C_7  and  C_8
REMARK    8  A    between atoms: C_7  and  C_9
REMARK    9  A    between atoms: N_10  and  P_11
REMARK   10  A    between atoms: P_11  and  O_13
REMARK   11  A    between atoms: P_11  and  O_14
REMARK   12  A    between atoms: O_14  and  C_15
REMARK   13  A    between atoms: C_15  and  C_16
REMARK   14  A    between atoms: C_18  and  N_19
REMARK   15  A    between atoms: C_21  and  C_22
REMARK   16  A    between atoms: C_29  and  N_30
REMARK                            x       y       z     vdW  Elec       q    Type
REMARK                         _______ _______ _______ _____ _____    ______ ____
ROOT
ATOM      1  C   UNL     1       1.543   9.654  19.492  0.00  0.00    +0.000 C 
ATOM      2  O   UNL     1       0.946  10.919  19.160  0.00  0.00    +0.000 OA
ATOM      3  C   UNL     1      -0.264  11.081  19.912  0.00  0.00    +0.000 C 
ATOM      4  C   UNL     1      -0.258   9.995  20.984  0.00  0.00    +0.000 C 
ATOM      5  C   UNL     1       0.529   8.881  20.342  0.00  0.00    +0.000 C 
ENDROOT
BRANCH   3   6
ATOM      6  N   UNL     1      -1.432  11.066  19.025  0.00  0.00    +0.000 N 
ATOM      7  C   UNL     1      -1.454  10.324  17.854  0.00  0.00    +0.000 A 
ATOM      8  C   UNL     1      -2.427  10.435  16.941  0.00  0.00    +0.000 A 
ATOM      9  C   UNL     1      -2.463   9.677  15.654  0.00  0.00    +0.000 C 
ATOM     10  C   UNL     1      -3.525  11.390  17.208  0.00  0.00    +0.000 A 
ATOM     11  O   UNL     1      -4.420  11.604  16.399  0.00  0.00    +0.000 OA
ATOM     12  N   UNL     1      -3.471  12.031  18.408  0.00  0.00    +0.000 N 
ATOM     13  C   UNL     1      -2.437  11.984  19.304  0.00  0.00    +0.000 A 
ATOM     14  O   UNL     1      -2.431  12.733  20.280  0.00  0.00    +0.000 OA
ATOM     15  H   UNL     1      -4.186  12.718  18.586  0.00  0.00    +0.000 HD
ENDBRANCH   3   6
BRANCH   5  16
ATOM     16  N   UNL     1       1.208   8.052  21.346  0.00  0.00    +0.000 NA
ATOM     17  N   UNL     1       1.477   6.885  21.006  0.00  0.00    +0.000 NA
ATOM     18  N   UNL     1       1.722   5.816  20.694  0.00  0.00    +0.000 NA
ENDBRANCH   5  16
BRANCH   1  19
ATOM     19  C   UNL     1       1.867   8.868  18.228  0.00  0.00    +0.000 C 
BRANCH  19  20
ATOM     20  O   UNL     1       3.268   8.604  18.079  0.00  0.00    +0.000 OA
BRANCH  20  21
ATOM     21  P   UNL     1       3.670   7.002  17.561  0.00  0.00    +0.000 P 
ATOM     22  O   UNL     1       3.699   7.441  16.095  0.00  0.00    +0.000 OA
BRANCH  21  23
ATOM     23  N   UNL     1       4.084   5.356  17.029  0.00  0.00    +0.000 NA
ATOM     24  H   UNL     1       3.232   4.855  16.804  0.00  0.00    +0.000 HD
BRANCH  23  25
ATOM     25  C   UNL     1       4.891   4.616  18.022  0.00  0.00    +0.000 C 
BRANCH  25  26
ATOM     26  C   UNL     1       4.089   3.652  18.910  0.00  0.00    +0.000 C 
ATOM     27  O   UNL     1       4.557   3.169  19.940  0.00  0.00    +0.000 OA
BRANCH  26  29
ATOM     28  C   UNL     1       2.166   2.329  19.108  0.00  0.00    +0.000 C 
ATOM     29  O   UNL     1       2.807   3.454  18.497  0.00  0.00    +0.000 OA
ENDBRANCH  26  29
ENDBRANCH  25  26
BRANCH  25  30
ATOM     30  C   UNL     1       5.747   5.558  18.892  0.00  0.00    +0.000 C 
BRANCH  30  31
ATOM     31  C   UNL     1       7.258   5.637  18.566  0.00  0.00    +0.000 C 
ATOM     32  C   UNL     1       7.755   4.506  17.665  0.00  0.00    +0.000 C 
ATOM     33  C   UNL     1       7.565   6.977  17.893  0.00  0.00    +0.000 C 
ENDBRANCH  30  31
ENDBRANCH  25  30
ENDBRANCH  23  25
ENDBRANCH  21  23
BRANCH  21  34
ATOM     34  O   UNL     1       2.162   6.444  17.833  0.00  0.00    +0.000 OA
ATOM     35  H   UNL     1       1.627   6.700  17.056  0.00  0.00    +0.000 HD
ENDBRANCH  21  34
ENDBRANCH  20  21
ENDBRANCH  19  20
ENDBRANCH   1  19
TORSDOF 12
ENDMDL
