MODEL 1
REMARK VINA RESULT:      -6.9      0.000      0.000
REMARK  Name = 
REMARK  14 active torsions:
REMARK  status: ('A' for Active; 'I' for Inactive)
REMARK    1  A    between atoms: C_2  and  C_3
REMARK    2  A    between atoms: C_3  and  O_4
REMARK    3  A    between atoms: O_4  and  C_5
REMARK    4  A    between atoms: N_7  and  C_8
REMARK    5  A    between atoms: C_8  and  C_9
REMARK    6  A    between atoms: C_8  and  C_13
REMARK    7  A    between atoms: C_9  and  C_10
REMARK    8  A    between atoms: C_10  and  O_12
REMARK    9  A    between atoms: C_13  and  C_15
REMARK   10  A    between atoms: C_15  and  O_16
REMARK   11  A    between atoms: O_16  and  C_17
REMARK   12  A    between atoms: C_17  and  C_19
REMARK   13  A    between atoms: C_20  and  C_21
REMARK   14  A    between atoms: C_25  and  C_26
REMARK                            x       y       z     vdW  Elec       q    Type
REMARK                         _______ _______ _______ _____ _____    ______ ____
ROOT
ATOM      1  C   UNL     1       7.241   5.917  17.140  0.00  0.00    +0.000 C 
ENDROOT
BRANCH   1   4
ATOM      2  C   UNL     1       7.074   4.626  15.036  0.00  0.00    +0.000 C 
ATOM      3  O   UNL     1       7.892   5.317  14.452  0.00  0.00    +0.000 OA
ATOM      4  N   UNL     1       6.696   4.837  16.327  0.00  0.00    +0.000 N 
ATOM      5  H   UNL     1       6.036   4.188  16.748  0.00  0.00    +0.000 HD
BRANCH   2   6
ATOM      6  O   UNL     1       6.366   3.609  14.500  0.00  0.00    +0.000 OA
BRANCH   6   7
ATOM      7  C   UNL     1       5.519   3.975  13.402  0.00  0.00    +0.000 C 
BRANCH   7   9
ATOM      8  C   UNL     1       5.785   2.180  11.677  0.00  0.00    +0.000 C 
ATOM      9  C   UNL     1       6.081   3.400  12.142  0.00  0.00    +0.000 C 
ENDBRANCH   7   9
ENDBRANCH   6   7
ENDBRANCH   2   6
ENDBRANCH   1   4
BRANCH   1  10
ATOM     10  C   UNL     1       7.297   5.475  18.613  0.00  0.00    +0.000 C 
ATOM     11  O   UNL     1       8.035   6.042  19.430  0.00  0.00    +0.000 OA
BRANCH  10  12
ATOM     12  C   UNL     1       6.383   4.335  19.038  0.00  0.00    +0.000 C 
BRANCH  12  13
ATOM     13  O   UNL     1       5.036   4.615  18.627  0.00  0.00    +0.000 OA
BRANCH  13  14
ATOM     14  C   UNL     1       4.279   3.544  18.286  0.00  0.00    +0.000 C 
ATOM     15  O   UNL     1       4.430   2.873  17.279  0.00  0.00    +0.000 OA
BRANCH  14  16
ATOM     16  C   UNL     1       3.157   3.357  19.256  0.00  0.00    +0.000 A 
ATOM     17  C   UNL     1       1.895   3.974  19.069  0.00  0.00    +0.000 A 
ATOM     18  C   UNL     1       1.498   4.836  17.900  0.00  0.00    +0.000 C 
ATOM     19  C   UNL     1       0.906   3.813  20.060  0.00  0.00    +0.000 A 
ATOM     20  C   UNL     1       1.145   3.071  21.211  0.00  0.00    +0.000 A 
ATOM     21  C   UNL     1       2.378   2.457  21.390  0.00  0.00    +0.000 A 
ATOM     22  C   UNL     1       3.393   2.584  20.427  0.00  0.00    +0.000 A 
ATOM     23  C   UNL     1       4.693   1.867  20.694  0.00  0.00    +0.000 C 
ENDBRANCH  14  16
ENDBRANCH  13  14
ENDBRANCH  12  13
ENDBRANCH  10  12
ENDBRANCH   1  10
BRANCH   1  24
ATOM     24  C   UNL     1       6.521   7.251  16.917  0.00  0.00    +0.000 C 
BRANCH  24  25
ATOM     25  C   UNL     1       5.138   7.074  16.350  0.00  0.00    +0.000 C 
ATOM     26  O   UNL     1       4.890   7.066  15.156  0.00  0.00    +0.000 OA
BRANCH  25  27
ATOM     27  O   UNL     1       4.199   6.844  17.289  0.00  0.00    +0.000 OA
ATOM     28  H   UNL     1       4.238   7.439  18.063  0.00  0.00    +0.000 HD
ENDBRANCH  25  27
ENDBRANCH  24  25
ENDBRANCH   1  24
TORSDOF 12
ENDMDL
MODEL 2
REMARK VINA RESULT:      -6.5      1.875      4.522
REMARK  Name = 
REMARK  14 active torsions:
REMARK  status: ('A' for Active; 'I' for Inactive)
REMARK    1  A    between atoms: C_2  and  C_3
REMARK    2  A    between atoms: C_3  and  O_4
REMARK    3  A    between atoms: O_4  and  C_5
REMARK    4  A    between atoms: N_7  and  C_8
REMARK    5  A    between atoms: C_8  and  C_9
REMARK    6  A    between atoms: C_8  and  C_13
REMARK    7  A    between atoms: C_9  and  C_10
REMARK    8  A    between atoms: C_10  and  O_12
REMARK    9  A    between atoms: C_13  and  C_15
REMARK   10  A    between atoms: C_15  and  O_16
REMARK   11  A    between atoms: O_16  and  C_17
REMARK   12  A    between atoms: C_17  and  C_19
REMARK   13  A    between atoms: C_20  and  C_21
REMARK   14  A    between atoms: C_25  and  C_26
REMARK                            x       y       z     vdW  Elec       q    Type
REMARK                         _______ _______ _______ _____ _____    ______ ____
ROOT
ATOM      1  C   UNL     1       6.518   6.246  17.253  0.00  0.00    +0.000 C 
ENDROOT
BRANCH   1   4
ATOM      2  C   UNL     1       4.183   7.061  17.153  0.00  0.00    +0.000 C 
ATOM      3  O   UNL     1       4.313   7.540  16.040  0.00  0.00    +0.000 OA
ATOM      4  N   UNL     1       5.185   6.422  17.817  0.00  0.00    +0.000 N 
ATOM      5  H   UNL     1       4.979   6.018  18.728  0.00  0.00    +0.000 HD
BRANCH   2   6
ATOM      6  O   UNL     1       3.082   7.143  17.930  0.00  0.00    +0.000 OA
BRANCH   6   7
ATOM      7  C   UNL     1       2.331   8.356  17.788  0.00  0.00    +0.000 C 
BRANCH   7   9
ATOM      8  C   UNL     1       1.716   7.897  20.172  0.00  0.00    +0.000 C 
ATOM      9  C   UNL     1       1.732   8.714  19.111  0.00  0.00    +0.000 C 
ENDBRANCH   7   9
ENDBRANCH   6   7
ENDBRANCH   2   6
ENDBRANCH   1   4
BRANCH   1  10
ATOM     10  C   UNL     1       6.613   4.868  16.576  0.00  0.00    +0.000 C 
ATOM     11  O   UNL     1       7.686   4.442  16.128  0.00  0.00    +0.000 OA
BRANCH  10  12
ATOM     12  C   UNL     1       5.345   4.031  16.510  0.00  0.00    +0.000 C 
BRANCH  12  13
ATOM     13  O   UNL     1       4.946   3.649  17.836  0.00  0.00    +0.000 OA
BRANCH  13  14
ATOM     14  C   UNL     1       3.930   2.755  17.922  0.00  0.00    +0.000 C 
ATOM     15  O   UNL     1       3.678   1.901  17.090  0.00  0.00    +0.000 OA
BRANCH  14  16
ATOM     16  C   UNL     1       3.086   3.027  19.126  0.00  0.00    +0.000 A 
ATOM     17  C   UNL     1       3.450   2.563  20.414  0.00  0.00    +0.000 A 
ATOM     18  C   UNL     1       4.701   1.800  20.758  0.00  0.00    +0.000 C 
ATOM     19  C   UNL     1       2.572   2.793  21.493  0.00  0.00    +0.000 A 
ATOM     20  C   UNL     1       1.363   3.456  21.316  0.00  0.00    +0.000 A 
ATOM     21  C   UNL     1       1.011   3.920  20.055  0.00  0.00    +0.000 A 
ATOM     22  C   UNL     1       1.856   3.720  18.951  0.00  0.00    +0.000 A 
ATOM     23  C   UNL     1       1.403   4.275  17.623  0.00  0.00    +0.000 C 
ENDBRANCH  14  16
ENDBRANCH  13  14
ENDBRANCH  12  13
ENDBRANCH  10  12
ENDBRANCH   1  10
BRANCH   1  24
ATOM     24  C   UNL     1       7.634   6.523  18.265  0.00  0.00    +0.000 C 
BRANCH  24  25
ATOM     25  C   UNL     1       7.634   5.544  19.408  0.00  0.00    +0.000 C 
ATOM     26  O   UNL     1       8.641   5.184  19.994  0.00  0.00    +0.000 OA
BRANCH  25  27
ATOM     27  O   UNL     1       6.398   5.157  19.782  0.00  0.00    +0.000 OA
ATOM     28  H   UNL     1       6.201   4.212  19.634  0.00  0.00    +0.000 HD
ENDBRANCH  25  27
ENDBRANCH  24  25
ENDBRANCH   1  24
TORSDOF 12
ENDMDL
MODEL 3
REMARK VINA RESULT:      -6.5      2.677      5.135
REMARK  Name = 
REMARK  14 active torsions:
REMARK  status: ('A' for Active; 'I' for Inactive)
REMARK    1  A    between atoms: C_2  and  C_3
REMARK    2  A    between atoms: C_3  and  O_4
REMARK    3  A    between atoms: O_4  and  C_5
REMARK    4  A    between atoms: N_7  and  C_8
REMARK    5  A    between atoms: C_8  and  C_9
REMARK    6  A    between atoms: C_8  and  C_13
REMARK    7  A    between atoms: C_9  and  C_10
REMARK    8  A    between atoms: C_10  and  O_12
REMARK    9  A    between atoms: C_13  and  C_15
REMARK   10  A    between atoms: C_15  and  O_16
REMARK   11  A    between atoms: O_16  and  C_17
REMARK   12  A    between atoms: C_17  and  C_19
REMARK   13  A    between atoms: C_20  and  C_21
REMARK   14  A    between atoms: C_25  and  C_26
REMARK                            x       y       z     vdW  Elec       q    Type
REMARK                         _______ _______ _______ _____ _____    ______ ____
ROOT
ATOM      1  C   UNL     1       6.198   5.316  17.653  0.00  0.00    +0.000 C 
ENDROOT
BRANCH   1   4
ATOM      2  C   UNL     1       4.564   3.670  18.516  0.00  0.00    +0.000 C 
ATOM      3  O   UNL     1       5.230   3.405  19.503  0.00  0.00    +0.000 OA
ATOM      4  N   UNL     1       4.947   4.573  17.572  0.00  0.00    +0.000 N 
ATOM      5  H   UNL     1       4.312   4.761  16.800  0.00  0.00    +0.000 HD
BRANCH   2   6
ATOM      6  O   UNL     1       3.404   3.079  18.159  0.00  0.00    +0.000 OA
BRANCH   6   7
ATOM      7  C   UNL     1       3.046   1.929  18.938  0.00  0.00    +0.000 C 
BRANCH   7   9
ATOM      8  C   UNL     1       0.680   2.746  18.986  0.00  0.00    +0.000 C 
ATOM      9  C   UNL     1       1.728   2.182  19.598  0.00  0.00    +0.000 C 
ENDBRANCH   7   9
ENDBRANCH   6   7
ENDBRANCH   2   6
ENDBRANCH   1   4
BRANCH   1  10
ATOM     10  C   UNL     1       5.973   6.759  17.172  0.00  0.00    +0.000 C 
ATOM     11  O   UNL     1       6.922   7.524  16.955  0.00  0.00    +0.000 OA
BRANCH  10  12
ATOM     12  C   UNL     1       4.537   7.203  16.935  0.00  0.00    +0.000 C 
BRANCH  12  13
ATOM     13  O   UNL     1       3.892   7.450  18.194  0.00  0.00    +0.000 OA
BRANCH  13  14
ATOM     14  C   UNL     1       2.643   6.942  18.337  0.00  0.00    +0.000 C 
ATOM     15  O   UNL     1       2.164   6.059  17.647  0.00  0.00    +0.000 OA
BRANCH  14  16
ATOM     16  C   UNL     1       1.885   7.687  19.389  0.00  0.00    +0.000 A 
ATOM     17  C   UNL     1       1.523   7.083  20.619  0.00  0.00    +0.000 A 
ATOM     18  C   UNL     1       1.865   5.682  21.049  0.00  0.00    +0.000 C 
ATOM     19  C   UNL     1       0.747   7.820  21.536  0.00  0.00    +0.000 A 
ATOM     20  C   UNL     1       0.329   9.116  21.256  0.00  0.00    +0.000 A 
ATOM     21  C   UNL     1       0.692   9.712  20.055  0.00  0.00    +0.000 A 
ATOM     22  C   UNL     1       1.470   9.019  19.113  0.00  0.00    +0.000 A 
ATOM     23  C   UNL     1       1.835   9.751  17.845  0.00  0.00    +0.000 C 
ENDBRANCH  14  16
ENDBRANCH  13  14
ENDBRANCH  12  13
ENDBRANCH  10  12
ENDBRANCH   1  10
BRANCH   1  24
ATOM     24  C   UNL     1       7.362   4.601  16.959  0.00  0.00    +0.000 C 
BRANCH  24  25
ATOM     25  C   UNL     1       7.114   4.387  15.490  0.00  0.00    +0.000 C 
ATOM     26  O   UNL     1       7.610   5.072  14.611  0.00  0.00    +0.000 OA
BRANCH  25  27
ATOM     27  O   UNL     1       6.348   3.310  15.226  0.00  0.00    +0.000 OA
ATOM     28  H   UNL     1       5.952   2.886  16.011  0.00  0.00    +0.000 HD
ENDBRANCH  25  27
ENDBRANCH  24  25
ENDBRANCH   1  24
TORSDOF 12
ENDMDL
MODEL 4
REMARK VINA RESULT:      -6.5      1.480      2.683
REMARK  Name = 
REMARK  14 active torsions:
REMARK  status: ('A' for Active; 'I' for Inactive)
REMARK    1  A    between atoms: C_2  and  C_3
REMARK    2  A    between atoms: C_3  and  O_4
REMARK    3  A    between atoms: O_4  and  C_5
REMARK    4  A    between atoms: N_7  and  C_8
REMARK    5  A    between atoms: C_8  and  C_9
REMARK    6  A    between atoms: C_8  and  C_13
REMARK    7  A    between atoms: C_9  and  C_10
REMARK    8  A    between atoms: C_10  and  O_12
REMARK    9  A    between atoms: C_13  and  C_15
REMARK   10  A    between atoms: C_15  and  O_16
REMARK   11  A    between atoms: O_16  and  C_17
REMARK   12  A    between atoms: C_17  and  C_19
REMARK   13  A    between atoms: C_20  and  C_21
REMARK   14  A    between atoms: C_25  and  C_26
REMARK                            x       y       z     vdW  Elec       q    Type
REMARK                         _______ _______ _______ _____ _____    ______ ____
ROOT
ATOM      1  C   UNL     1       6.174   5.755  16.260  0.00  0.00    +0.000 C 
ENDROOT
BRANCH   1   4
ATOM      2  C   UNL     1       6.387   4.213  14.336  0.00  0.00    +0.000 C 
ATOM      3  O   UNL     1       6.088   3.227  14.990  0.00  0.00    +0.000 OA
ATOM      4  N   UNL     1       6.456   5.468  14.859  0.00  0.00    +0.000 N 
ATOM      5  H   UNL     1       6.675   6.239  14.233  0.00  0.00    +0.000 HD
BRANCH   2   6
ATOM      6  O   UNL     1       6.762   4.223  13.039  0.00  0.00    +0.000 OA
BRANCH   6   7
ATOM      7  C   UNL     1       6.139   3.222  12.222  0.00  0.00    +0.000 C 
BRANCH   7   9
ATOM      8  C   UNL     1       3.973   3.271  10.967  0.00  0.00    +0.000 C 
ATOM      9  C   UNL     1       4.692   3.562  12.058  0.00  0.00    +0.000 C 
ENDBRANCH   7   9
ENDBRANCH   6   7
ENDBRANCH   2   6
ENDBRANCH   1   4
BRANCH   1  10
ATOM     10  C   UNL     1       4.903   6.616  16.365  0.00  0.00    +0.000 C 
ATOM     11  O   UNL     1       4.675   7.531  15.563  0.00  0.00    +0.000 OA
BRANCH  10  12
ATOM     12  C   UNL     1       3.916   6.275  17.471  0.00  0.00    +0.000 C 
BRANCH  12  13
ATOM     13  O   UNL     1       3.571   4.883  17.402  0.00  0.00    +0.000 OA
BRANCH  13  14
ATOM     14  C   UNL     1       2.321   4.555  17.813  0.00  0.00    +0.000 C 
ATOM     15  O   UNL     1       1.295   4.816  17.209  0.00  0.00    +0.000 OA
BRANCH  14  16
ATOM     16  C   UNL     1       2.358   3.923  19.168  0.00  0.00    +0.000 A 
ATOM     17  C   UNL     1       2.059   4.656  20.343  0.00  0.00    +0.000 A 
ATOM     18  C   UNL     1       1.640   6.100  20.401  0.00  0.00    +0.000 C 
ATOM     19  C   UNL     1       2.183   4.016  21.593  0.00  0.00    +0.000 A 
ATOM     20  C   UNL     1       2.594   2.692  21.693  0.00  0.00    +0.000 A 
ATOM     21  C   UNL     1       2.877   1.970  20.541  0.00  0.00    +0.000 A 
ATOM     22  C   UNL     1       2.763   2.563  19.272  0.00  0.00    +0.000 A 
ATOM     23  C   UNL     1       3.070   1.699  18.074  0.00  0.00    +0.000 C 
ENDBRANCH  14  16
ENDBRANCH  13  14
ENDBRANCH  12  13
ENDBRANCH  10  12
ENDBRANCH   1  10
BRANCH   1  24
ATOM     24  C   UNL     1       7.383   6.333  17.004  0.00  0.00    +0.000 C 
BRANCH  24  25
ATOM     25  C   UNL     1       7.512   5.794  18.402  0.00  0.00    +0.000 C 
ATOM     26  O   UNL     1       7.056   4.721  18.761  0.00  0.00    +0.000 OA
BRANCH  25  27
ATOM     27  O   UNL     1       8.254   6.576  19.213  0.00  0.00    +0.000 OA
ATOM     28  H   UNL     1       8.209   6.343  20.160  0.00  0.00    +0.000 HD
ENDBRANCH  25  27
ENDBRANCH  24  25
ENDBRANCH   1  24
TORSDOF 12
ENDMDL
MODEL 5
REMARK VINA RESULT:      -6.4      1.489      2.429
REMARK  Name = 
REMARK  14 active torsions:
REMARK  status: ('A' for Active; 'I' for Inactive)
REMARK    1  A    between atoms: C_2  and  C_3
REMARK    2  A    between atoms: C_3  and  O_4
REMARK    3  A    between atoms: O_4  and  C_5
REMARK    4  A    between atoms: N_7  and  C_8
REMARK    5  A    between atoms: C_8  and  C_9
REMARK    6  A    between atoms: C_8  and  C_13
REMARK    7  A    between atoms: C_9  and  C_10
REMARK    8  A    between atoms: C_10  and  O_12
REMARK    9  A    between atoms: C_13  and  C_15
REMARK   10  A    between atoms: C_15  and  O_16
REMARK   11  A    between atoms: O_16  and  C_17
REMARK   12  A    between atoms: C_17  and  C_19
REMARK   13  A    between atoms: C_20  and  C_21
REMARK   14  A    between atoms: C_25  and  C_26
REMARK                            x       y       z     vdW  Elec       q    Type
REMARK                         _______ _______ _______ _____ _____    ______ ____
ROOT
ATOM      1  C   UNL     1       6.231   6.583  16.972  0.00  0.00    +0.000 C 
ENDROOT
BRANCH   1   4
ATOM      2  C   UNL     1       7.252   4.816  15.573  0.00  0.00    +0.000 C 
ATOM      3  O   UNL     1       7.868   4.323  16.503  0.00  0.00    +0.000 OA
ATOM      4  N   UNL     1       6.442   5.903  15.701  0.00  0.00    +0.000 N 
ATOM      5  H   UNL     1       5.935   6.224  14.880  0.00  0.00    +0.000 HD
BRANCH   2   6
ATOM      6  O   UNL     1       7.320   4.430  14.281  0.00  0.00    +0.000 OA
BRANCH   6   7
ATOM      7  C   UNL     1       6.108   3.876  13.751  0.00  0.00    +0.000 C 
BRANCH   7   9
ATOM      8  C   UNL     1       6.566   2.498  11.711  0.00  0.00    +0.000 C 
ATOM      9  C   UNL     1       6.271   3.675  12.278  0.00  0.00    +0.000 C 
ENDBRANCH   7   9
ENDBRANCH   6   7
ENDBRANCH   2   6
ENDBRANCH   1   4
BRANCH   1  10
ATOM     10  C   UNL     1       4.723   6.678  17.263  0.00  0.00    +0.000 C 
ATOM     11  O   UNL     1       4.197   7.745  17.605  0.00  0.00    +0.000 OA
BRANCH  10  12
ATOM     12  C   UNL     1       3.894   5.416  17.079  0.00  0.00    +0.000 C 
BRANCH  12  13
ATOM     13  O   UNL     1       4.630   4.278  17.554  0.00  0.00    +0.000 OA
BRANCH  13  14
ATOM     14  C   UNL     1       4.570   4.040  18.888  0.00  0.00    +0.000 C 
ATOM     15  O   UNL     1       5.529   4.027  19.640  0.00  0.00    +0.000 OA
BRANCH  14  16
ATOM     16  C   UNL     1       3.177   3.684  19.300  0.00  0.00    +0.000 A 
ATOM     17  C   UNL     1       2.338   4.607  19.973  0.00  0.00    +0.000 A 
ATOM     18  C   UNL     1       2.689   6.030  20.320  0.00  0.00    +0.000 C 
ATOM     19  C   UNL     1       1.063   4.183  20.397  0.00  0.00    +0.000 A 
ATOM     20  C   UNL     1       0.619   2.884  20.174  0.00  0.00    +0.000 A 
ATOM     21  C   UNL     1       1.437   1.983  19.506  0.00  0.00    +0.000 A 
ATOM     22  C   UNL     1       2.714   2.361  19.059  0.00  0.00    +0.000 A 
ATOM     23  C   UNL     1       3.526   1.324  18.325  0.00  0.00    +0.000 C 
ENDBRANCH  14  16
ENDBRANCH  13  14
ENDBRANCH  12  13
ENDBRANCH  10  12
ENDBRANCH   1  10
BRANCH   1  24
ATOM     24  C   UNL     1       6.969   7.924  17.059  0.00  0.00    +0.000 C 
BRANCH  24  25
ATOM     25  C   UNL     1       7.992   7.950  18.163  0.00  0.00    +0.000 C 
ATOM     26  O   UNL     1       8.343   6.962  18.786  0.00  0.00    +0.000 OA
BRANCH  25  27
ATOM     27  O   UNL     1       8.549   9.163  18.349  0.00  0.00    +0.000 OA
ATOM     28  H   UNL     1       9.118   9.470  17.618  0.00  0.00    +0.000 HD
ENDBRANCH  25  27
ENDBRANCH  24  25
ENDBRANCH   1  24
TORSDOF 12
ENDMDL
MODEL 6
REMARK VINA RESULT:      -6.4      1.542      2.950
REMARK  Name = 
REMARK  14 active torsions:
REMARK  status: ('A' for Active; 'I' for Inactive)
REMARK    1  A    between atoms: C_2  and  C_3
REMARK    2  A    between atoms: C_3  and  O_4
REMARK    3  A    between atoms: O_4  and  C_5
REMARK    4  A    between atoms: N_7  and  C_8
REMARK    5  A    between atoms: C_8  and  C_9
REMARK    6  A    between atoms: C_8  and  C_13
REMARK    7  A    between atoms: C_9  and  C_10
REMARK    8  A    between atoms: C_10  and  O_12
REMARK    9  A    between atoms: C_13  and  C_15
REMARK   10  A    between atoms: C_15  and  O_16
REMARK   11  A    between atoms: O_16  and  C_17
REMARK   12  A    between atoms: C_17  and  C_19
REMARK   13  A    between atoms: C_20  and  C_21
REMARK   14  A    between atoms: C_25  and  C_26
REMARK                            x       y       z     vdW  Elec       q    Type
REMARK                         _______ _______ _______ _____ _____    ______ ____
ROOT
ATOM      1  C   UNL     1       6.045   5.673  16.391  0.00  0.00    +0.000 C 
ENDROOT
BRANCH   1   4
ATOM      2  C   UNL     1       6.370   4.225  14.410  0.00  0.00    +0.000 C 
ATOM      3  O   UNL     1       6.100   3.201  15.014  0.00  0.00    +0.000 OA
ATOM      4  N   UNL     1       6.372   5.459  14.987  0.00  0.00    +0.000 N 
ATOM      5  H   UNL     1       6.573   6.265  14.399  0.00  0.00    +0.000 HD
BRANCH   2   6
ATOM      6  O   UNL     1       6.777   4.306  13.125  0.00  0.00    +0.000 OA
BRANCH   6   7
ATOM      7  C   UNL     1       6.252   3.290  12.261  0.00  0.00    +0.000 C 
BRANCH   7   9
ATOM      8  C   UNL     1       4.099   3.180  10.986  0.00  0.00    +0.000 C 
ATOM      9  C   UNL     1       4.782   3.510  12.089  0.00  0.00    +0.000 C 
ENDBRANCH   7   9
ENDBRANCH   6   7
ENDBRANCH   2   6
ENDBRANCH   1   4
BRANCH   1  10
ATOM     10  C   UNL     1       4.814   6.590  16.499  0.00  0.00    +0.000 C 
ATOM     11  O   UNL     1       4.698   7.601  15.794  0.00  0.00    +0.000 OA
BRANCH  10  12
ATOM     12  C   UNL     1       3.726   6.188  17.483  0.00  0.00    +0.000 C 
BRANCH  12  13
ATOM     13  O   UNL     1       3.369   4.813  17.276  0.00  0.00    +0.000 OA
BRANCH  13  14
ATOM     14  C   UNL     1       2.192   4.411  17.816  0.00  0.00    +0.000 C 
ATOM     15  O   UNL     1       1.095   4.603  17.321  0.00  0.00    +0.000 OA
BRANCH  14  16
ATOM     16  C   UNL     1       2.408   3.794  19.160  0.00  0.00    +0.000 A 
ATOM     17  C   UNL     1       2.936   2.487  19.307  0.00  0.00    +0.000 A 
ATOM     18  C   UNL     1       3.377   1.581  18.188  0.00  0.00    +0.000 C 
ATOM     19  C   UNL     1       3.046   1.939  20.601  0.00  0.00    +0.000 A 
ATOM     20  C   UNL     1       2.644   2.650  21.726  0.00  0.00    +0.000 A 
ATOM     21  C   UNL     1       2.136   3.935  21.584  0.00  0.00    +0.000 A 
ATOM     22  C   UNL     1       2.013   4.525  20.315  0.00  0.00    +0.000 A 
ATOM     23  C   UNL     1       1.471   5.931  20.255  0.00  0.00    +0.000 C 
ENDBRANCH  14  16
ENDBRANCH  13  14
ENDBRANCH  12  13
ENDBRANCH  10  12
ENDBRANCH   1  10
BRANCH   1  24
ATOM     24  C   UNL     1       7.247   6.141  17.218  0.00  0.00    +0.000 C 
BRANCH  24  25
ATOM     25  C   UNL     1       7.757   5.076  18.150  0.00  0.00    +0.000 C 
ATOM     26  O   UNL     1       8.358   4.081  17.781  0.00  0.00    +0.000 OA
BRANCH  25  27
ATOM     27  O   UNL     1       7.556   5.362  19.452  0.00  0.00    +0.000 OA
ATOM     28  H   UNL     1       8.368   5.404  19.993  0.00  0.00    +0.000 HD
ENDBRANCH  25  27
ENDBRANCH  24  25
ENDBRANCH   1  24
TORSDOF 12
ENDMDL
MODEL 7
REMARK VINA RESULT:      -6.4      1.854      4.413
REMARK  Name = 
REMARK  14 active torsions:
REMARK  status: ('A' for Active; 'I' for Inactive)
REMARK    1  A    between atoms: C_2  and  C_3
REMARK    2  A    between atoms: C_3  and  O_4
REMARK    3  A    between atoms: O_4  and  C_5
REMARK    4  A    between atoms: N_7  and  C_8
REMARK    5  A    between atoms: C_8  and  C_9
REMARK    6  A    between atoms: C_8  and  C_13
REMARK    7  A    between atoms: C_9  and  C_10
REMARK    8  A    between atoms: C_10  and  O_12
REMARK    9  A    between atoms: C_13  and  C_15
REMARK   10  A    between atoms: C_15  and  O_16
REMARK   11  A    between atoms: O_16  and  C_17
REMARK   12  A    between atoms: C_17  and  C_19
REMARK   13  A    between atoms: C_20  and  C_21
REMARK   14  A    between atoms: C_25  and  C_26
REMARK                            x       y       z     vdW  Elec       q    Type
REMARK                         _______ _______ _______ _____ _____    ______ ____
ROOT
ATOM      1  C   UNL     1       5.455   4.662  15.090  0.00  0.00    +0.000 C 
ENDROOT
BRANCH   1   4
ATOM      2  C   UNL     1       7.326   5.771  16.270  0.00  0.00    +0.000 C 
ATOM      3  O   UNL     1       7.738   4.733  16.760  0.00  0.00    +0.000 OA
ATOM      4  N   UNL     1       6.236   5.837  15.457  0.00  0.00    +0.000 N 
ATOM      5  H   UNL     1       5.984   6.739  15.061  0.00  0.00    +0.000 HD
BRANCH   2   6
ATOM      6  O   UNL     1       7.816   7.008  16.501  0.00  0.00    +0.000 OA
BRANCH   6   7
ATOM      7  C   UNL     1       7.610   7.500  17.832  0.00  0.00    +0.000 C 
BRANCH   7   9
ATOM      8  C   UNL     1       8.779   9.644  18.387  0.00  0.00    +0.000 C 
ATOM      9  C   UNL     1       7.756   8.989  17.826  0.00  0.00    +0.000 C 
ENDBRANCH   7   9
ENDBRANCH   6   7
ENDBRANCH   2   6
ENDBRANCH   1   4
BRANCH   1  10
ATOM     10  C   UNL     1       4.799   4.065  16.347  0.00  0.00    +0.000 C 
ATOM     11  O   UNL     1       5.119   2.948  16.773  0.00  0.00    +0.000 OA
BRANCH  10  12
ATOM     12  C   UNL     1       3.767   4.917  17.070  0.00  0.00    +0.000 C 
BRANCH  12  13
ATOM     13  O   UNL     1       4.425   5.794  17.997  0.00  0.00    +0.000 OA
BRANCH  13  14
ATOM     14  C   UNL     1       4.682   5.283  19.226  0.00  0.00    +0.000 C 
ATOM     15  O   UNL     1       5.779   5.255  19.757  0.00  0.00    +0.000 OA
BRANCH  14  16
ATOM     16  C   UNL     1       3.455   4.654  19.806  0.00  0.00    +0.000 A 
ATOM     17  C   UNL     1       3.377   3.262  20.061  0.00  0.00    +0.000 A 
ATOM     18  C   UNL     1       4.479   2.260  19.838  0.00  0.00    +0.000 C 
ATOM     19  C   UNL     1       2.166   2.725  20.541  0.00  0.00    +0.000 A 
ATOM     20  C   UNL     1       1.053   3.529  20.761  0.00  0.00    +0.000 A 
ATOM     21  C   UNL     1       1.131   4.894  20.520  0.00  0.00    +0.000 A 
ATOM     22  C   UNL     1       2.320   5.476  20.047  0.00  0.00    +0.000 A 
ATOM     23  C   UNL     1       2.321   6.969  19.833  0.00  0.00    +0.000 C 
ENDBRANCH  14  16
ENDBRANCH  13  14
ENDBRANCH  12  13
ENDBRANCH  10  12
ENDBRANCH   1  10
BRANCH   1  24
ATOM     24  C   UNL     1       6.255   3.650  14.263  0.00  0.00    +0.000 C 
BRANCH  24  25
ATOM     25  C   UNL     1       5.905   3.694  12.800  0.00  0.00    +0.000 C 
ATOM     26  O   UNL     1       4.777   3.531  12.366  0.00  0.00    +0.000 OA
BRANCH  25  27
ATOM     27  O   UNL     1       6.949   4.011  12.008  0.00  0.00    +0.000 OA
ATOM     28  H   UNL     1       7.827   3.863  12.408  0.00  0.00    +0.000 HD
ENDBRANCH  25  27
ENDBRANCH  24  25
ENDBRANCH   1  24
TORSDOF 12
ENDMDL
MODEL 8
REMARK VINA RESULT:      -6.4      2.244      4.982
REMARK  Name = 
REMARK  14 active torsions:
REMARK  status: ('A' for Active; 'I' for Inactive)
REMARK    1  A    between atoms: C_2  and  C_3
REMARK    2  A    between atoms: C_3  and  O_4
REMARK    3  A    between atoms: O_4  and  C_5
REMARK    4  A    between atoms: N_7  and  C_8
REMARK    5  A    between atoms: C_8  and  C_9
REMARK    6  A    between atoms: C_8  and  C_13
REMARK    7  A    between atoms: C_9  and  C_10
REMARK    8  A    between atoms: C_10  and  O_12
REMARK    9  A    between atoms: C_13  and  C_15
REMARK   10  A    between atoms: C_15  and  O_16
REMARK   11  A    between atoms: O_16  and  C_17
REMARK   12  A    between atoms: C_17  and  C_19
REMARK   13  A    between atoms: C_20  and  C_21
REMARK   14  A    between atoms: C_25  and  C_26
REMARK                            x       y       z     vdW  Elec       q    Type
REMARK                         _______ _______ _______ _____ _____    ______ ____
ROOT
ATOM      1  C   UNL     1       6.778   6.246  16.942  0.00  0.00    +0.000 C 
ENDROOT
BRANCH   1   4
ATOM      2  C   UNL     1       7.794   8.306  17.863  0.00  0.00    +0.000 C 
ATOM      3  O   UNL     1       7.118   9.046  17.169  0.00  0.00    +0.000 OA
ATOM      4  N   UNL     1       7.703   6.948  17.824  0.00  0.00    +0.000 N 
ATOM      5  H   UNL     1       8.277   6.408  18.466  0.00  0.00    +0.000 HD
BRANCH   2   6
ATOM      6  O   UNL     1       8.773   8.686  18.711  0.00  0.00    +0.000 OA
BRANCH   6   7
ATOM      7  C   UNL     1       9.123  10.076  18.646  0.00  0.00    +0.000 C 
BRANCH   7   9
ATOM      8  C   UNL     1      10.224  11.572  20.325  0.00  0.00    +0.000 C 
ATOM      9  C   UNL     1       9.377  10.577  20.032  0.00  0.00    +0.000 C 
ENDBRANCH   7   9
ENDBRANCH   6   7
ENDBRANCH   2   6
ENDBRANCH   1   4
BRANCH   1  10
ATOM     10  C   UNL     1       5.390   6.177  17.601  0.00  0.00    +0.000 C 
ATOM     11  O   UNL     1       4.388   6.647  17.046  0.00  0.00    +0.000 OA
BRANCH  10  12
ATOM     12  C   UNL     1       5.287   5.474  18.946  0.00  0.00    +0.000 C 
BRANCH  12  13
ATOM     13  O   UNL     1       5.431   4.057  18.766  0.00  0.00    +0.000 OA
BRANCH  13  14
ATOM     14  C   UNL     1       4.342   3.399  18.299  0.00  0.00    +0.000 C 
ATOM     15  O   UNL     1       4.201   3.006  17.153  0.00  0.00    +0.000 OA
BRANCH  14  16
ATOM     16  C   UNL     1       3.283   3.313  19.350  0.00  0.00    +0.000 A 
ATOM     17  C   UNL     1       3.463   2.553  20.533  0.00  0.00    +0.000 A 
ATOM     18  C   UNL     1       4.704   1.789  20.911  0.00  0.00    +0.000 C 
ATOM     19  C   UNL     1       2.396   2.457  21.449  0.00  0.00    +0.000 A 
ATOM     20  C   UNL     1       1.178   3.083  21.212  0.00  0.00    +0.000 A 
ATOM     21  C   UNL     1       1.004   3.836  20.058  0.00  0.00    +0.000 A 
ATOM     22  C   UNL     1       2.041   3.967  19.119  0.00  0.00    +0.000 A 
ATOM     23  C   UNL     1       1.771   4.820  17.905  0.00  0.00    +0.000 C 
ENDBRANCH  14  16
ENDBRANCH  13  14
ENDBRANCH  12  13
ENDBRANCH  10  12
ENDBRANCH   1  10
BRANCH   1  24
ATOM     24  C   UNL     1       7.315   4.889  16.475  0.00  0.00    +0.000 C 
BRANCH  24  25
ATOM     25  C   UNL     1       7.005   4.612  15.029  0.00  0.00    +0.000 C 
ATOM     26  O   UNL     1       6.209   3.766  14.656  0.00  0.00    +0.000 OA
BRANCH  25  27
ATOM     27  O   UNL     1       7.635   5.444  14.176  0.00  0.00    +0.000 OA
ATOM     28  H   UNL     1       8.258   6.067  14.595  0.00  0.00    +0.000 HD
ENDBRANCH  25  27
ENDBRANCH  24  25
ENDBRANCH   1  24
TORSDOF 12
ENDMDL
MODEL 9
REMARK VINA RESULT:      -6.4      2.459      4.785
REMARK  Name = 
REMARK  14 active torsions:
REMARK  status: ('A' for Active; 'I' for Inactive)
REMARK    1  A    between atoms: C_2  and  C_3
REMARK    2  A    between atoms: C_3  and  O_4
REMARK    3  A    between atoms: O_4  and  C_5
REMARK    4  A    between atoms: N_7  and  C_8
REMARK    5  A    between atoms: C_8  and  C_9
REMARK    6  A    between atoms: C_8  and  C_13
REMARK    7  A    between atoms: C_9  and  C_10
REMARK    8  A    between atoms: C_10  and  O_12
REMARK    9  A    between atoms: C_13  and  C_15
REMARK   10  A    between atoms: C_15  and  O_16
REMARK   11  A    between atoms: O_16  and  C_17
REMARK   12  A    between atoms: C_17  and  C_19
REMARK   13  A    between atoms: C_20  and  C_21
REMARK   14  A    between atoms: C_25  and  C_26
REMARK                            x       y       z     vdW  Elec       q    Type
REMARK                         _______ _______ _______ _____ _____    ______ ____
ROOT
ATOM      1  C   UNL     1       6.985   5.836  17.887  0.00  0.00    +0.000 C 
ENDROOT
BRANCH   1   4
ATOM      2  C   UNL     1       7.747   8.175  17.625  0.00  0.00    +0.000 C 
ATOM      3  O   UNL     1       6.708   8.540  17.101  0.00  0.00    +0.000 OA
ATOM      4  N   UNL     1       7.974   6.897  18.035  0.00  0.00    +0.000 N 
ATOM      5  H   UNL     1       8.855   6.688  18.497  0.00  0.00    +0.000 HD
BRANCH   2   6
ATOM      6  O   UNL     1       8.849   8.932  17.817  0.00  0.00    +0.000 OA
BRANCH   6   7
ATOM      7  C   UNL     1       8.834   9.731  19.007  0.00  0.00    +0.000 C 
BRANCH   7   9
ATOM      8  C   UNL     1      10.455  11.477  19.779  0.00  0.00    +0.000 C 
ATOM      9  C   UNL     1       9.725  10.916  18.807  0.00  0.00    +0.000 C 
ENDBRANCH   7   9
ENDBRANCH   6   7
ENDBRANCH   2   6
ENDBRANCH   1   4
BRANCH   1  10
ATOM     10  C   UNL     1       6.426   5.455  19.269  0.00  0.00    +0.000 C 
ATOM     11  O   UNL     1       7.172   5.287  20.243  0.00  0.00    +0.000 OA
BRANCH  10  12
ATOM     12  C   UNL     1       4.916   5.328  19.403  0.00  0.00    +0.000 C 
BRANCH  12  13
ATOM     13  O   UNL     1       4.282   5.781  18.197  0.00  0.00    +0.000 OA
BRANCH  13  14
ATOM     14  C   UNL     1       2.937   5.941  18.251  0.00  0.00    +0.000 C 
ATOM     15  O   UNL     1       2.343   6.967  17.969  0.00  0.00    +0.000 OA
BRANCH  14  16
ATOM     16  C   UNL     1       2.280   4.720  18.811  0.00  0.00    +0.000 A 
ATOM     17  C   UNL     1       2.243   3.496  18.096  0.00  0.00    +0.000 A 
ATOM     18  C   UNL     1       2.867   3.241  16.750  0.00  0.00    +0.000 C 
ATOM     19  C   UNL     1       1.545   2.406  18.652  0.00  0.00    +0.000 A 
ATOM     20  C   UNL     1       0.891   2.508  19.874  0.00  0.00    +0.000 A 
ATOM     21  C   UNL     1       0.935   3.704  20.579  0.00  0.00    +0.000 A 
ATOM     22  C   UNL     1       1.625   4.817  20.069  0.00  0.00    +0.000 A 
ATOM     23  C   UNL     1       1.637   6.069  20.911  0.00  0.00    +0.000 C 
ENDBRANCH  14  16
ENDBRANCH  13  14
ENDBRANCH  12  13
ENDBRANCH  10  12
ENDBRANCH   1  10
BRANCH   1  24
ATOM     24  C   UNL     1       7.507   4.645  17.075  0.00  0.00    +0.000 C 
BRANCH  24  25
ATOM     25  C   UNL     1       6.853   4.536  15.724  0.00  0.00    +0.000 C 
ATOM     26  O   UNL     1       6.816   5.446  14.913  0.00  0.00    +0.000 OA
BRANCH  25  27
ATOM     27  O   UNL     1       6.375   3.304  15.457  0.00  0.00    +0.000 OA
ATOM     28  H   UNL     1       7.055   2.640  15.232  0.00  0.00    +0.000 HD
ENDBRANCH  25  27
ENDBRANCH  24  25
ENDBRANCH   1  24
TORSDOF 12
ENDMDL
