MODEL 1
REMARK VINA RESULT:      -7.6      0.000      0.000
REMARK  Name = 
REMARK  7 active torsions:
REMARK  status: ('A' for Active; 'I' for Inactive)
REMARK    1  A    between atoms: C_1  and  C_2
REMARK    2  A    between atoms: C_7  and  C_8
REMARK    3  A    between atoms: C_10  and  C_11
REMARK    4  A    between atoms: C_11  and  N_12
REMARK    5  A    between atoms: N_12  and  C_13
REMARK    6  A    between atoms: N_12  and  C_14
REMARK    7  A    between atoms: C_14  and  C_15
REMARK                            x       y       z     vdW  Elec       q    Type
REMARK                         _______ _______ _______ _____ _____    ______ ____
ROOT
ATOM      1  C   UNL     1       3.184   5.582  18.616  0.00  0.00    +0.000 A 
ATOM      2  N   UNL     1       4.047   5.381  17.637  0.00  0.00    +0.000 NA
ATOM      3  C   UNL     1       4.298   6.636  17.136  0.00  0.00    +0.000 A 
ATOM      4  C   UNL     1       3.592   7.565  17.865  0.00  0.00    +0.000 A 
ATOM      5  O   UNL     1       2.865   6.902  18.813  0.00  0.00    +0.000 OA
ENDROOT
BRANCH   1  12
ATOM      6  C   UNL     1       1.191   3.674  17.509  0.00  0.00    +0.000 C 
ATOM      7  C   UNL     1       1.557   3.704  18.970  0.00  0.00    +0.000 A 
ATOM      8  C   UNL     1       0.900   2.824  19.847  0.00  0.00    +0.000 A 
ATOM      9  C   UNL     1       1.201   2.816  21.208  0.00  0.00    +0.000 A 
ATOM     10  C   UNL     1       2.168   3.679  21.711  0.00  0.00    +0.000 A 
ATOM     11  C   UNL     1       2.833   4.557  20.853  0.00  0.00    +0.000 A 
ATOM     12  C   UNL     1       2.534   4.595  19.478  0.00  0.00    +0.000 A 
ENDBRANCH   1  12
BRANCH   3  13
ATOM     13  C   UNL     1       5.177   6.806  15.944  0.00  0.00    +0.000 C 
BRANCH  13  14
ATOM     14  N   UNL     1       6.601   6.554  16.249  0.00  0.00    +0.000 NA
ATOM     15  C   UNL     1       6.909   6.880  17.649  0.00  0.00    +0.000 C 
BRANCH  14  16
ATOM     16  C   UNL     1       6.917   5.127  16.013  0.00  0.00    +0.000 C 
BRANCH  16  17
ATOM     17  C   UNL     1       6.883   4.729  14.552  0.00  0.00    +0.000 A 
ATOM     18  C   UNL     1       7.746   5.340  13.630  0.00  0.00    +0.000 A 
ATOM     19  C   UNL     1       7.711   4.984  12.282  0.00  0.00    +0.000 A 
ATOM     20  C   UNL     1       6.817   4.011  11.841  0.00  0.00    +0.000 A 
ATOM     21  C   UNL     1       5.957   3.391  12.748  0.00  0.00    +0.000 A 
ATOM     22  C   UNL     1       5.990   3.747  14.097  0.00  0.00    +0.000 A 
ENDBRANCH  16  17
ENDBRANCH  14  16
ENDBRANCH  13  14
ENDBRANCH   3  13
TORSDOF 5
ENDMDL
MODEL 2
REMARK VINA RESULT:      -7.6      0.794      1.390
REMARK  Name = 
REMARK  7 active torsions:
REMARK  status: ('A' for Active; 'I' for Inactive)
REMARK    1  A    between atoms: C_1  and  C_2
REMARK    2  A    between atoms: C_7  and  C_8
REMARK    3  A    between atoms: C_10  and  C_11
REMARK    4  A    between atoms: C_11  and  N_12
REMARK    5  A    between atoms: N_12  and  C_13
REMARK    6  A    between atoms: N_12  and  C_14
REMARK    7  A    between atoms: C_14  and  C_15
REMARK                            x       y       z     vdW  Elec       q    Type
REMARK                         _______ _______ _______ _____ _____    ______ ____
ROOT
ATOM      1  C   UNL     1       3.562   5.370  18.761  0.00  0.00    +0.000 A 
ATOM      2  N   UNL     1       4.866   5.400  18.551  0.00  0.00    +0.000 NA
ATOM      3  C   UNL     1       5.067   6.526  17.788  0.00  0.00    +0.000 A 
ATOM      4  C   UNL     1       3.862   7.161  17.592  0.00  0.00    +0.000 A 
ATOM      5  O   UNL     1       2.886   6.426  18.202  0.00  0.00    +0.000 OA
ENDROOT
BRANCH   1  12
ATOM      6  C   UNL     1       2.374   3.054  17.327  0.00  0.00    +0.000 C 
ATOM      7  C   UNL     1       2.175   3.280  18.803  0.00  0.00    +0.000 A 
ATOM      8  C   UNL     1       1.362   2.383  19.517  0.00  0.00    +0.000 A 
ATOM      9  C   UNL     1       1.144   2.552  20.883  0.00  0.00    +0.000 A 
ATOM     10  C   UNL     1       1.741   3.611  21.557  0.00  0.00    +0.000 A 
ATOM     11  C   UNL     1       2.555   4.509  20.863  0.00  0.00    +0.000 A 
ATOM     12  C   UNL     1       2.775   4.368  19.480  0.00  0.00    +0.000 A 
ENDBRANCH   1  12
BRANCH   3  13
ATOM     13  C   UNL     1       6.428   6.851  17.274  0.00  0.00    +0.000 C 
BRANCH  13  14
ATOM     14  N   UNL     1       6.942   5.823  16.344  0.00  0.00    +0.000 NA
ATOM     15  C   UNL     1       7.600   4.730  17.074  0.00  0.00    +0.000 C 
BRANCH  14  16
ATOM     16  C   UNL     1       5.823   5.260  15.555  0.00  0.00    +0.000 C 
BRANCH  16  17
ATOM     17  C   UNL     1       6.237   4.750  14.189  0.00  0.00    +0.000 A 
ATOM     18  C   UNL     1       5.481   3.761  13.543  0.00  0.00    +0.000 A 
ATOM     19  C   UNL     1       5.864   3.281  12.291  0.00  0.00    +0.000 A 
ATOM     20  C   UNL     1       7.003   3.787  11.669  0.00  0.00    +0.000 A 
ATOM     21  C   UNL     1       7.760   4.775  12.298  0.00  0.00    +0.000 A 
ATOM     22  C   UNL     1       7.379   5.256  13.552  0.00  0.00    +0.000 A 
ENDBRANCH  16  17
ENDBRANCH  14  16
ENDBRANCH  13  14
ENDBRANCH   3  13
TORSDOF 5
ENDMDL
MODEL 3
REMARK VINA RESULT:      -7.4      1.707      2.616
REMARK  Name = 
REMARK  7 active torsions:
REMARK  status: ('A' for Active; 'I' for Inactive)
REMARK    1  A    between atoms: C_1  and  C_2
REMARK    2  A    between atoms: C_7  and  C_8
REMARK    3  A    between atoms: C_10  and  C_11
REMARK    4  A    between atoms: C_11  and  N_12
REMARK    5  A    between atoms: N_12  and  C_13
REMARK    6  A    between atoms: N_12  and  C_14
REMARK    7  A    between atoms: C_14  and  C_15
REMARK                            x       y       z     vdW  Elec       q    Type
REMARK                         _______ _______ _______ _____ _____    ______ ____
ROOT
ATOM      1  C   UNL     1       4.854   4.181  18.761  0.00  0.00    +0.000 A 
ATOM      2  N   UNL     1       5.115   3.965  17.485  0.00  0.00    +0.000 NA
ATOM      3  C   UNL     1       6.390   4.447  17.308  0.00  0.00    +0.000 A 
ATOM      4  C   UNL     1       6.870   4.912  18.511  0.00  0.00    +0.000 A 
ATOM      5  O   UNL     1       5.892   4.756  19.451  0.00  0.00    +0.000 OA
ENDROOT
BRANCH   1  12
ATOM      6  C   UNL     1       2.440   5.874  18.383  0.00  0.00    +0.000 C 
ATOM      7  C   UNL     1       2.477   4.724  19.356  0.00  0.00    +0.000 A 
ATOM      8  C   UNL     1       1.341   4.471  20.143  0.00  0.00    +0.000 A 
ATOM      9  C   UNL     1       1.327   3.422  21.061  0.00  0.00    +0.000 A 
ATOM     10  C   UNL     1       2.444   2.605  21.198  0.00  0.00    +0.000 A 
ATOM     11  C   UNL     1       3.580   2.840  20.421  0.00  0.00    +0.000 A 
ATOM     12  C   UNL     1       3.622   3.904  19.501  0.00  0.00    +0.000 A 
ENDBRANCH   1  12
BRANCH   3  13
ATOM     13  C   UNL     1       7.008   4.455  15.951  0.00  0.00    +0.000 C 
BRANCH  13  14
ATOM     14  N   UNL     1       6.047   4.832  14.893  0.00  0.00    +0.000 NA
ATOM     15  C   UNL     1       5.416   6.127  15.187  0.00  0.00    +0.000 C 
BRANCH  14  16
ATOM     16  C   UNL     1       6.748   4.929  13.593  0.00  0.00    +0.000 C 
BRANCH  16  17
ATOM     17  C   UNL     1       6.447   3.781  12.651  0.00  0.00    +0.000 A 
ATOM     18  C   UNL     1       5.121   3.419  12.375  0.00  0.00    +0.000 A 
ATOM     19  C   UNL     1       4.840   2.356  11.517  0.00  0.00    +0.000 A 
ATOM     20  C   UNL     1       5.880   1.647  10.922  0.00  0.00    +0.000 A 
ATOM     21  C   UNL     1       7.204   2.000  11.182  0.00  0.00    +0.000 A 
ATOM     22  C   UNL     1       7.488   3.063  12.041  0.00  0.00    +0.000 A 
ENDBRANCH  16  17
ENDBRANCH  14  16
ENDBRANCH  13  14
ENDBRANCH   3  13
TORSDOF 5
ENDMDL
MODEL 4
REMARK VINA RESULT:      -7.3      1.817      2.499
REMARK  Name = 
REMARK  7 active torsions:
REMARK  status: ('A' for Active; 'I' for Inactive)
REMARK    1  A    between atoms: C_1  and  C_2
REMARK    2  A    between atoms: C_7  and  C_8
REMARK    3  A    between atoms: C_10  and  C_11
REMARK    4  A    between atoms: C_11  and  N_12
REMARK    5  A    between atoms: N_12  and  C_13
REMARK    6  A    between atoms: N_12  and  C_14
REMARK    7  A    between atoms: C_14  and  C_15
REMARK                            x       y       z     vdW  Elec       q    Type
REMARK                         _______ _______ _______ _____ _____    ______ ____
ROOT
ATOM      1  C   UNL     1       4.814   4.196  18.725  0.00  0.00    +0.000 A 
ATOM      2  N   UNL     1       5.109   4.117  17.440  0.00  0.00    +0.000 NA
ATOM      3  C   UNL     1       6.419   4.527  17.361  0.00  0.00    +0.000 A 
ATOM      4  C   UNL     1       6.882   4.810  18.626  0.00  0.00    +0.000 A 
ATOM      5  O   UNL     1       5.861   4.610  19.510  0.00  0.00    +0.000 OA
ENDROOT
BRANCH   1  12
ATOM      6  C   UNL     1       3.543   1.517  18.519  0.00  0.00    +0.000 C 
ATOM      7  C   UNL     1       2.907   2.658  19.269  0.00  0.00    +0.000 A 
ATOM      8  C   UNL     1       1.646   2.458  19.856  0.00  0.00    +0.000 A 
ATOM      9  C   UNL     1       1.015   3.483  20.557  0.00  0.00    +0.000 A 
ATOM     10  C   UNL     1       1.637   4.720  20.689  0.00  0.00    +0.000 A 
ATOM     11  C   UNL     1       2.891   4.935  20.115  0.00  0.00    +0.000 A 
ATOM     12  C   UNL     1       3.540   3.919  19.388  0.00  0.00    +0.000 A 
ENDBRANCH   1  12
BRANCH   3  13
ATOM     13  C   UNL     1       7.087   4.654  16.034  0.00  0.00    +0.000 C 
BRANCH  13  14
ATOM     14  N   UNL     1       6.123   4.855  14.932  0.00  0.00    +0.000 NA
ATOM     15  C   UNL     1       5.392   6.120  15.090  0.00  0.00    +0.000 C 
BRANCH  14  16
ATOM     16  C   UNL     1       6.843   4.881  13.638  0.00  0.00    +0.000 C 
BRANCH  16  17
ATOM     17  C   UNL     1       6.416   3.786  12.681  0.00  0.00    +0.000 A 
ATOM     18  C   UNL     1       7.375   2.968  12.066  0.00  0.00    +0.000 A 
ATOM     19  C   UNL     1       6.988   1.967  11.177  0.00  0.00    +0.000 A 
ATOM     20  C   UNL     1       5.638   1.768  10.895  0.00  0.00    +0.000 A 
ATOM     21  C   UNL     1       4.673   2.571  11.504  0.00  0.00    +0.000 A 
ATOM     22  C   UNL     1       5.059   3.575  12.394  0.00  0.00    +0.000 A 
ENDBRANCH  16  17
ENDBRANCH  14  16
ENDBRANCH  13  14
ENDBRANCH   3  13
TORSDOF 5
ENDMDL
MODEL 5
REMARK VINA RESULT:      -7.3      1.803      2.587
REMARK  Name = 
REMARK  7 active torsions:
REMARK  status: ('A' for Active; 'I' for Inactive)
REMARK    1  A    between atoms: C_1  and  C_2
REMARK    2  A    between atoms: C_7  and  C_8
REMARK    3  A    between atoms: C_10  and  C_11
REMARK    4  A    between atoms: C_11  and  N_12
REMARK    5  A    between atoms: N_12  and  C_13
REMARK    6  A    between atoms: N_12  and  C_14
REMARK    7  A    between atoms: C_14  and  C_15
REMARK                            x       y       z     vdW  Elec       q    Type
REMARK                         _______ _______ _______ _____ _____    ______ ____
ROOT
ATOM      1  C   UNL     1       4.672   4.160  18.706  0.00  0.00    +0.000 A 
ATOM      2  N   UNL     1       5.025   3.953  17.450  0.00  0.00    +0.000 NA
ATOM      3  C   UNL     1       6.294   4.474  17.359  0.00  0.00    +0.000 A 
ATOM      4  C   UNL     1       6.676   4.954  18.591  0.00  0.00    +0.000 A 
ATOM      5  O   UNL     1       5.642   4.767  19.463  0.00  0.00    +0.000 OA
ENDROOT
BRANCH   1  12
ATOM      6  C   UNL     1       3.505   1.432  18.528  0.00  0.00    +0.000 C 
ATOM      7  C   UNL     1       2.819   2.559  19.255  0.00  0.00    +0.000 A 
ATOM      8  C   UNL     1       1.561   2.321  19.834  0.00  0.00    +0.000 A 
ATOM      9  C   UNL     1       0.884   3.332  20.513  0.00  0.00    +0.000 A 
ATOM     10  C   UNL     1       1.457   4.593  20.632  0.00  0.00    +0.000 A 
ATOM     11  C   UNL     1       2.709   4.846  20.066  0.00  0.00    +0.000 A 
ATOM     12  C   UNL     1       3.403   3.845  19.361  0.00  0.00    +0.000 A 
ENDBRANCH   1  12
BRANCH   3  13
ATOM     13  C   UNL     1       7.002   4.502  16.047  0.00  0.00    +0.000 C 
BRANCH  13  14
ATOM     14  N   UNL     1       6.090   4.783  14.918  0.00  0.00    +0.000 NA
ATOM     15  C   UNL     1       5.411   6.074  15.094  0.00  0.00    +0.000 C 
BRANCH  14  16
ATOM     16  C   UNL     1       6.859   4.819  13.653  0.00  0.00    +0.000 C 
BRANCH  16  17
ATOM     17  C   UNL     1       6.468   3.733  12.671  0.00  0.00    +0.000 A 
ATOM     18  C   UNL     1       5.119   3.513  12.357  0.00  0.00    +0.000 A 
ATOM     19  C   UNL     1       4.755   2.507  11.462  0.00  0.00    +0.000 A 
ATOM     20  C   UNL     1       5.734   1.715  10.867  0.00  0.00    +0.000 A 
ATOM     21  C   UNL     1       7.080   1.927  11.165  0.00  0.00    +0.000 A 
ATOM     22  C   UNL     1       7.447   2.933  12.062  0.00  0.00    +0.000 A 
ENDBRANCH  16  17
ENDBRANCH  14  16
ENDBRANCH  13  14
ENDBRANCH   3  13
TORSDOF 5
ENDMDL
MODEL 6
REMARK VINA RESULT:      -7.3      1.708      2.543
REMARK  Name = 
REMARK  7 active torsions:
REMARK  status: ('A' for Active; 'I' for Inactive)
REMARK    1  A    between atoms: C_1  and  C_2
REMARK    2  A    between atoms: C_7  and  C_8
REMARK    3  A    between atoms: C_10  and  C_11
REMARK    4  A    between atoms: C_11  and  N_12
REMARK    5  A    between atoms: N_12  and  C_13
REMARK    6  A    between atoms: N_12  and  C_14
REMARK    7  A    between atoms: C_14  and  C_15
REMARK                            x       y       z     vdW  Elec       q    Type
REMARK                         _______ _______ _______ _____ _____    ______ ____
ROOT
ATOM      1  C   UNL     1       4.808   4.256  18.810  0.00  0.00    +0.000 A 
ATOM      2  N   UNL     1       5.071   4.021  17.536  0.00  0.00    +0.000 NA
ATOM      3  C   UNL     1       6.359   4.470  17.362  0.00  0.00    +0.000 A 
ATOM      4  C   UNL     1       6.843   4.934  18.563  0.00  0.00    +0.000 A 
ATOM      5  O   UNL     1       5.857   4.812  19.499  0.00  0.00    +0.000 OA
ENDROOT
BRANCH   1  12
ATOM      6  C   UNL     1       2.690   6.338  18.932  0.00  0.00    +0.000 C 
ATOM      7  C   UNL     1       2.565   5.014  19.639  0.00  0.00    +0.000 A 
ATOM      8  C   UNL     1       1.422   4.774  20.421  0.00  0.00    +0.000 A 
ATOM      9  C   UNL     1       1.261   3.567  21.098  0.00  0.00    +0.000 A 
ATOM     10  C   UNL     1       2.234   2.579  20.998  0.00  0.00    +0.000 A 
ATOM     11  C   UNL     1       3.375   2.800  20.224  0.00  0.00    +0.000 A 
ATOM     12  C   UNL     1       3.566   4.018  19.545  0.00  0.00    +0.000 A 
ENDBRANCH   1  12
BRANCH   3  13
ATOM     13  C   UNL     1       6.985   4.448  16.009  0.00  0.00    +0.000 C 
BRANCH  13  14
ATOM     14  N   UNL     1       6.027   4.794  14.937  0.00  0.00    +0.000 NA
ATOM     15  C   UNL     1       5.378   6.085  15.203  0.00  0.00    +0.000 C 
BRANCH  14  16
ATOM     16  C   UNL     1       6.738   4.877  13.641  0.00  0.00    +0.000 C 
BRANCH  16  17
ATOM     17  C   UNL     1       6.392   3.756  12.683  0.00  0.00    +0.000 A 
ATOM     18  C   UNL     1       7.403   2.948  12.142  0.00  0.00    +0.000 A 
ATOM     19  C   UNL     1       7.089   1.922  11.251  0.00  0.00    +0.000 A 
ATOM     20  C   UNL     1       5.763   1.688  10.895  0.00  0.00    +0.000 A 
ATOM     21  C   UNL     1       4.747   2.480  11.430  0.00  0.00    +0.000 A 
ATOM     22  C   UNL     1       5.059   3.509  12.321  0.00  0.00    +0.000 A 
ENDBRANCH  16  17
ENDBRANCH  14  16
ENDBRANCH  13  14
ENDBRANCH   3  13
TORSDOF 5
ENDMDL
MODEL 7
REMARK VINA RESULT:      -7.3      2.283      7.092
REMARK  Name = 
REMARK  7 active torsions:
REMARK  status: ('A' for Active; 'I' for Inactive)
REMARK    1  A    between atoms: C_1  and  C_2
REMARK    2  A    between atoms: C_7  and  C_8
REMARK    3  A    between atoms: C_10  and  C_11
REMARK    4  A    between atoms: C_11  and  N_12
REMARK    5  A    between atoms: N_12  and  C_13
REMARK    6  A    between atoms: N_12  and  C_14
REMARK    7  A    between atoms: C_14  and  C_15
REMARK                            x       y       z     vdW  Elec       q    Type
REMARK                         _______ _______ _______ _____ _____    ______ ____
ROOT
ATOM      1  C   UNL     1       4.332   3.688  17.043  0.00  0.00    +0.000 A 
ATOM      2  N   UNL     1       3.326   4.429  17.472  0.00  0.00    +0.000 NA
ATOM      3  C   UNL     1       2.655   3.618  18.356  0.00  0.00    +0.000 A 
ATOM      4  C   UNL     1       3.310   2.413  18.454  0.00  0.00    +0.000 A 
ATOM      5  O   UNL     1       4.383   2.439  17.610  0.00  0.00    +0.000 OA
ENDROOT
BRANCH   1  12
ATOM      6  C   UNL     1       6.953   4.808  17.886  0.00  0.00    +0.000 C 
ATOM      7  C   UNL     1       6.595   4.589  16.439  0.00  0.00    +0.000 A 
ATOM      8  C   UNL     1       7.520   4.969  15.452  0.00  0.00    +0.000 A 
ATOM      9  C   UNL     1       7.234   4.791  14.099  0.00  0.00    +0.000 A 
ATOM     10  C   UNL     1       6.025   4.223  13.714  0.00  0.00    +0.000 A 
ATOM     11  C   UNL     1       5.096   3.837  14.683  0.00  0.00    +0.000 A 
ATOM     12  C   UNL     1       5.356   4.022  16.053  0.00  0.00    +0.000 A 
ENDBRANCH   1  12
BRANCH   3  13
ATOM     13  C   UNL     1       1.390   4.087  18.991  0.00  0.00    +0.000 C 
BRANCH  13  14
ATOM     14  N   UNL     1       1.629   4.833  20.245  0.00  0.00    +0.000 NA
ATOM     15  C   UNL     1       2.049   3.932  21.327  0.00  0.00    +0.000 C 
BRANCH  14  16
ATOM     16  C   UNL     1       2.690   5.843  20.030  0.00  0.00    +0.000 C 
BRANCH  16  17
ATOM     17  C   UNL     1       2.162   7.205  19.626  0.00  0.00    +0.000 A 
ATOM     18  C   UNL     1       1.479   8.005  20.555  0.00  0.00    +0.000 A 
ATOM     19  C   UNL     1       0.983   9.254  20.185  0.00  0.00    +0.000 A 
ATOM     20  C   UNL     1       1.166   9.721  18.885  0.00  0.00    +0.000 A 
ATOM     21  C   UNL     1       1.849   8.939  17.953  0.00  0.00    +0.000 A 
ATOM     22  C   UNL     1       2.346   7.687  18.321  0.00  0.00    +0.000 A 
ENDBRANCH  16  17
ENDBRANCH  14  16
ENDBRANCH  13  14
ENDBRANCH   3  13
TORSDOF 5
ENDMDL
MODEL 8
REMARK VINA RESULT:      -7.2      3.880      7.452
REMARK  Name = 
REMARK  7 active torsions:
REMARK  status: ('A' for Active; 'I' for Inactive)
REMARK    1  A    between atoms: C_1  and  C_2
REMARK    2  A    between atoms: C_7  and  C_8
REMARK    3  A    between atoms: C_10  and  C_11
REMARK    4  A    between atoms: C_11  and  N_12
REMARK    5  A    between atoms: N_12  and  C_13
REMARK    6  A    between atoms: N_12  and  C_14
REMARK    7  A    between atoms: C_14  and  C_15
REMARK                            x       y       z     vdW  Elec       q    Type
REMARK                         _______ _______ _______ _____ _____    ______ ____
ROOT
ATOM      1  C   UNL     1       2.584   6.041  18.829  0.00  0.00    +0.000 A 
ATOM      2  N   UNL     1       1.750   7.041  18.607  0.00  0.00    +0.000 NA
ATOM      3  C   UNL     1       2.494   7.962  17.909  0.00  0.00    +0.000 A 
ATOM      4  C   UNL     1       3.759   7.461  17.704  0.00  0.00    +0.000 A 
ATOM      5  O   UNL     1       3.834   6.233  18.296  0.00  0.00    +0.000 OA
ENDROOT
BRANCH   1  12
ATOM      6  C   UNL     1       2.157   3.475  17.391  0.00  0.00    +0.000 C 
ATOM      7  C   UNL     1       2.107   3.579  18.893  0.00  0.00    +0.000 A 
ATOM      8  C   UNL     1       1.806   2.426  19.638  0.00  0.00    +0.000 A 
ATOM      9  C   UNL     1       1.744   2.470  21.029  0.00  0.00    +0.000 A 
ATOM     10  C   UNL     1       1.991   3.664  21.698  0.00  0.00    +0.000 A 
ATOM     11  C   UNL     1       2.296   4.819  20.973  0.00  0.00    +0.000 A 
ATOM     12  C   UNL     1       2.347   4.801  19.567  0.00  0.00    +0.000 A 
ENDBRANCH   1  12
BRANCH   3  13
ATOM     13  C   UNL     1       1.906   9.284  17.548  0.00  0.00    +0.000 C 
BRANCH  13  14
ATOM     14  N   UNL     1       1.602  10.111  18.735  0.00  0.00    +0.000 NA
ATOM     15  C   UNL     1       2.048  11.498  18.543  0.00  0.00    +0.000 C 
BRANCH  14  16
ATOM     16  C   UNL     1       0.142  10.112  18.981  0.00  0.00    +0.000 C 
BRANCH  16  17
ATOM     17  C   UNL     1      -0.228  10.169  20.450  0.00  0.00    +0.000 A 
ATOM     18  C   UNL     1      -0.845  11.312  20.981  0.00  0.00    +0.000 A 
ATOM     19  C   UNL     1      -1.178  11.373  22.334  0.00  0.00    +0.000 A 
ATOM     20  C   UNL     1      -0.902  10.293  23.170  0.00  0.00    +0.000 A 
ATOM     21  C   UNL     1      -0.295   9.148  22.653  0.00  0.00    +0.000 A 
ATOM     22  C   UNL     1       0.040   9.085  21.299  0.00  0.00    +0.000 A 
ENDBRANCH  16  17
ENDBRANCH  14  16
ENDBRANCH  13  14
ENDBRANCH   3  13
TORSDOF 5
ENDMDL
MODEL 9
REMARK VINA RESULT:      -7.2      0.674      1.763
REMARK  Name = 
REMARK  7 active torsions:
REMARK  status: ('A' for Active; 'I' for Inactive)
REMARK    1  A    between atoms: C_1  and  C_2
REMARK    2  A    between atoms: C_7  and  C_8
REMARK    3  A    between atoms: C_10  and  C_11
REMARK    4  A    between atoms: C_11  and  N_12
REMARK    5  A    between atoms: N_12  and  C_13
REMARK    6  A    between atoms: N_12  and  C_14
REMARK    7  A    between atoms: C_14  and  C_15
REMARK                            x       y       z     vdW  Elec       q    Type
REMARK                         _______ _______ _______ _____ _____    ______ ____
ROOT
ATOM      1  C   UNL     1       2.999   5.483  18.062  0.00  0.00    +0.000 A 
ATOM      2  N   UNL     1       3.949   5.346  17.154  0.00  0.00    +0.000 NA
ATOM      3  C   UNL     1       4.326   6.634  16.853  0.00  0.00    +0.000 A 
ATOM      4  C   UNL     1       3.601   7.511  17.627  0.00  0.00    +0.000 A 
ATOM      5  O   UNL     1       2.740   6.788  18.401  0.00  0.00    +0.000 OA
ENDROOT
BRANCH   1  12
ATOM      6  C   UNL     1       1.831   5.933  20.758  0.00  0.00    +0.000 C 
ATOM      7  C   UNL     1       1.672   4.633  20.014  0.00  0.00    +0.000 A 
ATOM      8  C   UNL     1       0.981   3.580  20.638  0.00  0.00    +0.000 A 
ATOM      9  C   UNL     1       0.811   2.356  19.993  0.00  0.00    +0.000 A 
ATOM     10  C   UNL     1       1.320   2.169  18.713  0.00  0.00    +0.000 A 
ATOM     11  C   UNL     1       2.006   3.206  18.077  0.00  0.00    +0.000 A 
ATOM     12  C   UNL     1       2.204   4.444  18.716  0.00  0.00    +0.000 A 
ENDBRANCH   1  12
BRANCH   3  13
ATOM     13  C   UNL     1       5.336   6.890  15.786  0.00  0.00    +0.000 C 
BRANCH  13  14
ATOM     14  N   UNL     1       6.710   6.557  16.216  0.00  0.00    +0.000 NA
ATOM     15  C   UNL     1       6.904   6.846  17.644  0.00  0.00    +0.000 C 
BRANCH  14  16
ATOM     16  C   UNL     1       6.970   5.118  15.983  0.00  0.00    +0.000 C 
BRANCH  16  17
ATOM     17  C   UNL     1       6.904   4.715  14.523  0.00  0.00    +0.000 A 
ATOM     18  C   UNL     1       5.987   3.744  14.097  0.00  0.00    +0.000 A 
ATOM     19  C   UNL     1       5.930   3.363  12.757  0.00  0.00    +0.000 A 
ATOM     20  C   UNL     1       6.785   3.950  11.828  0.00  0.00    +0.000 A 
ATOM     21  C   UNL     1       7.699   4.922  12.237  0.00  0.00    +0.000 A 
ATOM     22  C   UNL     1       7.758   5.304  13.578  0.00  0.00    +0.000 A 
ENDBRANCH  16  17
ENDBRANCH  14  16
ENDBRANCH  13  14
ENDBRANCH   3  13
TORSDOF 5
ENDMDL
