MODEL 1
REMARK VINA RESULT:      -8.7      0.000      0.000
REMARK  Name = 
REMARK  9 active torsions:
REMARK  status: ('A' for Active; 'I' for Inactive)
REMARK    1  A    between atoms: C_1  and  C_2
REMARK    2  A    between atoms: C_8  and  S_9
REMARK    3  A    between atoms: S_9  and  N_12
REMARK    4  A    between atoms: N_12  and  C_13
REMARK    5  A    between atoms: C_13  and  C_14
REMARK    6  A    between atoms: C_14  and  C_15
REMARK    7  A    between atoms: N_17  and  C_18
REMARK    8  A    between atoms: C_18  and  C_19
REMARK    9  A    between atoms: C_29  and  C_30
REMARK                            x       y       z     vdW  Elec       q    Type
REMARK                         _______ _______ _______ _____ _____    ______ ____
ROOT
ATOM      1  S   UNL     1       3.820   4.562  18.328  0.00  0.00    +0.000 S 
ATOM      2  O   UNL     1       3.946   3.560  19.362  0.00  0.00    +0.000 OA
ATOM      3  O   UNL     1       3.198   4.265  17.054  0.00  0.00    +0.000 OA
ENDROOT
BRANCH   1  11
ATOM      4  C   UNL     1      -0.748  10.901  21.309  0.00  0.00    +0.000 C 
ATOM      5  C   UNL     1       0.124   9.669  21.328  0.00  0.00    +0.000 C 
ATOM      6  O   UNL     1       0.222   9.033  22.379  0.00  0.00    +0.000 OA
ATOM      7  N   UNL     1       0.732   9.317  20.133  0.00  0.00    +0.000 N 
ATOM      8  C   UNL     1       1.483   8.129  19.944  0.00  0.00    +0.000 A 
ATOM      9  C   UNL     1       1.686   7.048  20.798  0.00  0.00    +0.000 A 
ATOM     10  C   UNL     1       2.428   5.935  20.350  0.00  0.00    +0.000 A 
ATOM     11  C   UNL     1       2.949   5.927  19.048  0.00  0.00    +0.000 A 
ATOM     12  C   UNL     1       2.778   7.035  18.210  0.00  0.00    +0.000 A 
ATOM     13  C   UNL     1       2.050   8.119  18.675  0.00  0.00    +0.000 A 
ATOM     14  C   UNL     1       1.773   9.376  17.925  0.00  0.00    +0.000 C 
ATOM     15  C   UNL     1       0.863  10.155  18.900  0.00  0.00    +0.000 C 
ATOM     16  C   UNL     1      -0.451  10.496  18.193  0.00  0.00    +0.000 C 
ENDBRANCH   1  11
BRANCH   1  17
ATOM     17  N   UNL     1       5.411   5.050  18.014  0.00  0.00    +0.000 NA
ATOM     18  H   UNL     1       5.349   5.777  17.295  0.00  0.00    +0.000 HD
BRANCH  17  19
ATOM     19  C   UNL     1       6.234   5.403  19.197  0.00  0.00    +0.000 C 
BRANCH  19  20
ATOM     20  C   UNL     1       7.661   5.749  18.798  0.00  0.00    +0.000 C 
BRANCH  20  21
ATOM     21  C   UNL     1       7.747   6.879  17.796  0.00  0.00    +0.000 C 
ATOM     22  O   UNL     1       7.587   6.700  16.595  0.00  0.00    +0.000 OA
ATOM     23  N   UNL     1       8.072   8.094  18.351  0.00  0.00    +0.000 N 
ATOM     24  H   UNL     1       7.877   8.209  19.339  0.00  0.00    +0.000 HD
BRANCH  23  25
ATOM     25  C   UNL     1       8.158   9.295  17.556  0.00  0.00    +0.000 C 
BRANCH  25  26
ATOM     26  C   UNL     1       8.808  10.404  18.344  0.00  0.00    +0.000 A 
ATOM     27  C   UNL     1       8.893  11.696  17.803  0.00  0.00    +0.000 A 
ATOM     28  C   UNL     1       9.524  12.723  18.510  0.00  0.00    +0.000 A 
ATOM     29  C   UNL     1      10.081  12.461  19.758  0.00  0.00    +0.000 A 
ATOM     30 CL   UNL     1      10.878  13.720  20.621  0.00  0.00    +0.000 Cl
ATOM     31  C   UNL     1      10.004  11.184  20.310  0.00  0.00    +0.000 A 
ATOM     32  C   UNL     1       9.374  10.157  19.603  0.00  0.00    +0.000 A 
ENDBRANCH  25  26
ENDBRANCH  23  25
ENDBRANCH  20  21
ENDBRANCH  19  20
ENDBRANCH  17  19
ENDBRANCH   1  17
TORSDOF 7
ENDMDL
MODEL 2
REMARK VINA RESULT:      -8.6      0.507      1.053
REMARK  Name = 
REMARK  9 active torsions:
REMARK  status: ('A' for Active; 'I' for Inactive)
REMARK    1  A    between atoms: C_1  and  C_2
REMARK    2  A    between atoms: C_8  and  S_9
REMARK    3  A    between atoms: S_9  and  N_12
REMARK    4  A    between atoms: N_12  and  C_13
REMARK    5  A    between atoms: C_13  and  C_14
REMARK    6  A    between atoms: C_14  and  C_15
REMARK    7  A    between atoms: N_17  and  C_18
REMARK    8  A    between atoms: C_18  and  C_19
REMARK    9  A    between atoms: C_29  and  C_30
REMARK                            x       y       z     vdW  Elec       q    Type
REMARK                         _______ _______ _______ _____ _____    ______ ____
ROOT
ATOM      1  S   UNL     1       4.005   4.910  17.791  0.00  0.00    +0.000 S 
ATOM      2  O   UNL     1       3.168   3.731  17.810  0.00  0.00    +0.000 OA
ATOM      3  O   UNL     1       4.481   5.482  16.549  0.00  0.00    +0.000 OA
ENDROOT
BRANCH   1  11
ATOM      4  C   UNL     1      -0.640  10.794  21.498  0.00  0.00    +0.000 C 
ATOM      5  C   UNL     1       0.268   9.595  21.373  0.00  0.00    +0.000 C 
ATOM      6  O   UNL     1       0.425   8.870  22.357  0.00  0.00    +0.000 OA
ATOM      7  N   UNL     1       0.842   9.374  20.131  0.00  0.00    +0.000 N 
ATOM      8  C   UNL     1       1.622   8.234  19.808  0.00  0.00    +0.000 A 
ATOM      9  C   UNL     1       1.889   7.087  20.552  0.00  0.00    +0.000 A 
ATOM     10  C   UNL     1       2.648   6.045  19.977  0.00  0.00    +0.000 A 
ATOM     11  C   UNL     1       3.120   6.174  18.664  0.00  0.00    +0.000 A 
ATOM     12  C   UNL     1       2.884   7.346  17.937  0.00  0.00    +0.000 A 
ATOM     13  C   UNL     1       2.141   8.358  18.524  0.00  0.00    +0.000 A 
ATOM     14  C   UNL     1       1.799   9.668  17.903  0.00  0.00    +0.000 C 
ATOM     15  C   UNL     1       0.902  10.325  18.976  0.00  0.00    +0.000 C 
ATOM     16  C   UNL     1      -0.447  10.683  18.349  0.00  0.00    +0.000 C 
ENDBRANCH   1  11
BRANCH   1  17
ATOM     17  N   UNL     1       5.363   4.480  18.707  0.00  0.00    +0.000 NA
ATOM     18  H   UNL     1       5.882   3.800  18.142  0.00  0.00    +0.000 HD
BRANCH  17  19
ATOM     19  C   UNL     1       6.171   5.600  19.247  0.00  0.00    +0.000 C 
BRANCH  19  20
ATOM     20  C   UNL     1       7.544   5.660  18.594  0.00  0.00    +0.000 C 
BRANCH  20  21
ATOM     21  C   UNL     1       7.699   6.814  17.627  0.00  0.00    +0.000 C 
ATOM     22  O   UNL     1       7.586   6.670  16.416  0.00  0.00    +0.000 OA
ATOM     23  N   UNL     1       8.029   8.006  18.227  0.00  0.00    +0.000 N 
ATOM     24  H   UNL     1       7.796   8.100  19.210  0.00  0.00    +0.000 HD
BRANCH  23  25
ATOM     25  C   UNL     1       8.177   9.225  17.469  0.00  0.00    +0.000 C 
BRANCH  25  26
ATOM     26  C   UNL     1       8.763  10.314  18.332  0.00  0.00    +0.000 A 
ATOM     27  C   UNL     1       9.211  10.020  19.629  0.00  0.00    +0.000 A 
ATOM     28  C   UNL     1       9.725  11.028  20.450  0.00  0.00    +0.000 A 
ATOM     29  C   UNL     1       9.785  12.337  19.980  0.00  0.00    +0.000 A 
ATOM     30 CL   UNL     1      10.397  13.584  20.997  0.00  0.00    +0.000 Cl
ATOM     31  C   UNL     1       9.346  12.645  18.694  0.00  0.00    +0.000 A 
ATOM     32  C   UNL     1       8.831  11.638  17.874  0.00  0.00    +0.000 A 
ENDBRANCH  25  26
ENDBRANCH  23  25
ENDBRANCH  20  21
ENDBRANCH  19  20
ENDBRANCH  17  19
ENDBRANCH   1  17
TORSDOF 7
ENDMDL
MODEL 3
REMARK VINA RESULT:      -8.6      3.419      4.750
REMARK  Name = 
REMARK  9 active torsions:
REMARK  status: ('A' for Active; 'I' for Inactive)
REMARK    1  A    between atoms: C_1  and  C_2
REMARK    2  A    between atoms: C_8  and  S_9
REMARK    3  A    between atoms: S_9  and  N_12
REMARK    4  A    between atoms: N_12  and  C_13
REMARK    5  A    between atoms: C_13  and  C_14
REMARK    6  A    between atoms: C_14  and  C_15
REMARK    7  A    between atoms: N_17  and  C_18
REMARK    8  A    between atoms: C_18  and  C_19
REMARK    9  A    between atoms: C_29  and  C_30
REMARK                            x       y       z     vdW  Elec       q    Type
REMARK                         _______ _______ _______ _____ _____    ______ ____
ROOT
ATOM      1  S   UNL     1       2.471   5.995  19.218  0.00  0.00    +0.000 S 
ATOM      2  O   UNL     1       2.210   6.034  17.797  0.00  0.00    +0.000 OA
ATOM      3  O   UNL     1       3.813   5.838  19.739  0.00  0.00    +0.000 OA
ENDROOT
BRANCH   1  11
ATOM      4  C   UNL     1      -1.191  12.964  22.037  0.00  0.00    +0.000 C 
ATOM      5  C   UNL     1      -0.467  11.640  22.087  0.00  0.00    +0.000 C 
ATOM      6  O   UNL     1      -0.394  11.050  23.166  0.00  0.00    +0.000 OA
ATOM      7  N   UNL     1       0.040  11.162  20.889  0.00  0.00    +0.000 N 
ATOM      8  C   UNL     1       0.639   9.886  20.734  0.00  0.00    +0.000 A 
ATOM      9  C   UNL     1       0.756   8.831  21.636  0.00  0.00    +0.000 A 
ATOM     10  C   UNL     1       1.343   7.618  21.218  0.00  0.00    +0.000 A 
ATOM     11  C   UNL     1       1.798   7.486  19.899  0.00  0.00    +0.000 A 
ATOM     12  C   UNL     1       1.716   8.564  19.010  0.00  0.00    +0.000 A 
ATOM     13  C   UNL     1       1.141   9.747  19.445  0.00  0.00    +0.000 A 
ATOM     14  C   UNL     1       0.976  10.990  18.641  0.00  0.00    +0.000 C 
ATOM     15  C   UNL     1       0.209  11.918  19.608  0.00  0.00    +0.000 C 
ATOM     16  C   UNL     1      -1.089  12.375  18.938  0.00  0.00    +0.000 C 
ENDBRANCH   1  11
BRANCH   1  17
ATOM     17  N   UNL     1       1.551   4.689  19.782  0.00  0.00    +0.000 NA
ATOM     18  H   UNL     1       0.916   4.438  19.018  0.00  0.00    +0.000 HD
BRANCH  17  19
ATOM     19  C   UNL     1       2.310   3.557  20.367  0.00  0.00    +0.000 C 
BRANCH  19  20
ATOM     20  C   UNL     1       2.218   2.314  19.493  0.00  0.00    +0.000 C 
BRANCH  20  21
ATOM     21  C   UNL     1       3.350   2.196  18.496  0.00  0.00    +0.000 C 
ATOM     22  O   UNL     1       3.954   1.145  18.317  0.00  0.00    +0.000 OA
ATOM     23  N   UNL     1       3.665   3.375  17.865  0.00  0.00    +0.000 N 
ATOM     24  H   UNL     1       2.940   4.084  17.837  0.00  0.00    +0.000 HD
BRANCH  23  25
ATOM     25  C   UNL     1       4.690   3.446  16.852  0.00  0.00    +0.000 C 
BRANCH  25  26
ATOM     26  C   UNL     1       5.569   4.651  17.075  0.00  0.00    +0.000 A 
ATOM     27  C   UNL     1       6.613   4.597  18.012  0.00  0.00    +0.000 A 
ATOM     28  C   UNL     1       7.412   5.718  18.252  0.00  0.00    +0.000 A 
ATOM     29  C   UNL     1       7.167   6.901  17.561  0.00  0.00    +0.000 A 
ATOM     30 CL   UNL     1       8.136   8.289  17.872  0.00  0.00    +0.000 Cl
ATOM     31  C   UNL     1       6.136   6.971  16.627  0.00  0.00    +0.000 A 
ATOM     32  C   UNL     1       5.335   5.851  16.388  0.00  0.00    +0.000 A 
ENDBRANCH  25  26
ENDBRANCH  23  25
ENDBRANCH  20  21
ENDBRANCH  19  20
ENDBRANCH  17  19
ENDBRANCH   1  17
TORSDOF 7
ENDMDL
MODEL 4
REMARK VINA RESULT:      -8.2      3.696      5.046
REMARK  Name = 
REMARK  9 active torsions:
REMARK  status: ('A' for Active; 'I' for Inactive)
REMARK    1  A    between atoms: C_1  and  C_2
REMARK    2  A    between atoms: C_8  and  S_9
REMARK    3  A    between atoms: S_9  and  N_12
REMARK    4  A    between atoms: N_12  and  C_13
REMARK    5  A    between atoms: C_13  and  C_14
REMARK    6  A    between atoms: C_14  and  C_15
REMARK    7  A    between atoms: N_17  and  C_18
REMARK    8  A    between atoms: C_18  and  C_19
REMARK    9  A    between atoms: C_29  and  C_30
REMARK                            x       y       z     vdW  Elec       q    Type
REMARK                         _______ _______ _______ _____ _____    ______ ____
ROOT
ATOM      1  S   UNL     1       2.672   6.423  19.310  0.00  0.00    +0.000 S 
ATOM      2  O   UNL     1       2.063   6.146  18.029  0.00  0.00    +0.000 OA
ATOM      3  O   UNL     1       4.082   6.730  19.430  0.00  0.00    +0.000 OA
ENDROOT
BRANCH   1  11
ATOM      4  C   UNL     1      -2.093  12.610  22.300  0.00  0.00    +0.000 C 
ATOM      5  C   UNL     1      -1.138  11.441  22.315  0.00  0.00    +0.000 C 
ATOM      6  O   UNL     1      -0.917  10.877  23.388  0.00  0.00    +0.000 OA
ATOM      7  N   UNL     1      -0.598  11.061  21.097  0.00  0.00    +0.000 N 
ATOM      8  C   UNL     1       0.218   9.916  20.913  0.00  0.00    +0.000 A 
ATOM      9  C   UNL     1       0.561   8.903  21.805  0.00  0.00    +0.000 A 
ATOM     10  C   UNL     1       1.344   7.817  21.359  0.00  0.00    +0.000 A 
ATOM     11  C   UNL     1       1.765   7.767  20.023  0.00  0.00    +0.000 A 
ATOM     12  C   UNL     1       1.453   8.810  19.143  0.00  0.00    +0.000 A 
ATOM     13  C   UNL     1       0.687   9.868  19.605  0.00  0.00    +0.000 A 
ATOM     14  C   UNL     1       0.267  11.058  18.813  0.00  0.00    +0.000 C 
ATOM     15  C   UNL     1      -0.620  11.832  19.814  0.00  0.00    +0.000 C 
ATOM     16  C   UNL     1      -2.004  12.042  19.196  0.00  0.00    +0.000 C 
ENDBRANCH   1  11
BRANCH   1  17
ATOM     17  N   UNL     1       2.376   5.031  20.230  0.00  0.00    +0.000 NA
ATOM     18  H   UNL     1       2.548   5.294  21.205  0.00  0.00    +0.000 HD
BRANCH  17  19
ATOM     19  C   UNL     1       1.085   4.344  19.980  0.00  0.00    +0.000 C 
BRANCH  19  20
ATOM     20  C   UNL     1       1.300   2.940  19.434  0.00  0.00    +0.000 C 
BRANCH  20  21
ATOM     21  C   UNL     1       2.718   2.687  18.969  0.00  0.00    +0.000 C 
ATOM     22  O   UNL     1       3.556   2.156  19.688  0.00  0.00    +0.000 OA
ATOM     23  N   UNL     1       2.983   3.156  17.704  0.00  0.00    +0.000 N 
ATOM     24  H   UNL     1       2.185   3.285  17.091  0.00  0.00    +0.000 HD
BRANCH  23  25
ATOM     25  C   UNL     1       4.268   2.968  17.077  0.00  0.00    +0.000 C 
BRANCH  25  26
ATOM     26  C   UNL     1       5.102   4.219  17.198  0.00  0.00    +0.000 A 
ATOM     27  C   UNL     1       4.901   5.288  16.311  0.00  0.00    +0.000 A 
ATOM     28  C   UNL     1       5.691   6.438  16.392  0.00  0.00    +0.000 A 
ATOM     29  C   UNL     1       6.691   6.521  17.356  0.00  0.00    +0.000 A 
ATOM     30 CL   UNL     1       7.680   7.928  17.443  0.00  0.00    +0.000 Cl
ATOM     31  C   UNL     1       6.903   5.470  18.245  0.00  0.00    +0.000 A 
ATOM     32  C   UNL     1       6.114   4.319  18.164  0.00  0.00    +0.000 A 
ENDBRANCH  25  26
ENDBRANCH  23  25
ENDBRANCH  20  21
ENDBRANCH  19  20
ENDBRANCH  17  19
ENDBRANCH   1  17
TORSDOF 7
ENDMDL
MODEL 5
REMARK VINA RESULT:      -8.1      2.824      4.158
REMARK  Name = 
REMARK  9 active torsions:
REMARK  status: ('A' for Active; 'I' for Inactive)
REMARK    1  A    between atoms: C_1  and  C_2
REMARK    2  A    between atoms: C_8  and  S_9
REMARK    3  A    between atoms: S_9  and  N_12
REMARK    4  A    between atoms: N_12  and  C_13
REMARK    5  A    between atoms: C_13  and  C_14
REMARK    6  A    between atoms: C_14  and  C_15
REMARK    7  A    between atoms: N_17  and  C_18
REMARK    8  A    between atoms: C_18  and  C_19
REMARK    9  A    between atoms: C_29  and  C_30
REMARK                            x       y       z     vdW  Elec       q    Type
REMARK                         _______ _______ _______ _____ _____    ______ ____
ROOT
ATOM      1  S   UNL     1       2.681   6.983  18.638  0.00  0.00    +0.000 S 
ATOM      2  O   UNL     1       1.720   6.174  17.922  0.00  0.00    +0.000 OA
ATOM      3  O   UNL     1       3.746   7.682  17.950  0.00  0.00    +0.000 OA
ENDROOT
BRANCH   1  11
ATOM      4  C   UNL     1      -2.207  12.480  22.616  0.00  0.00    +0.000 C 
ATOM      5  C   UNL     1      -1.172  11.396  22.435  0.00  0.00    +0.000 C 
ATOM      6  O   UNL     1      -0.804  10.762  23.425  0.00  0.00    +0.000 OA
ATOM      7  N   UNL     1      -0.729  11.167  21.142  0.00  0.00    +0.000 N 
ATOM      8  C   UNL     1       0.148  10.113  20.778  0.00  0.00    +0.000 A 
ATOM      9  C   UNL     1       0.650   9.059  21.537  0.00  0.00    +0.000 A 
ATOM     10  C   UNL     1       1.463   8.083  20.921  0.00  0.00    +0.000 A 
ATOM     11  C   UNL     1       1.752   8.183  19.554  0.00  0.00    +0.000 A 
ATOM     12  C   UNL     1       1.278   9.267  18.807  0.00  0.00    +0.000 A 
ATOM     13  C   UNL     1       0.487  10.216  19.434  0.00  0.00    +0.000 A 
ATOM     14  C   UNL     1      -0.096  11.431  18.798  0.00  0.00    +0.000 C 
ATOM     15  C   UNL     1      -0.934  12.041  19.944  0.00  0.00    +0.000 C 
ATOM     16  C   UNL     1      -2.384  12.189  19.478  0.00  0.00    +0.000 C 
ENDBRANCH   1  11
BRANCH   1  17
ATOM     17  N   UNL     1       3.401   5.913  19.737  0.00  0.00    +0.000 NA
ATOM     18  H   UNL     1       3.738   6.490  20.514  0.00  0.00    +0.000 HD
BRANCH  17  19
ATOM     19  C   UNL     1       2.590   4.735  20.130  0.00  0.00    +0.000 C 
BRANCH  19  20
ATOM     20  C   UNL     1       2.978   3.501  19.328  0.00  0.00    +0.000 C 
BRANCH  20  21
ATOM     21  C   UNL     1       4.441   3.470  18.945  0.00  0.00    +0.000 C 
ATOM     22  O   UNL     1       5.307   3.064  19.711  0.00  0.00    +0.000 OA
ATOM     23  N   UNL     1       4.705   3.984  17.698  0.00  0.00    +0.000 N 
ATOM     24  H   UNL     1       3.933   3.997  17.039  0.00  0.00    +0.000 HD
BRANCH  23  25
ATOM     25  C   UNL     1       6.038   3.998  17.146  0.00  0.00    +0.000 C 
BRANCH  25  26
ATOM     26  C   UNL     1       6.726   5.301  17.463  0.00  0.00    +0.000 A 
ATOM     27  C   UNL     1       7.569   5.400  18.581  0.00  0.00    +0.000 A 
ATOM     28  C   UNL     1       8.184   6.611  18.904  0.00  0.00    +0.000 A 
ATOM     29  C   UNL     1       7.954   7.735  18.114  0.00  0.00    +0.000 A 
ATOM     30 CL   UNL     1       8.694   9.234  18.523  0.00  0.00    +0.000 Cl
ATOM     31  C   UNL     1       7.122   7.654  17.000  0.00  0.00    +0.000 A 
ATOM     32  C   UNL     1       6.505   6.442  16.677  0.00  0.00    +0.000 A 
ENDBRANCH  25  26
ENDBRANCH  23  25
ENDBRANCH  20  21
ENDBRANCH  19  20
ENDBRANCH  17  19
ENDBRANCH   1  17
TORSDOF 7
ENDMDL
MODEL 6
REMARK VINA RESULT:      -8.1      1.203      1.958
REMARK  Name = 
REMARK  9 active torsions:
REMARK  status: ('A' for Active; 'I' for Inactive)
REMARK    1  A    between atoms: C_1  and  C_2
REMARK    2  A    between atoms: C_8  and  S_9
REMARK    3  A    between atoms: S_9  and  N_12
REMARK    4  A    between atoms: N_12  and  C_13
REMARK    5  A    between atoms: C_13  and  C_14
REMARK    6  A    between atoms: C_14  and  C_15
REMARK    7  A    between atoms: N_17  and  C_18
REMARK    8  A    between atoms: C_18  and  C_19
REMARK    9  A    between atoms: C_29  and  C_30
REMARK                            x       y       z     vdW  Elec       q    Type
REMARK                         _______ _______ _______ _____ _____    ______ ____
ROOT
ATOM      1  S   UNL     1       4.270   4.675  17.469  0.00  0.00    +0.000 S 
ATOM      2  O   UNL     1       3.403   3.536  17.671  0.00  0.00    +0.000 OA
ATOM      3  O   UNL     1       4.842   4.972  16.173  0.00  0.00    +0.000 OA
ENDROOT
BRANCH   1  11
ATOM      4  C   UNL     1       0.384  11.449  20.461  0.00  0.00    +0.000 C 
ATOM      5  C   UNL     1       1.021  10.529  19.448  0.00  0.00    +0.000 C 
ATOM      6  O   UNL     1       1.296  10.980  18.335  0.00  0.00    +0.000 OA
ATOM      7  N   UNL     1       1.286   9.234  19.862  0.00  0.00    +0.000 N 
ATOM      8  C   UNL     1       1.986   8.278  19.082  0.00  0.00    +0.000 A 
ATOM      9  C   UNL     1       2.634   8.418  17.856  0.00  0.00    +0.000 A 
ATOM     10  C   UNL     1       3.328   7.320  17.306  0.00  0.00    +0.000 A 
ATOM     11  C   UNL     1       3.363   6.102  17.999  0.00  0.00    +0.000 A 
ATOM     12  C   UNL     1       2.674   5.956  19.209  0.00  0.00    +0.000 A 
ATOM     13  C   UNL     1       1.995   7.047  19.728  0.00  0.00    +0.000 A 
ATOM     14  C   UNL     1       1.209   7.071  20.993  0.00  0.00    +0.000 C 
ATOM     15  C   UNL     1       0.768   8.548  21.088  0.00  0.00    +0.000 C 
ATOM     16  C   UNL     1       1.249   9.129  22.419  0.00  0.00    +0.000 C 
ENDBRANCH   1  11
BRANCH   1  17
ATOM     17  N   UNL     1       5.553   4.427  18.547  0.00  0.00    +0.000 NA
ATOM     18  H   UNL     1       6.200   3.788  18.075  0.00  0.00    +0.000 HD
BRANCH  17  19
ATOM     19  C   UNL     1       6.174   5.648  19.118  0.00  0.00    +0.000 C 
BRANCH  19  20
ATOM     20  C   UNL     1       7.518   5.942  18.467  0.00  0.00    +0.000 C 
BRANCH  20  21
ATOM     21  C   UNL     1       7.506   7.180  17.597  0.00  0.00    +0.000 C 
ATOM     22  O   UNL     1       6.972   7.196  16.494  0.00  0.00    +0.000 OA
ATOM     23  N   UNL     1       8.189   8.246  18.130  0.00  0.00    +0.000 N 
ATOM     24  H   UNL     1       8.316   8.246  19.137  0.00  0.00    +0.000 HD
BRANCH  23  25
ATOM     25  C   UNL     1       8.249   9.523  17.462  0.00  0.00    +0.000 C 
BRANCH  25  26
ATOM     26  C   UNL     1       8.825  10.572  18.380  0.00  0.00    +0.000 A 
ATOM     27  C   UNL     1       9.094  11.861  17.895  0.00  0.00    +0.000 A 
ATOM     28  C   UNL     1       9.660  12.831  18.727  0.00  0.00    +0.000 A 
ATOM     29  C   UNL     1       9.966  12.513  20.047  0.00  0.00    +0.000 A 
ATOM     30 CL   UNL     1      10.683  13.700  21.067  0.00  0.00    +0.000 Cl
ATOM     31  C   UNL     1       9.704  11.239  20.545  0.00  0.00    +0.000 A 
ATOM     32  C   UNL     1       9.140  10.269  19.712  0.00  0.00    +0.000 A 
ENDBRANCH  25  26
ENDBRANCH  23  25
ENDBRANCH  20  21
ENDBRANCH  19  20
ENDBRANCH  17  19
ENDBRANCH   1  17
TORSDOF 7
ENDMDL
MODEL 7
REMARK VINA RESULT:      -8.0      3.227      4.385
REMARK  Name = 
REMARK  9 active torsions:
REMARK  status: ('A' for Active; 'I' for Inactive)
REMARK    1  A    between atoms: C_1  and  C_2
REMARK    2  A    between atoms: C_8  and  S_9
REMARK    3  A    between atoms: S_9  and  N_12
REMARK    4  A    between atoms: N_12  and  C_13
REMARK    5  A    between atoms: C_13  and  C_14
REMARK    6  A    between atoms: C_14  and  C_15
REMARK    7  A    between atoms: N_17  and  C_18
REMARK    8  A    between atoms: C_18  and  C_19
REMARK    9  A    between atoms: C_29  and  C_30
REMARK                            x       y       z     vdW  Elec       q    Type
REMARK                         _______ _______ _______ _____ _____    ______ ____
ROOT
ATOM      1  S   UNL     1       2.919   5.708  19.683  0.00  0.00    +0.000 S 
ATOM      2  O   UNL     1       4.333   5.983  19.563  0.00  0.00    +0.000 OA
ATOM      3  O   UNL     1       2.418   4.695  20.589  0.00  0.00    +0.000 OA
ENDROOT
BRANCH   1  11
ATOM      4  C   UNL     1      -1.254  12.771  21.308  0.00  0.00    +0.000 C 
ATOM      5  C   UNL     1      -0.422  11.539  21.573  0.00  0.00    +0.000 C 
ATOM      6  O   UNL     1      -0.280  11.165  22.738  0.00  0.00    +0.000 OA
ATOM      7  N   UNL     1       0.100  10.889  20.466  0.00  0.00    +0.000 N 
ATOM      8  C   UNL     1       0.800   9.657  20.526  0.00  0.00    +0.000 A 
ATOM      9  C   UNL     1       1.021   8.799  21.601  0.00  0.00    +0.000 A 
ATOM     10  C   UNL     1       1.699   7.580  21.391  0.00  0.00    +0.000 A 
ATOM     11  C   UNL     1       2.138   7.242  20.103  0.00  0.00    +0.000 A 
ATOM     12  C   UNL     1       1.950   8.128  19.036  0.00  0.00    +0.000 A 
ATOM     13  C   UNL     1       1.287   9.323  19.267  0.00  0.00    +0.000 A 
ATOM     14  C   UNL     1       1.004  10.379  18.256  0.00  0.00    +0.000 C 
ATOM     15  C   UNL     1       0.181  11.406  19.064  0.00  0.00    +0.000 C 
ATOM     16  C   UNL     1      -1.162  11.630  18.366  0.00  0.00    +0.000 C 
ENDBRANCH   1  11
BRANCH   1  17
ATOM     17  N   UNL     1       2.437   5.275  18.118  0.00  0.00    +0.000 NA
ATOM     18  H   UNL     1       3.300   5.110  17.591  0.00  0.00    +0.000 HD
BRANCH  17  19
ATOM     19  C   UNL     1       1.421   4.198  18.020  0.00  0.00    +0.000 C 
BRANCH  19  20
ATOM     20  C   UNL     1       2.043   2.889  17.555  0.00  0.00    +0.000 C 
BRANCH  20  21
ATOM     21  C   UNL     1       3.553   2.874  17.651  0.00  0.00    +0.000 C 
ATOM     22  O   UNL     1       4.139   2.486  18.655  0.00  0.00    +0.000 OA
ATOM     23  N   UNL     1       4.189   3.383  16.544  0.00  0.00    +0.000 N 
ATOM     24  H   UNL     1       3.663   3.380  15.677  0.00  0.00    +0.000 HD
BRANCH  23  25
ATOM     25  C   UNL     1       5.628   3.410  16.438  0.00  0.00    +0.000 C 
BRANCH  25  26
ATOM     26  C   UNL     1       6.160   4.763  16.839  0.00  0.00    +0.000 A 
ATOM     27  C   UNL     1       5.582   5.930  16.316  0.00  0.00    +0.000 A 
ATOM     28  C   UNL     1       6.089   7.188  16.652  0.00  0.00    +0.000 A 
ATOM     29  C   UNL     1       7.182   7.285  17.509  0.00  0.00    +0.000 A 
ATOM     30 CL   UNL     1       7.822   8.832  17.907  0.00  0.00    +0.000 Cl
ATOM     31  C   UNL     1       7.767   6.136  18.038  0.00  0.00    +0.000 A 
ATOM     32  C   UNL     1       7.261   4.878  17.700  0.00  0.00    +0.000 A 
ENDBRANCH  25  26
ENDBRANCH  23  25
ENDBRANCH  20  21
ENDBRANCH  19  20
ENDBRANCH  17  19
ENDBRANCH   1  17
TORSDOF 7
ENDMDL
MODEL 8
REMARK VINA RESULT:      -8.0      4.566      6.315
REMARK  Name = 
REMARK  9 active torsions:
REMARK  status: ('A' for Active; 'I' for Inactive)
REMARK    1  A    between atoms: C_1  and  C_2
REMARK    2  A    between atoms: C_8  and  S_9
REMARK    3  A    between atoms: S_9  and  N_12
REMARK    4  A    between atoms: N_12  and  C_13
REMARK    5  A    between atoms: C_13  and  C_14
REMARK    6  A    between atoms: C_14  and  C_15
REMARK    7  A    between atoms: N_17  and  C_18
REMARK    8  A    between atoms: C_18  and  C_19
REMARK    9  A    between atoms: C_29  and  C_30
REMARK                            x       y       z     vdW  Elec       q    Type
REMARK                         _______ _______ _______ _____ _____    ______ ____
ROOT
ATOM      1  S   UNL     1       2.992   6.714  18.545  0.00  0.00    +0.000 S 
ATOM      2  O   UNL     1       3.848   5.996  19.463  0.00  0.00    +0.000 OA
ATOM      3  O   UNL     1       2.066   6.022  17.673  0.00  0.00    +0.000 OA
ENDROOT
BRANCH   1  11
ATOM      4  C   UNL     1      -1.903  12.022  22.763  0.00  0.00    +0.000 C 
ATOM      5  C   UNL     1      -0.885  10.931  22.535  0.00  0.00    +0.000 C 
ATOM      6  O   UNL     1      -0.562  10.219  23.487  0.00  0.00    +0.000 OA
ATOM      7  N   UNL     1      -0.408  10.784  21.243  0.00  0.00    +0.000 N 
ATOM      8  C   UNL     1       0.458   9.740  20.829  0.00  0.00    +0.000 A 
ATOM      9  C   UNL     1       0.915   8.623  21.525  0.00  0.00    +0.000 A 
ATOM     10  C   UNL     1       1.726   7.675  20.865  0.00  0.00    +0.000 A 
ATOM     11  C   UNL     1       2.060   7.865  19.517  0.00  0.00    +0.000 A 
ATOM     12  C   UNL     1       1.632   9.011  18.837  0.00  0.00    +0.000 A 
ATOM     13  C   UNL     1       0.841   9.930  19.507  0.00  0.00    +0.000 A 
ATOM     14  C   UNL     1       0.302  11.200  18.943  0.00  0.00    +0.000 C 
ATOM     15  C   UNL     1      -0.558  11.745  20.104  0.00  0.00    +0.000 C 
ATOM     16  C   UNL     1      -1.990  11.959  19.608  0.00  0.00    +0.000 C 
ENDBRANCH   1  11
BRANCH   1  17
ATOM     17  N   UNL     1       4.061   7.586  17.563  0.00  0.00    +0.000 NA
ATOM     18  H   UNL     1       4.832   7.877  18.172  0.00  0.00    +0.000 HD
BRANCH  17  19
ATOM     19  C   UNL     1       4.469   6.932  16.296  0.00  0.00    +0.000 C 
BRANCH  19  20
ATOM     20  C   UNL     1       5.842   6.288  16.421  0.00  0.00    +0.000 C 
BRANCH  20  21
ATOM     21  C   UNL     1       5.786   4.790  16.631  0.00  0.00    +0.000 C 
ATOM     22  O   UNL     1       6.783   4.082  16.549  0.00  0.00    +0.000 OA
ATOM     23  N   UNL     1       4.521   4.305  16.863  0.00  0.00    +0.000 N 
ATOM     24  H   UNL     1       3.839   4.966  17.218  0.00  0.00    +0.000 HD
BRANCH  23  25
ATOM     25  C   UNL     1       4.279   2.908  17.128  0.00  0.00    +0.000 C 
BRANCH  25  26
ATOM     26  C   UNL     1       3.474   2.743  18.393  0.00  0.00    +0.000 A 
ATOM     27  C   UNL     1       2.074   2.660  18.331  0.00  0.00    +0.000 A 
ATOM     28  C   UNL     1       1.316   2.543  19.499  0.00  0.00    +0.000 A 
ATOM     29  C   UNL     1       1.954   2.515  20.736  0.00  0.00    +0.000 A 
ATOM     30 CL   UNL     1       1.021   2.392  22.177  0.00  0.00    +0.000 Cl
ATOM     31  C   UNL     1       3.343   2.594  20.815  0.00  0.00    +0.000 A 
ATOM     32  C   UNL     1       4.101   2.713  19.647  0.00  0.00    +0.000 A 
ENDBRANCH  25  26
ENDBRANCH  23  25
ENDBRANCH  20  21
ENDBRANCH  19  20
ENDBRANCH  17  19
ENDBRANCH   1  17
TORSDOF 7
ENDMDL
MODEL 9
REMARK VINA RESULT:      -8.0      2.730      4.084
REMARK  Name = 
REMARK  9 active torsions:
REMARK  status: ('A' for Active; 'I' for Inactive)
REMARK    1  A    between atoms: C_1  and  C_2
REMARK    2  A    between atoms: C_8  and  S_9
REMARK    3  A    between atoms: S_9  and  N_12
REMARK    4  A    between atoms: N_12  and  C_13
REMARK    5  A    between atoms: C_13  and  C_14
REMARK    6  A    between atoms: C_14  and  C_15
REMARK    7  A    between atoms: N_17  and  C_18
REMARK    8  A    between atoms: C_18  and  C_19
REMARK    9  A    between atoms: C_29  and  C_30
REMARK                            x       y       z     vdW  Elec       q    Type
REMARK                         _______ _______ _______ _____ _____    ______ ____
ROOT
ATOM      1  S   UNL     1       2.763   6.471  18.734  0.00  0.00    +0.000 S 
ATOM      2  O   UNL     1       3.489   7.109  17.659  0.00  0.00    +0.000 OA
ATOM      3  O   UNL     1       3.427   5.617  19.697  0.00  0.00    +0.000 OA
ENDROOT
BRANCH   1  11
ATOM      4  C   UNL     1      -1.595  12.461  22.617  0.00  0.00    +0.000 C 
ATOM      5  C   UNL     1      -0.675  11.275  22.455  0.00  0.00    +0.000 C 
ATOM      6  O   UNL     1      -0.393  10.609  23.453  0.00  0.00    +0.000 OA
ATOM      7  N   UNL     1      -0.236  10.997  21.171  0.00  0.00    +0.000 N 
ATOM      8  C   UNL     1       0.532   9.856  20.824  0.00  0.00    +0.000 A 
ATOM      9  C   UNL     1       0.909   8.757  21.593  0.00  0.00    +0.000 A 
ATOM     10  C   UNL     1       1.626   7.700  20.994  0.00  0.00    +0.000 A 
ATOM     11  C   UNL     1       1.948   7.764  19.631  0.00  0.00    +0.000 A 
ATOM     12  C   UNL     1       1.603   8.890  18.875  0.00  0.00    +0.000 A 
ATOM     13  C   UNL     1       0.904   9.918  19.486  0.00  0.00    +0.000 A 
ATOM     14  C   UNL     1       0.461  11.185  18.838  0.00  0.00    +0.000 C 
ATOM     15  C   UNL     1      -0.328  11.882  19.967  0.00  0.00    +0.000 C 
ATOM     16  C   UNL     1      -1.747  12.179  19.476  0.00  0.00    +0.000 C 
ENDBRANCH   1  11
BRANCH   1  17
ATOM     17  N   UNL     1       1.584   5.538  17.955  0.00  0.00    +0.000 NA
ATOM     18  H   UNL     1       1.557   5.868  16.985  0.00  0.00    +0.000 HD
BRANCH  17  19
ATOM     19  C   UNL     1       1.698   4.068  18.118  0.00  0.00    +0.000 C 
BRANCH  19  20
ATOM     20  C   UNL     1       2.628   3.464  17.075  0.00  0.00    +0.000 C 
BRANCH  20  21
ATOM     21  C   UNL     1       4.024   3.201  17.595  0.00  0.00    +0.000 C 
ATOM     22  O   UNL     1       4.279   2.250  18.324  0.00  0.00    +0.000 OA
ATOM     23  N   UNL     1       4.947   4.147  17.222  0.00  0.00    +0.000 N 
ATOM     24  H   UNL     1       4.730   4.693  16.395  0.00  0.00    +0.000 HD
BRANCH  23  25
ATOM     25  C   UNL     1       6.339   4.039  17.589  0.00  0.00    +0.000 C 
BRANCH  25  26
ATOM     26  C   UNL     1       6.949   5.409  17.750  0.00  0.00    +0.000 A 
ATOM     27  C   UNL     1       7.760   5.692  18.860  0.00  0.00    +0.000 A 
ATOM     28  C   UNL     1       8.302   6.967  19.038  0.00  0.00    +0.000 A 
ATOM     29  C   UNL     1       8.030   7.969  18.111  0.00  0.00    +0.000 A 
ATOM     30 CL   UNL     1       8.679   9.547  18.340  0.00  0.00    +0.000 Cl
ATOM     31  C   UNL     1       7.228   7.704  17.003  0.00  0.00    +0.000 A 
ATOM     32  C   UNL     1       6.684   6.429  16.825  0.00  0.00    +0.000 A 
ENDBRANCH  25  26
ENDBRANCH  23  25
ENDBRANCH  20  21
ENDBRANCH  19  20
ENDBRANCH  17  19
ENDBRANCH   1  17
TORSDOF 7
ENDMDL
