MODEL 1
REMARK VINA RESULT:      -8.9      0.000      0.000
REMARK  Name = 
REMARK  7 active torsions:
REMARK  status: ('A' for Active; 'I' for Inactive)
REMARK    1  A    between atoms: C_1  and  C_2
REMARK    2  A    between atoms: C_2  and  C_3
REMARK    3  A    between atoms: C_3  and  C_4
REMARK    4  A    between atoms: C_4  and  C_5
REMARK    5  A    between atoms: C_5  and  N_6
REMARK    6  A    between atoms: C_12  and  C_13
REMARK    7  A    between atoms: C_13  and  C_15
REMARK                            x       y       z     vdW  Elec       q    Type
REMARK                         _______ _______ _______ _____ _____    ______ ____
ROOT
ATOM      1  N   UNL     1      -0.191  10.623  19.966  0.00  0.00    +0.000 N 
ATOM      2  C   UNL     1      -0.402  10.480  21.338  0.00  0.00    +0.000 A 
ATOM      3  O   UNL     1      -1.116  11.156  22.049  0.00  0.00    +0.000 OA
ATOM      4  S   UNL     1       0.552   9.121  21.952  0.00  0.00    +0.000 S 
ATOM      5  C   UNL     1       1.172   8.761  20.338  0.00  0.00    +0.000 A 
ATOM      6  C   UNL     1       2.035   7.742  19.976  0.00  0.00    +0.000 A 
ATOM      7  C   UNL     1       2.409   7.624  18.631  0.00  0.00    +0.000 A 
ATOM      8  C   UNL     1       1.914   8.547  17.692  0.00  0.00    +0.000 A 
ATOM      9  C   UNL     1       1.024   9.555  18.067  0.00  0.00    +0.000 A 
ATOM     10  C   UNL     1       0.665   9.664  19.400  0.00  0.00    +0.000 A 
ENDROOT
BRANCH   7  11
ATOM     11  C   UNL     1       3.336   6.505  18.268  0.00  0.00    +0.000 C 
ATOM     12  O   UNL     1       4.380   6.806  17.686  0.00  0.00    +0.000 OA
BRANCH  11  13
ATOM     13  C   UNL     1       2.991   5.042  18.600  0.00  0.00    +0.000 C 
ATOM     14  C   UNL     1       4.120   4.106  18.101  0.00  0.00    +0.000 C 
ATOM     15  C   UNL     1       3.769   2.639  18.399  0.00  0.00    +0.000 C 
ATOM     16  C   UNL     1       3.672   2.453  19.921  0.00  0.00    +0.000 C 
ATOM     17  C   UNL     1       2.582   3.375  20.492  0.00  0.00    +0.000 C 
ATOM     18  C   UNL     1       1.233   2.989  19.865  0.00  0.00    +0.000 C 
ATOM     19  C   UNL     1       1.298   3.174  18.347  0.00  0.00    +0.000 C 
ATOM     20  C   UNL     1       2.419   2.302  17.748  0.00  0.00    +0.000 C 
ATOM     21  C   UNL     1       1.597   4.642  18.058  0.00  0.00    +0.000 C 
ATOM     22  C   UNL     1       2.917   4.844  20.147  0.00  0.00    +0.000 C 
ENDBRANCH  11  13
ENDBRANCH   7  11
BRANCH   1  23
ATOM     23  C   UNL     1      -0.868  11.650  19.191  0.00  0.00    +0.000 C 
BRANCH  23  24
ATOM     24  C   UNL     1      -2.237  11.191  18.682  0.00  0.00    +0.000 C 
BRANCH  24  25
ATOM     25  C   UNL     1      -2.304  11.277  17.160  0.00  0.00    +0.000 C 
BRANCH  25  27
ATOM     26  C   UNL     1      -2.885  10.035  15.057  0.00  0.00    +0.000 C 
ATOM     27  C   UNL     1      -2.996  10.050  16.572  0.00  0.00    +0.000 C 
ENDBRANCH  25  27
ENDBRANCH  24  25
ENDBRANCH  23  24
ENDBRANCH   1  23
TORSDOF 6
ENDMDL
MODEL 2
REMARK VINA RESULT:      -8.7      0.767      1.807
REMARK  Name = 
REMARK  7 active torsions:
REMARK  status: ('A' for Active; 'I' for Inactive)
REMARK    1  A    between atoms: C_1  and  C_2
REMARK    2  A    between atoms: C_2  and  C_3
REMARK    3  A    between atoms: C_3  and  C_4
REMARK    4  A    between atoms: C_4  and  C_5
REMARK    5  A    between atoms: C_5  and  N_6
REMARK    6  A    between atoms: C_12  and  C_13
REMARK    7  A    between atoms: C_13  and  C_15
REMARK                            x       y       z     vdW  Elec       q    Type
REMARK                         _______ _______ _______ _____ _____    ______ ____
ROOT
ATOM      1  N   UNL     1      -0.123  10.737  19.629  0.00  0.00    +0.000 N 
ATOM      2  C   UNL     1      -0.424  10.786  20.990  0.00  0.00    +0.000 A 
ATOM      3  O   UNL     1      -1.142  11.581  21.559  0.00  0.00    +0.000 OA
ATOM      4  S   UNL     1       0.419   9.479  21.837  0.00  0.00    +0.000 S 
ATOM      5  C   UNL     1       1.115   8.882  20.328  0.00  0.00    +0.000 A 
ATOM      6  C   UNL     1       1.944   7.787  20.159  0.00  0.00    +0.000 A 
ATOM      7  C   UNL     1       2.391   7.475  18.868  0.00  0.00    +0.000 A 
ATOM      8  C   UNL     1       2.002   8.287  17.787  0.00  0.00    +0.000 A 
ATOM      9  C   UNL     1       1.145   9.374  17.968  0.00  0.00    +0.000 A 
ATOM     10  C   UNL     1       0.714   9.675  19.249  0.00  0.00    +0.000 A 
ENDROOT
BRANCH   7  11
ATOM     11  C   UNL     1       3.278   6.279  18.715  0.00  0.00    +0.000 C 
ATOM     12  O   UNL     1       4.395   6.465  18.230  0.00  0.00    +0.000 OA
BRANCH  11  13
ATOM     13  C   UNL     1       2.806   4.875  19.136  0.00  0.00    +0.000 C 
ATOM     14  C   UNL     1       1.803   4.984  20.311  0.00  0.00    +0.000 C 
ATOM     15  C   UNL     1       1.352   3.584  20.760  0.00  0.00    +0.000 C 
ATOM     16  C   UNL     1       0.609   2.908  19.597  0.00  0.00    +0.000 C 
ATOM     17  C   UNL     1       1.540   2.788  18.380  0.00  0.00    +0.000 C 
ATOM     18  C   UNL     1       2.744   1.915  18.766  0.00  0.00    +0.000 C 
ATOM     19  C   UNL     1       3.510   2.569  19.918  0.00  0.00    +0.000 C 
ATOM     20  C   UNL     1       2.587   2.754  21.139  0.00  0.00    +0.000 C 
ATOM     21  C   UNL     1       3.997   3.937  19.449  0.00  0.00    +0.000 C 
ATOM     22  C   UNL     1       2.028   4.195  17.966  0.00  0.00    +0.000 C 
ENDBRANCH  11  13
ENDBRANCH   7  11
BRANCH   1  23
ATOM     23  C   UNL     1      -0.697  11.681  18.684  0.00  0.00    +0.000 C 
BRANCH  23  24
ATOM     24  C   UNL     1      -2.118  11.295  18.262  0.00  0.00    +0.000 C 
BRANCH  24  25
ATOM     25  C   UNL     1      -2.090  10.394  17.032  0.00  0.00    +0.000 C 
BRANCH  25  27
ATOM     26  C   UNL     1      -4.343  11.400  16.563  0.00  0.00    +0.000 C 
ATOM     27  C   UNL     1      -3.040  10.912  15.954  0.00  0.00    +0.000 C 
ENDBRANCH  25  27
ENDBRANCH  24  25
ENDBRANCH  23  24
ENDBRANCH   1  23
TORSDOF 6
ENDMDL
MODEL 3
REMARK VINA RESULT:      -8.5      0.533      1.461
REMARK  Name = 
REMARK  7 active torsions:
REMARK  status: ('A' for Active; 'I' for Inactive)
REMARK    1  A    between atoms: C_1  and  C_2
REMARK    2  A    between atoms: C_2  and  C_3
REMARK    3  A    between atoms: C_3  and  C_4
REMARK    4  A    between atoms: C_4  and  C_5
REMARK    5  A    between atoms: C_5  and  N_6
REMARK    6  A    between atoms: C_12  and  C_13
REMARK    7  A    between atoms: C_13  and  C_15
REMARK                            x       y       z     vdW  Elec       q    Type
REMARK                         _______ _______ _______ _____ _____    ______ ____
ROOT
ATOM      1  N   UNL     1       0.020  10.858  19.687  0.00  0.00    +0.000 N 
ATOM      2  C   UNL     1      -0.418  10.719  21.004  0.00  0.00    +0.000 A 
ATOM      3  O   UNL     1      -1.164  11.457  21.616  0.00  0.00    +0.000 OA
ATOM      4  S   UNL     1       0.287   9.262  21.721  0.00  0.00    +0.000 S 
ATOM      5  C   UNL     1       1.115   8.861  20.213  0.00  0.00    +0.000 A 
ATOM      6  C   UNL     1       1.918   7.763  19.961  0.00  0.00    +0.000 A 
ATOM      7  C   UNL     1       2.486   7.624  18.687  0.00  0.00    +0.000 A 
ATOM      8  C   UNL     1       2.239   8.605  17.709  0.00  0.00    +0.000 A 
ATOM      9  C   UNL     1       1.406   9.694  17.970  0.00  0.00    +0.000 A 
ATOM     10  C   UNL     1       0.855   9.823  19.233  0.00  0.00    +0.000 A 
ENDROOT
BRANCH   7  11
ATOM     11  C   UNL     1       3.342   6.421  18.441  0.00  0.00    +0.000 C 
ATOM     12  O   UNL     1       4.425   6.605  17.881  0.00  0.00    +0.000 OA
BRANCH  11  13
ATOM     13  C   UNL     1       2.882   5.013  18.860  0.00  0.00    +0.000 C 
ATOM     14  C   UNL     1       1.710   4.548  17.960  0.00  0.00    +0.000 C 
ATOM     15  C   UNL     1       1.222   3.156  18.393  0.00  0.00    +0.000 C 
ATOM     16  C   UNL     1       2.366   2.148  18.196  0.00  0.00    +0.000 C 
ATOM     17  C   UNL     1       3.578   2.561  19.045  0.00  0.00    +0.000 C 
ATOM     18  C   UNL     1       3.169   2.553  20.526  0.00  0.00    +0.000 C 
ATOM     19  C   UNL     1       2.035   3.557  20.754  0.00  0.00    +0.000 C 
ATOM     20  C   UNL     1       0.820   3.202  19.875  0.00  0.00    +0.000 C 
ATOM     21  C   UNL     1       2.543   4.943  20.369  0.00  0.00    +0.000 C 
ATOM     22  C   UNL     1       4.033   3.982  18.637  0.00  0.00    +0.000 C 
ENDBRANCH  11  13
ENDBRANCH   7  11
BRANCH   1  23
ATOM     23  C   UNL     1      -0.420  11.958  18.846  0.00  0.00    +0.000 C 
BRANCH  23  24
ATOM     24  C   UNL     1      -1.520  11.541  17.865  0.00  0.00    +0.000 C 
BRANCH  24  25
ATOM     25  C   UNL     1      -2.271  10.319  18.384  0.00  0.00    +0.000 C 
BRANCH  25  27
ATOM     26  C   UNL     1      -2.683  10.195  15.911  0.00  0.00    +0.000 C 
ATOM     27  C   UNL     1      -3.101   9.676  17.276  0.00  0.00    +0.000 C 
ENDBRANCH  25  27
ENDBRANCH  24  25
ENDBRANCH  23  24
ENDBRANCH   1  23
TORSDOF 6
ENDMDL
MODEL 4
REMARK VINA RESULT:      -8.3      1.437      2.559
REMARK  Name = 
REMARK  7 active torsions:
REMARK  status: ('A' for Active; 'I' for Inactive)
REMARK    1  A    between atoms: C_1  and  C_2
REMARK    2  A    between atoms: C_2  and  C_3
REMARK    3  A    between atoms: C_3  and  C_4
REMARK    4  A    between atoms: C_4  and  C_5
REMARK    5  A    between atoms: C_5  and  N_6
REMARK    6  A    between atoms: C_12  and  C_13
REMARK    7  A    between atoms: C_13  and  C_15
REMARK                            x       y       z     vdW  Elec       q    Type
REMARK                         _______ _______ _______ _____ _____    ______ ____
ROOT
ATOM      1  N   UNL     1      -0.077  10.649  20.284  0.00  0.00    +0.000 N 
ATOM      2  C   UNL     1      -0.213  10.423  21.654  0.00  0.00    +0.000 A 
ATOM      3  O   UNL     1      -0.864  11.071  22.448  0.00  0.00    +0.000 OA
ATOM      4  S   UNL     1       0.734   9.003  22.124  0.00  0.00    +0.000 S 
ATOM      5  C   UNL     1       1.249   8.732  20.457  0.00  0.00    +0.000 A 
ATOM      6  C   UNL     1       2.059   7.716  19.981  0.00  0.00    +0.000 A 
ATOM      7  C   UNL     1       2.351   7.674  18.612  0.00  0.00    +0.000 A 
ATOM      8  C   UNL     1       1.830   8.669  17.763  0.00  0.00    +0.000 A 
ATOM      9  C   UNL     1       0.993   9.674  18.253  0.00  0.00    +0.000 A 
ATOM     10  C   UNL     1       0.716   9.706  19.609  0.00  0.00    +0.000 A 
ENDROOT
BRANCH   7  11
ATOM     11  C   UNL     1       3.222   6.558  18.125  0.00  0.00    +0.000 C 
ATOM     12  O   UNL     1       4.161   6.858  17.386  0.00  0.00    +0.000 OA
BRANCH  11  13
ATOM     13  C   UNL     1       2.945   5.097  18.523  0.00  0.00    +0.000 C 
ATOM     14  C   UNL     1       1.582   4.640  17.947  0.00  0.00    +0.000 C 
ATOM     15  C   UNL     1       1.282   3.192  18.368  0.00  0.00    +0.000 C 
ATOM     16  C   UNL     1       2.355   2.270  17.767  0.00  0.00    +0.000 C 
ATOM     17  C   UNL     1       3.745   2.683  18.278  0.00  0.00    +0.000 C 
ATOM     18  C   UNL     1       3.772   2.533  19.807  0.00  0.00    +0.000 C 
ATOM     19  C   UNL     1       2.717   3.448  20.434  0.00  0.00    +0.000 C 
ATOM     20  C   UNL     1       1.315   3.095  19.901  0.00  0.00    +0.000 C 
ATOM     21  C   UNL     1       3.049   4.888  20.054  0.00  0.00    +0.000 C 
ATOM     22  C   UNL     1       4.018   4.155  17.893  0.00  0.00    +0.000 C 
ENDBRANCH  11  13
ENDBRANCH   7  11
BRANCH   1  23
ATOM     23  C   UNL     1      -0.766  11.740  19.617  0.00  0.00    +0.000 C 
BRANCH  23  24
ATOM     24  C   UNL     1      -0.105  13.097  19.877  0.00  0.00    +0.000 C 
BRANCH  24  25
ATOM     25  C   UNL     1       0.241  13.790  18.563  0.00  0.00    +0.000 C 
BRANCH  25  27
ATOM     26  C   UNL     1       2.601  12.968  18.319  0.00  0.00    +0.000 C 
ATOM     27  C   UNL     1       1.715  14.185  18.524  0.00  0.00    +0.000 C 
ENDBRANCH  25  27
ENDBRANCH  24  25
ENDBRANCH  23  24
ENDBRANCH   1  23
TORSDOF 6
ENDMDL
MODEL 5
REMARK VINA RESULT:      -8.3      1.503      2.640
REMARK  Name = 
REMARK  7 active torsions:
REMARK  status: ('A' for Active; 'I' for Inactive)
REMARK    1  A    between atoms: C_1  and  C_2
REMARK    2  A    between atoms: C_2  and  C_3
REMARK    3  A    between atoms: C_3  and  C_4
REMARK    4  A    between atoms: C_4  and  C_5
REMARK    5  A    between atoms: C_5  and  N_6
REMARK    6  A    between atoms: C_12  and  C_13
REMARK    7  A    between atoms: C_13  and  C_15
REMARK                            x       y       z     vdW  Elec       q    Type
REMARK                         _______ _______ _______ _____ _____    ______ ____
ROOT
ATOM      1  N   UNL     1      -0.030  10.808  19.575  0.00  0.00    +0.000 N 
ATOM      2  C   UNL     1      -0.422  10.786  20.914  0.00  0.00    +0.000 A 
ATOM      3  O   UNL     1      -1.155  11.569  21.481  0.00  0.00    +0.000 OA
ATOM      4  S   UNL     1       0.324   9.405  21.733  0.00  0.00    +0.000 S 
ATOM      5  C   UNL     1       1.105   8.876  20.240  0.00  0.00    +0.000 A 
ATOM      6  C   UNL     1       1.912   7.767  20.061  0.00  0.00    +0.000 A 
ATOM      7  C   UNL     1       2.438   7.518  18.786  0.00  0.00    +0.000 A 
ATOM      8  C   UNL     1       2.147   8.404  17.733  0.00  0.00    +0.000 A 
ATOM      9  C   UNL     1       1.311   9.506  17.923  0.00  0.00    +0.000 A 
ATOM     10  C   UNL     1       0.801   9.744  19.188  0.00  0.00    +0.000 A 
ENDROOT
BRANCH   7  11
ATOM     11  C   UNL     1       3.299   6.305  18.620  0.00  0.00    +0.000 C 
ATOM     12  O   UNL     1       4.401   6.465  18.092  0.00  0.00    +0.000 OA
BRANCH  11  13
ATOM     13  C   UNL     1       2.820   4.915  19.080  0.00  0.00    +0.000 C 
ATOM     14  C   UNL     1       1.735   4.382  18.111  0.00  0.00    +0.000 C 
ATOM     15  C   UNL     1       1.228   3.009  18.581  0.00  0.00    +0.000 C 
ATOM     16  C   UNL     1       2.395   2.010  18.541  0.00  0.00    +0.000 C 
ATOM     17  C   UNL     1       3.526   2.490  19.465  0.00  0.00    +0.000 C 
ATOM     18  C   UNL     1       2.990   2.560  20.903  0.00  0.00    +0.000 C 
ATOM     19  C   UNL     1       1.830   3.556  20.976  0.00  0.00    +0.000 C 
ATOM     20  C   UNL     1       0.699   3.132  20.019  0.00  0.00    +0.000 C 
ATOM     21  C   UNL     1       2.353   4.927  20.556  0.00  0.00    +0.000 C 
ATOM     22  C   UNL     1       3.997   3.892  19.016  0.00  0.00    +0.000 C 
ENDBRANCH  11  13
ENDBRANCH   7  11
BRANCH   1  23
ATOM     23  C   UNL     1      -0.511  11.825  18.654  0.00  0.00    +0.000 C 
BRANCH  23  24
ATOM     24  C   UNL     1       0.414  13.043  18.591  0.00  0.00    +0.000 C 
BRANCH  24  25
ATOM     25  C   UNL     1      -0.248  14.257  19.235  0.00  0.00    +0.000 C 
BRANCH  25  27
ATOM     26  C   UNL     1      -0.519  16.629  18.455  0.00  0.00    +0.000 C 
ATOM     27  C   UNL     1       0.473  15.545  18.843  0.00  0.00    +0.000 C 
ENDBRANCH  25  27
ENDBRANCH  24  25
ENDBRANCH  23  24
ENDBRANCH   1  23
TORSDOF 6
ENDMDL
MODEL 6
REMARK VINA RESULT:      -8.1      2.161      3.405
REMARK  Name = 
REMARK  7 active torsions:
REMARK  status: ('A' for Active; 'I' for Inactive)
REMARK    1  A    between atoms: C_1  and  C_2
REMARK    2  A    between atoms: C_2  and  C_3
REMARK    3  A    between atoms: C_3  and  C_4
REMARK    4  A    between atoms: C_4  and  C_5
REMARK    5  A    between atoms: C_5  and  N_6
REMARK    6  A    between atoms: C_12  and  C_13
REMARK    7  A    between atoms: C_13  and  C_15
REMARK                            x       y       z     vdW  Elec       q    Type
REMARK                         _______ _______ _______ _____ _____    ______ ____
ROOT
ATOM      1  N   UNL     1       0.461  10.182  19.660  0.00  0.00    +0.000 N 
ATOM      2  C   UNL     1       0.159  10.176  21.021  0.00  0.00    +0.000 A 
ATOM      3  O   UNL     1      -0.507  10.986  21.633  0.00  0.00    +0.000 OA
ATOM      4  S   UNL     1       0.911   8.773  21.796  0.00  0.00    +0.000 S 
ATOM      5  C   UNL     1       1.571   8.214  20.256  0.00  0.00    +0.000 A 
ATOM      6  C   UNL     1       2.326   7.077  20.028  0.00  0.00    +0.000 A 
ATOM      7  C   UNL     1       2.756   6.806  18.723  0.00  0.00    +0.000 A 
ATOM      8  C   UNL     1       2.426   7.700  17.687  0.00  0.00    +0.000 A 
ATOM      9  C   UNL     1       1.642   8.830  17.927  0.00  0.00    +0.000 A 
ATOM     10  C   UNL     1       1.227   9.088  19.222  0.00  0.00    +0.000 A 
ENDROOT
BRANCH   7  11
ATOM     11  C   UNL     1       3.563   5.564  18.505  0.00  0.00    +0.000 C 
ATOM     12  O   UNL     1       2.998   4.485  18.696  0.00  0.00    +0.000 OA
BRANCH  11  13
ATOM     13  C   UNL     1       5.038   5.635  18.072  0.00  0.00    +0.000 C 
ATOM     14  C   UNL     1       5.323   4.569  16.984  0.00  0.00    +0.000 C 
ATOM     15  C   UNL     1       6.802   4.611  16.569  0.00  0.00    +0.000 C 
ATOM     16  C   UNL     1       7.102   5.982  15.943  0.00  0.00    +0.000 C 
ATOM     17  C   UNL     1       6.817   7.096  16.963  0.00  0.00    +0.000 C 
ATOM     18  C   UNL     1       7.739   6.900  18.176  0.00  0.00    +0.000 C 
ATOM     19  C   UNL     1       7.456   5.544  18.827  0.00  0.00    +0.000 C 
ATOM     20  C   UNL     1       7.681   4.405  17.813  0.00  0.00    +0.000 C 
ATOM     21  C   UNL     1       5.999   5.528  19.281  0.00  0.00    +0.000 C 
ATOM     22  C   UNL     1       5.340   7.017  17.412  0.00  0.00    +0.000 C 
ENDBRANCH  11  13
ENDBRANCH   7  11
BRANCH   1  23
ATOM     23  C   UNL     1      -0.046  11.211  18.768  0.00  0.00    +0.000 C 
BRANCH  23  24
ATOM     24  C   UNL     1      -1.519  10.998  18.405  0.00  0.00    +0.000 C 
BRANCH  24  25
ATOM     25  C   UNL     1      -1.651  10.043  17.223  0.00  0.00    +0.000 C 
BRANCH  25  27
ATOM     26  C   UNL     1      -4.040  10.582  17.774  0.00  0.00    +0.000 C 
ATOM     27  C   UNL     1      -3.105   9.929  16.771  0.00  0.00    +0.000 C 
ENDBRANCH  25  27
ENDBRANCH  24  25
ENDBRANCH  23  24
ENDBRANCH   1  23
TORSDOF 6
ENDMDL
MODEL 7
REMARK VINA RESULT:      -8.1      1.485      2.346
REMARK  Name = 
REMARK  7 active torsions:
REMARK  status: ('A' for Active; 'I' for Inactive)
REMARK    1  A    between atoms: C_1  and  C_2
REMARK    2  A    between atoms: C_2  and  C_3
REMARK    3  A    between atoms: C_3  and  C_4
REMARK    4  A    between atoms: C_4  and  C_5
REMARK    5  A    between atoms: C_5  and  N_6
REMARK    6  A    between atoms: C_12  and  C_13
REMARK    7  A    between atoms: C_13  and  C_15
REMARK                            x       y       z     vdW  Elec       q    Type
REMARK                         _______ _______ _______ _____ _____    ______ ____
ROOT
ATOM      1  N   UNL     1      -0.085  10.743  19.896  0.00  0.00    +0.000 N 
ATOM      2  C   UNL     1      -0.252  10.772  21.281  0.00  0.00    +0.000 A 
ATOM      3  O   UNL     1      -0.904  11.564  21.929  0.00  0.00    +0.000 OA
ATOM      4  S   UNL     1       0.657   9.445  22.021  0.00  0.00    +0.000 S 
ATOM      5  C   UNL     1       1.198   8.867  20.443  0.00  0.00    +0.000 A 
ATOM      6  C   UNL     1       1.995   7.768  20.177  0.00  0.00    +0.000 A 
ATOM      7  C   UNL     1       2.312   7.474  18.845  0.00  0.00    +0.000 A 
ATOM      8  C   UNL     1       1.828   8.306  17.819  0.00  0.00    +0.000 A 
ATOM      9  C   UNL     1       1.003   9.397  18.099  0.00  0.00    +0.000 A 
ATOM     10  C   UNL     1       0.701   9.680  19.420  0.00  0.00    +0.000 A 
ENDROOT
BRANCH   7  11
ATOM     11  C   UNL     1       3.169   6.273  18.588  0.00  0.00    +0.000 C 
ATOM     12  O   UNL     1       4.238   6.459  18.003  0.00  0.00    +0.000 OA
BRANCH  11  13
ATOM     13  C   UNL     1       2.724   4.866  19.026  0.00  0.00    +0.000 C 
ATOM     14  C   UNL     1       3.952   4.043  19.490  0.00  0.00    +0.000 C 
ATOM     15  C   UNL     1       3.522   2.625  19.898  0.00  0.00    +0.000 C 
ATOM     16  C   UNL     1       2.568   2.724  21.099  0.00  0.00    +0.000 C 
ATOM     17  C   UNL     1       1.331   3.552  20.718  0.00  0.00    +0.000 C 
ATOM     18  C   UNL     1       0.598   2.843  19.569  0.00  0.00    +0.000 C 
ATOM     19  C   UNL     1       1.522   2.738  18.353  0.00  0.00    +0.000 C 
ATOM     20  C   UNL     1       2.800   1.957  18.717  0.00  0.00    +0.000 C 
ATOM     21  C   UNL     1       1.906   4.151  17.923  0.00  0.00    +0.000 C 
ATOM     22  C   UNL     1       1.776   4.961  20.262  0.00  0.00    +0.000 C 
ENDBRANCH  11  13
ENDBRANCH   7  11
BRANCH   1  23
ATOM     23  C   UNL     1      -0.739  11.707  19.026  0.00  0.00    +0.000 C 
BRANCH  23  24
ATOM     24  C   UNL     1       0.116  12.955  18.789  0.00  0.00    +0.000 C 
BRANCH  24  25
ATOM     25  C   UNL     1      -0.575  14.196  19.344  0.00  0.00    +0.000 C 
BRANCH  25  27
ATOM     26  C   UNL     1      -0.734  16.697  19.189  0.00  0.00    +0.000 C 
ATOM     27  C   UNL     1       0.080  15.470  18.815  0.00  0.00    +0.000 C 
ENDBRANCH  25  27
ENDBRANCH  24  25
ENDBRANCH  23  24
ENDBRANCH   1  23
TORSDOF 6
ENDMDL
MODEL 8
REMARK VINA RESULT:      -8.0      1.627      2.968
REMARK  Name = 
REMARK  7 active torsions:
REMARK  status: ('A' for Active; 'I' for Inactive)
REMARK    1  A    between atoms: C_1  and  C_2
REMARK    2  A    between atoms: C_2  and  C_3
REMARK    3  A    between atoms: C_3  and  C_4
REMARK    4  A    between atoms: C_4  and  C_5
REMARK    5  A    between atoms: C_5  and  N_6
REMARK    6  A    between atoms: C_12  and  C_13
REMARK    7  A    between atoms: C_13  and  C_15
REMARK                            x       y       z     vdW  Elec       q    Type
REMARK                         _______ _______ _______ _____ _____    ______ ____
ROOT
ATOM      1  N   UNL     1       0.265  10.808  19.597  0.00  0.00    +0.000 N 
ATOM      2  C   UNL     1      -0.253  10.696  20.887  0.00  0.00    +0.000 A 
ATOM      3  O   UNL     1      -0.991  11.473  21.457  0.00  0.00    +0.000 OA
ATOM      4  S   UNL     1       0.331   9.203  21.640  0.00  0.00    +0.000 S 
ATOM      5  C   UNL     1       1.219   8.756  20.180  0.00  0.00    +0.000 A 
ATOM      6  C   UNL     1       1.974   7.615  19.972  0.00  0.00    +0.000 A 
ATOM      7  C   UNL     1       2.604   7.444  18.732  0.00  0.00    +0.000 A 
ATOM      8  C   UNL     1       2.466   8.435  17.743  0.00  0.00    +0.000 A 
ATOM      9  C   UNL     1       1.680   9.569  17.959  0.00  0.00    +0.000 A 
ATOM     10  C   UNL     1       1.067   9.729  19.189  0.00  0.00    +0.000 A 
ENDROOT
BRANCH   7  11
ATOM     11  C   UNL     1       3.406   6.196  18.532  0.00  0.00    +0.000 C 
ATOM     12  O   UNL     1       4.497   6.312  17.970  0.00  0.00    +0.000 OA
BRANCH  11  13
ATOM     13  C   UNL     1       2.882   4.825  18.999  0.00  0.00    +0.000 C 
ATOM     14  C   UNL     1       2.307   4.939  20.433  0.00  0.00    +0.000 C 
ATOM     15  C   UNL     1       1.812   3.568  20.920  0.00  0.00    +0.000 C 
ATOM     16  C   UNL     1       0.662   3.106  20.011  0.00  0.00    +0.000 C 
ATOM     17  C   UNL     1       1.156   2.994  18.560  0.00  0.00    +0.000 C 
ATOM     18  C   UNL     1       2.278   1.946  18.501  0.00  0.00    +0.000 C 
ATOM     19  C   UNL     1       3.443   2.385  19.392  0.00  0.00    +0.000 C 
ATOM     20  C   UNL     1       2.969   2.559  20.848  0.00  0.00    +0.000 C 
ATOM     21  C   UNL     1       3.962   3.723  18.872  0.00  0.00    +0.000 C 
ATOM     22  C   UNL     1       1.697   4.365  18.094  0.00  0.00    +0.000 C 
ENDBRANCH  11  13
ENDBRANCH   7  11
BRANCH   1  23
ATOM     23  C   UNL     1      -0.067  11.930  18.735  0.00  0.00    +0.000 C 
BRANCH  23  24
ATOM     24  C   UNL     1       0.782  13.169  19.032  0.00  0.00    +0.000 C 
BRANCH  24  25
ATOM     25  C   UNL     1       2.064  13.155  18.206  0.00  0.00    +0.000 C 
BRANCH  25  27
ATOM     26  C   UNL     1       2.248  15.421  19.272  0.00  0.00    +0.000 C 
ATOM     27  C   UNL     1       2.655  14.559  18.090  0.00  0.00    +0.000 C 
ENDBRANCH  25  27
ENDBRANCH  24  25
ENDBRANCH  23  24
ENDBRANCH   1  23
TORSDOF 6
ENDMDL
MODEL 9
REMARK VINA RESULT:      -8.0      1.792      2.889
REMARK  Name = 
REMARK  7 active torsions:
REMARK  status: ('A' for Active; 'I' for Inactive)
REMARK    1  A    between atoms: C_1  and  C_2
REMARK    2  A    between atoms: C_2  and  C_3
REMARK    3  A    between atoms: C_3  and  C_4
REMARK    4  A    between atoms: C_4  and  C_5
REMARK    5  A    between atoms: C_5  and  N_6
REMARK    6  A    between atoms: C_12  and  C_13
REMARK    7  A    between atoms: C_13  and  C_15
REMARK                            x       y       z     vdW  Elec       q    Type
REMARK                         _______ _______ _______ _____ _____    ______ ____
ROOT
ATOM      1  N   UNL     1       0.116  10.512  19.727  0.00  0.00    +0.000 N 
ATOM      2  C   UNL     1      -0.254  10.639  21.066  0.00  0.00    +0.000 A 
ATOM      3  O   UNL     1      -0.956  11.498  21.560  0.00  0.00    +0.000 OA
ATOM      4  S   UNL     1       0.467   9.329  22.014  0.00  0.00    +0.000 S 
ATOM      5  C   UNL     1       1.208   8.627  20.573  0.00  0.00    +0.000 A 
ATOM      6  C   UNL     1       1.981   7.482  20.497  0.00  0.00    +0.000 A 
ATOM      7  C   UNL     1       2.479   7.087  19.249  0.00  0.00    +0.000 A 
ATOM      8  C   UNL     1       2.195   7.869  18.113  0.00  0.00    +0.000 A 
ATOM      9  C   UNL     1       1.392   9.008  18.200  0.00  0.00    +0.000 A 
ATOM     10  C   UNL     1       0.911   9.390  19.440  0.00  0.00    +0.000 A 
ENDROOT
BRANCH   7  11
ATOM     11  C   UNL     1       3.304   5.839  19.197  0.00  0.00    +0.000 C 
ATOM     12  O   UNL     1       3.031   4.950  20.006  0.00  0.00    +0.000 OA
BRANCH  11  13
ATOM     13  C   UNL     1       4.451   5.681  18.182  0.00  0.00    +0.000 C 
ATOM     14  C   UNL     1       4.741   7.039  17.495  0.00  0.00    +0.000 C 
ATOM     15  C   UNL     1       5.863   6.883  16.456  0.00  0.00    +0.000 C 
ATOM     16  C   UNL     1       7.152   6.461  17.179  0.00  0.00    +0.000 C 
ATOM     17  C   UNL     1       6.929   5.126  17.908  0.00  0.00    +0.000 C 
ATOM     18  C   UNL     1       6.577   4.051  16.869  0.00  0.00    +0.000 C 
ATOM     19  C   UNL     1       5.290   4.441  16.137  0.00  0.00    +0.000 C 
ATOM     20  C   UNL     1       5.462   5.804  15.439  0.00  0.00    +0.000 C 
ATOM     21  C   UNL     1       4.170   4.545  17.168  0.00  0.00    +0.000 C 
ATOM     22  C   UNL     1       5.767   5.278  18.916  0.00  0.00    +0.000 C 
ENDBRANCH  11  13
ENDBRANCH   7  11
BRANCH   1  23
ATOM     23  C   UNL     1      -0.353  11.441  18.712  0.00  0.00    +0.000 C 
BRANCH  23  24
ATOM     24  C   UNL     1      -1.794  11.156  18.279  0.00  0.00    +0.000 C 
BRANCH  24  25
ATOM     25  C   UNL     1      -1.825  10.127  17.153  0.00  0.00    +0.000 C 
BRANCH  25  27
ATOM     26  C   UNL     1      -2.972  10.247  14.923  0.00  0.00    +0.000 C 
ATOM     27  C   UNL     1      -3.168  10.153  16.427  0.00  0.00    +0.000 C 
ENDBRANCH  25  27
ENDBRANCH  24  25
ENDBRANCH  23  24
ENDBRANCH   1  23
TORSDOF 6
ENDMDL
