MODEL 1
REMARK VINA RESULT:      -7.5      0.000      0.000
REMARK  Name = 
REMARK  7 active torsions:
REMARK  status: ('A' for Active; 'I' for Inactive)
REMARK    1  A    between atoms: C_1  and  C_2
REMARK    2  A    between atoms: C_2  and  C_3
REMARK    3  A    between atoms: C_2  and  C_4
REMARK    4  A    between atoms: C_2  and  N_18
REMARK    5  A    between atoms: N_10  and  C_11
REMARK    6  A    between atoms: C_11  and  C_12
REMARK    7  A    between atoms: C_12  and  C_13
REMARK                            x       y       z     vdW  Elec       q    Type
REMARK                         _______ _______ _______ _____ _____    ______ ____
ROOT
ATOM      1  C   UNL     1       4.689   5.296  18.693  0.00  0.00    +0.000 C 
ATOM      2  O   UNL     1       5.392   5.736  19.616  0.00  0.00    +0.000 OA
ATOM      3  N   UNL     1       5.252   5.178  17.444  0.00  0.00    +0.000 N 
ATOM      4  C   UNL     1       6.545   5.805  17.207  0.00  0.00    +0.000 C 
ATOM      5  C   UNL     1       6.877   5.331  15.811  0.00  0.00    +0.000 C 
ATOM      6  O   UNL     1       7.874   5.638  15.178  0.00  0.00    +0.000 OA
ATOM      7  N   UNL     1       5.875   4.463  15.393  0.00  0.00    +0.000 N 
ATOM      8  C   UNL     1       5.016   4.128  16.494  0.00  0.00    +0.000 C 
ENDROOT
BRANCH   1  10
ATOM      9  C   UNL     1       2.789   5.748  20.210  0.00  0.00    +0.000 C 
ATOM     10  C   UNL     1       3.185   4.917  18.962  0.00  0.00    +0.000 C 
ATOM     11  C   UNL     1       2.292   5.463  17.821  0.00  0.00    +0.000 C 
BRANCH  10  12
ATOM     12  N   UNL     1       3.019   3.437  19.080  0.00  0.00    +0.000 NA
ATOM     13  C   UNL     1       1.645   2.918  18.857  0.00  0.00    +0.000 C 
ATOM     14  C   UNL     1       0.726   2.882  20.096  0.00  0.00    +0.000 C 
ATOM     15  O   UNL     1       1.337   2.183  21.181  0.00  0.00    +0.000 OA
ATOM     16  C   UNL     1       2.594   2.776  21.522  0.00  0.00    +0.000 C 
ATOM     17  C   UNL     1       3.545   2.800  20.312  0.00  0.00    +0.000 C 
ENDBRANCH  10  12
ENDBRANCH   1  10
BRANCH   7  18
ATOM     18  C   UNL     1       6.037   3.636  14.206  0.00  0.00    +0.000 C 
BRANCH  18  19
ATOM     19  C   UNL     1       4.923   3.803  13.188  0.00  0.00    +0.000 C 
BRANCH  19  20
ATOM     20  C   UNL     1       5.335   3.283  11.826  0.00  0.00    +0.000 C 
ATOM     21  F   UNL     1       6.481   3.833  11.377  0.00  0.00    +0.000 F 
ATOM     22  F   UNL     1       5.517   1.944  11.869  0.00  0.00    +0.000 F 
ATOM     23  F   UNL     1       4.373   3.530  10.910  0.00  0.00    +0.000 F 
ENDBRANCH  19  20
ENDBRANCH  18  19
ENDBRANCH   7  18
TORSDOF 5
ENDMDL
MODEL 2
REMARK VINA RESULT:      -7.2      0.981      1.034
REMARK  Name = 
REMARK  7 active torsions:
REMARK  status: ('A' for Active; 'I' for Inactive)
REMARK    1  A    between atoms: C_1  and  C_2
REMARK    2  A    between atoms: C_2  and  C_3
REMARK    3  A    between atoms: C_2  and  C_4
REMARK    4  A    between atoms: C_2  and  N_18
REMARK    5  A    between atoms: N_10  and  C_11
REMARK    6  A    between atoms: C_11  and  C_12
REMARK    7  A    between atoms: C_12  and  C_13
REMARK                            x       y       z     vdW  Elec       q    Type
REMARK                         _______ _______ _______ _____ _____    ______ ____
ROOT
ATOM      1  C   UNL     1       5.394   4.587  18.148  0.00  0.00    +0.000 C 
ATOM      2  O   UNL     1       6.274   4.672  19.019  0.00  0.00    +0.000 OA
ATOM      3  N   UNL     1       5.766   4.715  16.831  0.00  0.00    +0.000 N 
ATOM      4  C   UNL     1       7.109   5.194  16.536  0.00  0.00    +0.000 C 
ATOM      5  C   UNL     1       7.174   5.053  15.032  0.00  0.00    +0.000 C 
ATOM      6  O   UNL     1       8.122   5.369  14.332  0.00  0.00    +0.000 OA
ATOM      7  N   UNL     1       5.989   4.471  14.595  0.00  0.00    +0.000 N 
ATOM      8  C   UNL     1       5.230   3.989  15.715  0.00  0.00    +0.000 C 
ENDROOT
BRANCH   1  10
ATOM      9  C   UNL     1       3.651   5.385  19.710  0.00  0.00    +0.000 C 
ATOM     10  C   UNL     1       3.892   4.367  18.567  0.00  0.00    +0.000 C 
ATOM     11  C   UNL     1       2.954   4.823  17.423  0.00  0.00    +0.000 C 
BRANCH  10  12
ATOM     12  N   UNL     1       3.634   2.933  18.900  0.00  0.00    +0.000 NA
ATOM     13  C   UNL     1       2.334   2.383  18.438  0.00  0.00    +0.000 C 
ATOM     14  C   UNL     1       1.139   2.575  19.395  0.00  0.00    +0.000 C 
ATOM     15  O   UNL     1       1.433   2.087  20.705  0.00  0.00    +0.000 OA
ATOM     16  C   UNL     1       2.595   2.731  21.237  0.00  0.00    +0.000 C 
ATOM     17  C   UNL     1       3.813   2.533  20.317  0.00  0.00    +0.000 C 
ENDBRANCH  10  12
ENDBRANCH   1  10
BRANCH   7  18
ATOM     18  C   UNL     1       5.852   3.962  13.239  0.00  0.00    +0.000 C 
BRANCH  18  19
ATOM     19  C   UNL     1       4.480   3.384  12.939  0.00  0.00    +0.000 C 
BRANCH  19  20
ATOM     20  C   UNL     1       4.308   3.106  11.460  0.00  0.00    +0.000 C 
ATOM     21  F   UNL     1       4.603   4.170  10.686  0.00  0.00    +0.000 F 
ATOM     22  F   UNL     1       5.112   2.089  11.075  0.00  0.00    +0.000 F 
ATOM     23  F   UNL     1       3.036   2.739  11.188  0.00  0.00    +0.000 F 
ENDBRANCH  19  20
ENDBRANCH  18  19
ENDBRANCH   7  18
TORSDOF 5
ENDMDL
MODEL 3
REMARK VINA RESULT:      -7.2      1.263      1.532
REMARK  Name = 
REMARK  7 active torsions:
REMARK  status: ('A' for Active; 'I' for Inactive)
REMARK    1  A    between atoms: C_1  and  C_2
REMARK    2  A    between atoms: C_2  and  C_3
REMARK    3  A    between atoms: C_2  and  C_4
REMARK    4  A    between atoms: C_2  and  N_18
REMARK    5  A    between atoms: N_10  and  C_11
REMARK    6  A    between atoms: C_11  and  C_12
REMARK    7  A    between atoms: C_12  and  C_13
REMARK                            x       y       z     vdW  Elec       q    Type
REMARK                         _______ _______ _______ _____ _____    ______ ____
ROOT
ATOM      1  C   UNL     1       3.975   4.821  19.016  0.00  0.00    +0.000 C 
ATOM      2  O   UNL     1       4.331   4.225  20.044  0.00  0.00    +0.000 OA
ATOM      3  N   UNL     1       4.870   4.922  17.977  0.00  0.00    +0.000 N 
ATOM      4  C   UNL     1       6.258   4.559  18.225  0.00  0.00    +0.000 C 
ATOM      5  C   UNL     1       6.864   4.658  16.843  0.00  0.00    +0.000 C 
ATOM      6  O   UNL     1       8.038   4.466  16.570  0.00  0.00    +0.000 OA
ATOM      7  N   UNL     1       5.852   4.969  15.942  0.00  0.00    +0.000 N 
ATOM      8  C   UNL     1       4.569   4.848  16.576  0.00  0.00    +0.000 C 
ENDROOT
BRANCH   1  10
ATOM      9  C   UNL     1       2.350   6.171  20.301  0.00  0.00    +0.000 C 
ATOM     10  C   UNL     1       2.539   5.462  18.936  0.00  0.00    +0.000 C 
ATOM     11  C   UNL     1       2.528   6.603  17.890  0.00  0.00    +0.000 C 
BRANCH  10  12
ATOM     12  N   UNL     1       1.513   4.434  18.583  0.00  0.00    +0.000 NA
ATOM     13  C   UNL     1       0.821   3.787  19.727  0.00  0.00    +0.000 C 
ATOM     14  C   UNL     1       1.516   2.546  20.326  0.00  0.00    +0.000 C 
ATOM     15  O   UNL     1       1.804   1.572  19.321  0.00  0.00    +0.000 OA
ATOM     16  C   UNL     1       2.616   2.137  18.286  0.00  0.00    +0.000 C 
ATOM     17  C   UNL     1       1.935   3.361  17.649  0.00  0.00    +0.000 C 
ENDBRANCH  10  12
ENDBRANCH   1  10
BRANCH   7  18
ATOM     18  C   UNL     1       6.063   4.871  14.505  0.00  0.00    +0.000 C 
BRANCH  18  19
ATOM     19  C   UNL     1       5.892   3.466  13.957  0.00  0.00    +0.000 C 
BRANCH  19  20
ATOM     20  C   UNL     1       5.901   3.457  12.442  0.00  0.00    +0.000 C 
ATOM     21  F   UNL     1       6.842   4.267  11.917  0.00  0.00    +0.000 F 
ATOM     22  F   UNL     1       6.136   2.209  11.979  0.00  0.00    +0.000 F 
ATOM     23  F   UNL     1       4.703   3.848  11.955  0.00  0.00    +0.000 F 
ENDBRANCH  19  20
ENDBRANCH  18  19
ENDBRANCH   7  18
TORSDOF 5
ENDMDL
MODEL 4
REMARK VINA RESULT:      -7.1      1.066      1.367
REMARK  Name = 
REMARK  7 active torsions:
REMARK  status: ('A' for Active; 'I' for Inactive)
REMARK    1  A    between atoms: C_1  and  C_2
REMARK    2  A    between atoms: C_2  and  C_3
REMARK    3  A    between atoms: C_2  and  C_4
REMARK    4  A    between atoms: C_2  and  N_18
REMARK    5  A    between atoms: N_10  and  C_11
REMARK    6  A    between atoms: C_11  and  C_12
REMARK    7  A    between atoms: C_12  and  C_13
REMARK                            x       y       z     vdW  Elec       q    Type
REMARK                         _______ _______ _______ _____ _____    ______ ____
ROOT
ATOM      1  C   UNL     1       5.348   5.220  17.960  0.00  0.00    +0.000 C 
ATOM      2  O   UNL     1       6.152   5.715  18.765  0.00  0.00    +0.000 OA
ATOM      3  N   UNL     1       5.750   5.057  16.655  0.00  0.00    +0.000 N 
ATOM      4  C   UNL     1       6.985   5.699  16.227  0.00  0.00    +0.000 C 
ATOM      5  C   UNL     1       7.147   5.170  14.821  0.00  0.00    +0.000 C 
ATOM      6  O   UNL     1       8.047   5.468  14.052  0.00  0.00    +0.000 OA
ATOM      7  N   UNL     1       6.122   4.264  14.572  0.00  0.00    +0.000 N 
ATOM      8  C   UNL     1       5.421   3.961  15.788  0.00  0.00    +0.000 C 
ENDROOT
BRANCH   1  10
ATOM      9  C   UNL     1       3.745   5.503  19.821  0.00  0.00    +0.000 C 
ATOM     10  C   UNL     1       3.901   4.824  18.437  0.00  0.00    +0.000 C 
ATOM     11  C   UNL     1       2.843   5.509  17.537  0.00  0.00    +0.000 C 
BRANCH  10  12
ATOM     12  N   UNL     1       3.716   3.341  18.408  0.00  0.00    +0.000 NA
ATOM     13  C   UNL     1       2.443   2.857  17.815  0.00  0.00    +0.000 C 
ATOM     14  C   UNL     1       1.243   2.752  18.780  0.00  0.00    +0.000 C 
ATOM     15  O   UNL     1       1.566   1.974  19.934  0.00  0.00    +0.000 OA
ATOM     16  C   UNL     1       2.697   2.526  20.617  0.00  0.00    +0.000 C 
ATOM     17  C   UNL     1       3.919   2.617  19.687  0.00  0.00    +0.000 C 
ENDBRANCH  10  12
ENDBRANCH   1  10
BRANCH   7  18
ATOM     18  C   UNL     1       6.153   3.387  13.410  0.00  0.00    +0.000 C 
BRANCH  18  19
ATOM     19  C   UNL     1       5.602   4.027  12.148  0.00  0.00    +0.000 C 
BRANCH  19  20
ATOM     20  C   UNL     1       4.473   3.207  11.559  0.00  0.00    +0.000 C 
ATOM     21  F   UNL     1       3.479   2.971  12.439  0.00  0.00    +0.000 F 
ATOM     22  F   UNL     1       3.932   3.846  10.497  0.00  0.00    +0.000 F 
ATOM     23  F   UNL     1       4.928   2.013  11.121  0.00  0.00    +0.000 F 
ENDBRANCH  19  20
ENDBRANCH  18  19
ENDBRANCH   7  18
TORSDOF 5
ENDMDL
MODEL 5
REMARK VINA RESULT:      -7.1      1.105      1.478
REMARK  Name = 
REMARK  7 active torsions:
REMARK  status: ('A' for Active; 'I' for Inactive)
REMARK    1  A    between atoms: C_1  and  C_2
REMARK    2  A    between atoms: C_2  and  C_3
REMARK    3  A    between atoms: C_2  and  C_4
REMARK    4  A    between atoms: C_2  and  N_18
REMARK    5  A    between atoms: N_10  and  C_11
REMARK    6  A    between atoms: C_11  and  C_12
REMARK    7  A    between atoms: C_12  and  C_13
REMARK                            x       y       z     vdW  Elec       q    Type
REMARK                         _______ _______ _______ _____ _____    ______ ____
ROOT
ATOM      1  C   UNL     1       5.035   5.034  17.874  0.00  0.00    +0.000 C 
ATOM      2  O   UNL     1       5.736   5.545  18.760  0.00  0.00    +0.000 OA
ATOM      3  N   UNL     1       5.558   4.929  16.607  0.00  0.00    +0.000 N 
ATOM      4  C   UNL     1       6.790   5.644  16.308  0.00  0.00    +0.000 C 
ATOM      5  C   UNL     1       7.105   5.165  14.910  0.00  0.00    +0.000 C 
ATOM      6  O   UNL     1       8.052   5.531  14.232  0.00  0.00    +0.000 OA
ATOM      7  N   UNL     1       6.156   4.216  14.548  0.00  0.00    +0.000 N 
ATOM      8  C   UNL     1       5.366   3.844  15.688  0.00  0.00    +0.000 C 
ENDROOT
BRANCH   1  10
ATOM      9  C   UNL     1       2.674   5.772  17.891  0.00  0.00    +0.000 C 
ATOM     10  C   UNL     1       3.574   4.551  18.209  0.00  0.00    +0.000 C 
ATOM     11  C   UNL     1       3.135   3.460  17.201  0.00  0.00    +0.000 C 
BRANCH  10  12
ATOM     12  N   UNL     1       3.492   4.021  19.604  0.00  0.00    +0.000 NA
ATOM     13  C   UNL     1       3.189   2.572  19.732  0.00  0.00    +0.000 C 
ATOM     14  C   UNL     1       1.694   2.192  19.752  0.00  0.00    +0.000 C 
ATOM     15  O   UNL     1       0.980   2.925  20.748  0.00  0.00    +0.000 OA
ATOM     16  C   UNL     1       1.125   4.334  20.541  0.00  0.00    +0.000 C 
ATOM     17  C   UNL     1       2.607   4.749  20.545  0.00  0.00    +0.000 C 
ENDBRANCH  10  12
ENDBRANCH   1  10
BRANCH   7  18
ATOM     18  C   UNL     1       6.336   3.376  13.372  0.00  0.00    +0.000 C 
BRANCH  18  19
ATOM     19  C   UNL     1       5.824   4.005  12.088  0.00  0.00    +0.000 C 
BRANCH  19  20
ATOM     20  C   UNL     1       4.585   3.298  11.581  0.00  0.00    +0.000 C 
ATOM     21  F   UNL     1       3.943   3.987  10.616  0.00  0.00    +0.000 F 
ATOM     22  F   UNL     1       4.909   2.089  11.068  0.00  0.00    +0.000 F 
ATOM     23  F   UNL     1       3.709   3.087  12.588  0.00  0.00    +0.000 F 
ENDBRANCH  19  20
ENDBRANCH  18  19
ENDBRANCH   7  18
TORSDOF 5
ENDMDL
MODEL 6
REMARK VINA RESULT:      -7.0      1.403      2.243
REMARK  Name = 
REMARK  7 active torsions:
REMARK  status: ('A' for Active; 'I' for Inactive)
REMARK    1  A    between atoms: C_1  and  C_2
REMARK    2  A    between atoms: C_2  and  C_3
REMARK    3  A    between atoms: C_2  and  C_4
REMARK    4  A    between atoms: C_2  and  N_18
REMARK    5  A    between atoms: N_10  and  C_11
REMARK    6  A    between atoms: C_11  and  C_12
REMARK    7  A    between atoms: C_12  and  C_13
REMARK                            x       y       z     vdW  Elec       q    Type
REMARK                         _______ _______ _______ _____ _____    ______ ____
ROOT
ATOM      1  C   UNL     1       4.808   4.018  18.909  0.00  0.00    +0.000 C 
ATOM      2  O   UNL     1       5.362   4.222  20.000  0.00  0.00    +0.000 OA
ATOM      3  N   UNL     1       5.382   4.547  17.777  0.00  0.00    +0.000 N 
ATOM      4  C   UNL     1       6.451   5.523  17.937  0.00  0.00    +0.000 C 
ATOM      5  C   UNL     1       6.901   5.738  16.510  0.00  0.00    +0.000 C 
ATOM      6  O   UNL     1       7.774   6.513  16.153  0.00  0.00    +0.000 OA
ATOM      7  N   UNL     1       6.179   4.881  15.689  0.00  0.00    +0.000 N 
ATOM      8  C   UNL     1       5.447   3.933  16.481  0.00  0.00    +0.000 C 
ENDROOT
BRANCH   1  10
ATOM      9  C   UNL     1       3.706   2.137  17.741  0.00  0.00    +0.000 C 
ATOM     10  C   UNL     1       3.468   3.194  18.849  0.00  0.00    +0.000 C 
ATOM     11  C   UNL     1       3.296   2.373  20.151  0.00  0.00    +0.000 C 
BRANCH  10  12
ATOM     12  N   UNL     1       2.293   4.096  18.655  0.00  0.00    +0.000 NA
ATOM     13  C   UNL     1       2.599   5.467  18.171  0.00  0.00    +0.000 C 
ATOM     14  C   UNL     1       2.924   6.512  19.258  0.00  0.00    +0.000 C 
ATOM     15  O   UNL     1       1.900   6.568  20.252  0.00  0.00    +0.000 OA
ATOM     16  C   UNL     1       1.705   5.283  20.852  0.00  0.00    +0.000 C 
ATOM     17  C   UNL     1       1.351   4.223  19.794  0.00  0.00    +0.000 C 
ENDBRANCH  10  12
ENDBRANCH   1  10
BRANCH   7  18
ATOM     18  C   UNL     1       6.565   4.657  14.303  0.00  0.00    +0.000 C 
BRANCH  18  19
ATOM     19  C   UNL     1       5.828   3.506  13.642  0.00  0.00    +0.000 C 
BRANCH  19  20
ATOM     20  C   UNL     1       6.104   3.454  12.154  0.00  0.00    +0.000 C 
ATOM     21  F   UNL     1       7.062   4.319  11.765  0.00  0.00    +0.000 F 
ATOM     22  F   UNL     1       6.506   2.214  11.793  0.00  0.00    +0.000 F 
ATOM     23  F   UNL     1       4.985   3.734  11.450  0.00  0.00    +0.000 F 
ENDBRANCH  19  20
ENDBRANCH  18  19
ENDBRANCH   7  18
TORSDOF 5
ENDMDL
MODEL 7
REMARK VINA RESULT:      -7.0      1.401      1.941
REMARK  Name = 
REMARK  7 active torsions:
REMARK  status: ('A' for Active; 'I' for Inactive)
REMARK    1  A    between atoms: C_1  and  C_2
REMARK    2  A    between atoms: C_2  and  C_3
REMARK    3  A    between atoms: C_2  and  C_4
REMARK    4  A    between atoms: C_2  and  N_18
REMARK    5  A    between atoms: N_10  and  C_11
REMARK    6  A    between atoms: C_11  and  C_12
REMARK    7  A    between atoms: C_12  and  C_13
REMARK                            x       y       z     vdW  Elec       q    Type
REMARK                         _______ _______ _______ _____ _____    ______ ____
ROOT
ATOM      1  C   UNL     1       4.947   3.669  18.721  0.00  0.00    +0.000 C 
ATOM      2  O   UNL     1       5.591   3.707  19.781  0.00  0.00    +0.000 OA
ATOM      3  N   UNL     1       5.450   4.334  17.629  0.00  0.00    +0.000 N 
ATOM      4  C   UNL     1       6.561   5.252  17.830  0.00  0.00    +0.000 C 
ATOM      5  C   UNL     1       6.907   5.650  16.414  0.00  0.00    +0.000 C 
ATOM      6  O   UNL     1       7.777   6.444  16.093  0.00  0.00    +0.000 OA
ATOM      7  N   UNL     1       6.092   4.931  15.546  0.00  0.00    +0.000 N 
ATOM      8  C   UNL     1       5.391   3.902  16.261  0.00  0.00    +0.000 C 
ENDROOT
BRANCH   1  10
ATOM      9  C   UNL     1       2.793   3.573  17.511  0.00  0.00    +0.000 C 
ATOM     10  C   UNL     1       3.577   2.894  18.662  0.00  0.00    +0.000 C 
ATOM     11  C   UNL     1       3.814   1.442  18.179  0.00  0.00    +0.000 C 
BRANCH  10  12
ATOM     12  N   UNL     1       2.908   2.887  19.998  0.00  0.00    +0.000 NA
ATOM     13  C   UNL     1       1.545   2.297  20.038  0.00  0.00    +0.000 C 
ATOM     14  C   UNL     1       0.381   3.259  19.723  0.00  0.00    +0.000 C 
ATOM     15  O   UNL     1       0.428   4.425  20.546  0.00  0.00    +0.000 OA
ATOM     16  C   UNL     1       1.679   5.103  20.393  0.00  0.00    +0.000 C 
ATOM     17  C   UNL     1       2.861   4.176  20.729  0.00  0.00    +0.000 C 
ENDBRANCH  10  12
ENDBRANCH   1  10
BRANCH   7  18
ATOM     18  C   UNL     1       6.361   4.891  14.116  0.00  0.00    +0.000 C 
BRANCH  18  19
ATOM     19  C   UNL     1       6.318   3.493  13.525  0.00  0.00    +0.000 C 
BRANCH  19  20
ATOM     20  C   UNL     1       6.493   3.521  12.022  0.00  0.00    +0.000 C 
ATOM     21  F   UNL     1       7.028   2.385  11.532  0.00  0.00    +0.000 F 
ATOM     22  F   UNL     1       5.299   3.702  11.411  0.00  0.00    +0.000 F 
ATOM     23  F   UNL     1       7.293   4.546  11.653  0.00  0.00    +0.000 F 
ENDBRANCH  19  20
ENDBRANCH  18  19
ENDBRANCH   7  18
TORSDOF 5
ENDMDL
MODEL 8
REMARK VINA RESULT:      -7.0      1.345      2.258
REMARK  Name = 
REMARK  7 active torsions:
REMARK  status: ('A' for Active; 'I' for Inactive)
REMARK    1  A    between atoms: C_1  and  C_2
REMARK    2  A    between atoms: C_2  and  C_3
REMARK    3  A    between atoms: C_2  and  C_4
REMARK    4  A    between atoms: C_2  and  N_18
REMARK    5  A    between atoms: N_10  and  C_11
REMARK    6  A    between atoms: C_11  and  C_12
REMARK    7  A    between atoms: C_12  and  C_13
REMARK                            x       y       z     vdW  Elec       q    Type
REMARK                         _______ _______ _______ _____ _____    ______ ____
ROOT
ATOM      1  C   UNL     1       5.571   4.128  18.110  0.00  0.00    +0.000 C 
ATOM      2  O   UNL     1       6.424   4.476  18.941  0.00  0.00    +0.000 OA
ATOM      3  N   UNL     1       5.842   4.321  16.776  0.00  0.00    +0.000 N 
ATOM      4  C   UNL     1       6.987   5.146  16.417  0.00  0.00    +0.000 C 
ATOM      5  C   UNL     1       7.032   4.991  14.915  0.00  0.00    +0.000 C 
ATOM      6  O   UNL     1       7.828   5.540  14.170  0.00  0.00    +0.000 OA
ATOM      7  N   UNL     1       6.041   4.093  14.537  0.00  0.00    +0.000 N 
ATOM      8  C   UNL     1       5.489   3.447  15.694  0.00  0.00    +0.000 C 
ENDROOT
BRANCH   1  10
ATOM      9  C   UNL     1       3.958   2.311  17.646  0.00  0.00    +0.000 C 
ATOM     10  C   UNL     1       4.206   3.511  18.596  0.00  0.00    +0.000 C 
ATOM     11  C   UNL     1       4.385   2.878  19.998  0.00  0.00    +0.000 C 
BRANCH  10  12
ATOM     12  N   UNL     1       3.133   4.549  18.636  0.00  0.00    +0.000 NA
ATOM     13  C   UNL     1       3.031   5.331  19.895  0.00  0.00    +0.000 C 
ATOM     14  C   UNL     1       2.152   4.717  21.005  0.00  0.00    +0.000 C 
ATOM     15  O   UNL     1       0.845   4.404  20.524  0.00  0.00    +0.000 OA
ATOM     16  C   UNL     1       0.916   3.513  19.406  0.00  0.00    +0.000 C 
ATOM     17  C   UNL     1       1.764   4.111  18.269  0.00  0.00    +0.000 C 
ENDBRANCH  10  12
ENDBRANCH   1  10
BRANCH   7  18
ATOM     18  C   UNL     1       6.001   3.531  13.194  0.00  0.00    +0.000 C 
BRANCH  18  19
ATOM     19  C   UNL     1       5.006   4.218  12.275  0.00  0.00    +0.000 C 
BRANCH  19  20
ATOM     20  C   UNL     1       4.269   3.217  11.411  0.00  0.00    +0.000 C 
ATOM     21  F   UNL     1       3.096   2.822  11.946  0.00  0.00    +0.000 F 
ATOM     22  F   UNL     1       4.002   3.749  10.196  0.00  0.00    +0.000 F 
ATOM     23  F   UNL     1       5.022   2.113  11.209  0.00  0.00    +0.000 F 
ENDBRANCH  19  20
ENDBRANCH  18  19
ENDBRANCH   7  18
TORSDOF 5
ENDMDL
MODEL 9
REMARK VINA RESULT:      -7.0      1.325      1.499
REMARK  Name = 
REMARK  7 active torsions:
REMARK  status: ('A' for Active; 'I' for Inactive)
REMARK    1  A    between atoms: C_1  and  C_2
REMARK    2  A    between atoms: C_2  and  C_3
REMARK    3  A    between atoms: C_2  and  C_4
REMARK    4  A    between atoms: C_2  and  N_18
REMARK    5  A    between atoms: N_10  and  C_11
REMARK    6  A    between atoms: C_11  and  C_12
REMARK    7  A    between atoms: C_12  and  C_13
REMARK                            x       y       z     vdW  Elec       q    Type
REMARK                         _______ _______ _______ _____ _____    ______ ____
ROOT
ATOM      1  C   UNL     1       5.746   4.546  17.791  0.00  0.00    +0.000 C 
ATOM      2  O   UNL     1       6.739   4.640  18.528  0.00  0.00    +0.000 OA
ATOM      3  N   UNL     1       5.929   4.652  16.433  0.00  0.00    +0.000 N 
ATOM      4  C   UNL     1       7.219   5.119  15.944  0.00  0.00    +0.000 C 
ATOM      5  C   UNL     1       7.072   4.954  14.449  0.00  0.00    +0.000 C 
ATOM      6  O   UNL     1       7.913   5.255  13.618  0.00  0.00    +0.000 OA
ATOM      7  N   UNL     1       5.836   4.372  14.192  0.00  0.00    +0.000 N 
ATOM      8  C   UNL     1       5.240   3.911  15.414  0.00  0.00    +0.000 C 
ENDROOT
BRANCH   1  10
ATOM      9  C   UNL     1       4.288   5.287  19.646  0.00  0.00    +0.000 C 
ATOM     10  C   UNL     1       4.317   4.340  18.420  0.00  0.00    +0.000 C 
ATOM     11  C   UNL     1       3.234   4.896  17.462  0.00  0.00    +0.000 C 
BRANCH  10  12
ATOM     12  N   UNL     1       4.059   2.895  18.700  0.00  0.00    +0.000 NA
ATOM     13  C   UNL     1       2.898   2.293  17.995  0.00  0.00    +0.000 C 
ATOM     14  C   UNL     1       1.533   2.431  18.700  0.00  0.00    +0.000 C 
ATOM     15  O   UNL     1       1.585   1.949  20.043  0.00  0.00    +0.000 OA
ATOM     16  C   UNL     1       2.593   2.639  20.790  0.00  0.00    +0.000 C 
ATOM     17  C   UNL     1       3.974   2.496  20.127  0.00  0.00    +0.000 C 
ENDBRANCH  10  12
ENDBRANCH   1  10
BRANCH   7  18
ATOM     18  C   UNL     1       5.509   3.842  12.876  0.00  0.00    +0.000 C 
BRANCH  18  19
ATOM     19  C   UNL     1       6.549   2.881  12.329  0.00  0.00    +0.000 C 
BRANCH  19  20
ATOM     20  C   UNL     1       5.931   1.883  11.372  0.00  0.00    +0.000 C 
ATOM     21  F   UNL     1       6.680   1.678  10.269  0.00  0.00    +0.000 F 
ATOM     22  F   UNL     1       5.768   0.686  11.979  0.00  0.00    +0.000 F 
ATOM     23  F   UNL     1       4.711   2.300  10.969  0.00  0.00    +0.000 F 
ENDBRANCH  19  20
ENDBRANCH  18  19
ENDBRANCH   7  18
TORSDOF 5
ENDMDL
