MODEL 1
REMARK VINA RESULT:      -6.8      0.000      0.000
REMARK  Name = 
REMARK  9 active torsions:
REMARK  status: ('A' for Active; 'I' for Inactive)
REMARK    1  A    between atoms: C_1  and  O_2
REMARK    2  A    between atoms: O_2  and  C_3
REMARK    3  A    between atoms: C_6  and  C_7
REMARK    4  A    between atoms: C_7  and  S_8
REMARK    5  A    between atoms: S_8  and  C_9
REMARK    6  A    between atoms: C_12  and  C_13
REMARK    7  A    between atoms: C_13  and  S_14
REMARK    8  A    between atoms: S_14  and  C_15
REMARK    9  A    between atoms: N_20  and  C_21
REMARK                            x       y       z     vdW  Elec       q    Type
REMARK                         _______ _______ _______ _____ _____    ______ ____
ROOT
ATOM      1  C   UNL     1       7.571   7.099  18.116  0.00  0.00    +0.000 A 
ATOM      2  N   UNL     1       8.145   6.423  19.080  0.00  0.00    +0.000 NA
ATOM      3  N   UNL     1       7.474   5.234  19.213  0.00  0.00    +0.000 NA
ATOM      4  C   UNL     1       6.501   5.198  18.320  0.00  0.00    +0.000 A 
ATOM      5  N   UNL     1       6.543   6.363  17.584  0.00  0.00    +0.000 N 
ATOM      6  C   UNL     1       5.705   6.751  16.479  0.00  0.00    +0.000 C 
ENDROOT
BRANCH   1   7
ATOM      7  S   UNL     1       7.976   8.693  17.586  0.00  0.00    +0.000 S 
BRANCH   7   8
ATOM      8  C   UNL     1       8.923   9.304  19.012  0.00  0.00    +0.000 C 
BRANCH   8  12
ATOM      9  C   UNL     1      10.303  13.360  18.366  0.00  0.00    +0.000 A 
ATOM     10  C   UNL     1       9.226  12.851  17.639  0.00  0.00    +0.000 A 
ATOM     11  C   UNL     1       8.774  11.546  17.851  0.00  0.00    +0.000 A 
ATOM     12  C   UNL     1       9.402  10.719  18.791  0.00  0.00    +0.000 A 
ATOM     13  C   UNL     1      10.501  11.228  19.501  0.00  0.00    +0.000 A 
ATOM     14  C   UNL     1      10.947  12.539  19.291  0.00  0.00    +0.000 A 
BRANCH   9  16
ATOM     15  C   UNL     1      10.145  15.656  18.927  0.00  0.00    +0.000 C 
ATOM     16  O   UNL     1      10.651  14.647  18.062  0.00  0.00    +0.000 OA
ENDBRANCH   9  16
ENDBRANCH   8  12
ENDBRANCH   7   8
ENDBRANCH   1   7
BRANCH   4  17
ATOM     17  C   UNL     1       5.485   4.114  18.219  0.00  0.00    +0.000 C 
BRANCH  17  18
ATOM     18  S   UNL     1       3.774   4.654  17.979  0.00  0.00    +0.000 S 
BRANCH  18  19
ATOM     19  C   UNL     1       2.915   3.980  19.351  0.00  0.00    +0.000 A 
ATOM     20  C   UNL     1       1.697   4.358  19.876  0.00  0.00    +0.000 A 
ATOM     21  C   UNL     1       1.333   3.577  21.016  0.00  0.00    +0.000 A 
ATOM     22  C   UNL     1       2.272   2.615  21.303  0.00  0.00    +0.000 A 
ATOM     23  S   UNL     1       3.579   2.648  20.202  0.00  0.00    +0.000 S 
ENDBRANCH  18  19
ENDBRANCH  17  18
ENDBRANCH   4  17
TORSDOF 7
ENDMDL
MODEL 2
REMARK VINA RESULT:      -6.7      4.586      7.236
REMARK  Name = 
REMARK  9 active torsions:
REMARK  status: ('A' for Active; 'I' for Inactive)
REMARK    1  A    between atoms: C_1  and  O_2
REMARK    2  A    between atoms: O_2  and  C_3
REMARK    3  A    between atoms: C_6  and  C_7
REMARK    4  A    between atoms: C_7  and  S_8
REMARK    5  A    between atoms: S_8  and  C_9
REMARK    6  A    between atoms: C_12  and  C_13
REMARK    7  A    between atoms: C_13  and  S_14
REMARK    8  A    between atoms: S_14  and  C_15
REMARK    9  A    between atoms: N_20  and  C_21
REMARK                            x       y       z     vdW  Elec       q    Type
REMARK                         _______ _______ _______ _____ _____    ______ ____
ROOT
ATOM      1  C   UNL     1       2.563   5.086  18.590  0.00  0.00    +0.000 A 
ATOM      2  N   UNL     1       2.695   6.035  17.697  0.00  0.00    +0.000 NA
ATOM      3  N   UNL     1       2.410   7.228  18.310  0.00  0.00    +0.000 NA
ATOM      4  C   UNL     1       2.113   6.990  19.576  0.00  0.00    +0.000 A 
ATOM      5  N   UNL     1       2.220   5.634  19.800  0.00  0.00    +0.000 N 
ATOM      6  C   UNL     1       2.029   4.916  21.034  0.00  0.00    +0.000 C 
ENDROOT
BRANCH   1   7
ATOM      7  S   UNL     1       2.735   3.386  18.329  0.00  0.00    +0.000 S 
BRANCH   7   8
ATOM      8  C   UNL     1       4.464   3.132  18.828  0.00  0.00    +0.000 C 
BRANCH   8  12
ATOM      9  C   UNL     1       7.047   6.186  17.161  0.00  0.00    +0.000 A 
ATOM     10  C   UNL     1       6.819   6.121  18.536  0.00  0.00    +0.000 A 
ATOM     11  C   UNL     1       5.993   5.132  19.077  0.00  0.00    +0.000 A 
ATOM     12  C   UNL     1       5.368   4.193  18.246  0.00  0.00    +0.000 A 
ATOM     13  C   UNL     1       5.581   4.280  16.861  0.00  0.00    +0.000 A 
ATOM     14  C   UNL     1       6.415   5.267  16.323  0.00  0.00    +0.000 A 
BRANCH   9  16
ATOM     15  C   UNL     1       7.937   8.333  17.616  0.00  0.00    +0.000 C 
ATOM     16  O   UNL     1       7.869   7.201  16.757  0.00  0.00    +0.000 OA
ENDBRANCH   9  16
ENDBRANCH   8  12
ENDBRANCH   7   8
ENDBRANCH   1   7
BRANCH   4  17
ATOM     17  C   UNL     1       1.647   8.022  20.544  0.00  0.00    +0.000 C 
BRANCH  17  18
ATOM     18  S   UNL     1       0.962   9.533  19.818  0.00  0.00    +0.000 S 
BRANCH  18  19
ATOM     19  C   UNL     1       0.067  10.272  21.131  0.00  0.00    +0.000 A 
ATOM     20  C   UNL     1      -0.404  11.564  21.234  0.00  0.00    +0.000 A 
ATOM     21  C   UNL     1      -1.076  11.799  22.473  0.00  0.00    +0.000 A 
ATOM     22  C   UNL     1      -1.118  10.671  23.258  0.00  0.00    +0.000 A 
ATOM     23  S   UNL     1      -0.359   9.338  22.505  0.00  0.00    +0.000 S 
ENDBRANCH  18  19
ENDBRANCH  17  18
ENDBRANCH   4  17
TORSDOF 7
ENDMDL
MODEL 3
REMARK VINA RESULT:      -6.7      1.432      1.932
REMARK  Name = 
REMARK  9 active torsions:
REMARK  status: ('A' for Active; 'I' for Inactive)
REMARK    1  A    between atoms: C_1  and  O_2
REMARK    2  A    between atoms: O_2  and  C_3
REMARK    3  A    between atoms: C_6  and  C_7
REMARK    4  A    between atoms: C_7  and  S_8
REMARK    5  A    between atoms: S_8  and  C_9
REMARK    6  A    between atoms: C_12  and  C_13
REMARK    7  A    between atoms: C_13  and  S_14
REMARK    8  A    between atoms: S_14  and  C_15
REMARK    9  A    between atoms: N_20  and  C_21
REMARK                            x       y       z     vdW  Elec       q    Type
REMARK                         _______ _______ _______ _____ _____    ______ ____
ROOT
ATOM      1  C   UNL     1       6.825   6.557  17.397  0.00  0.00    +0.000 A 
ATOM      2  N   UNL     1       6.513   6.575  16.125  0.00  0.00    +0.000 NA
ATOM      3  N   UNL     1       5.499   5.671  15.931  0.00  0.00    +0.000 NA
ATOM      4  C   UNL     1       5.201   5.118  17.094  0.00  0.00    +0.000 A 
ATOM      5  N   UNL     1       6.012   5.673  18.060  0.00  0.00    +0.000 N 
ATOM      6  C   UNL     1       6.022   5.410  19.476  0.00  0.00    +0.000 C 
ENDROOT
BRANCH   1   7
ATOM      7  S   UNL     1       8.087   7.453  18.166  0.00  0.00    +0.000 S 
BRANCH   7   8
ATOM      8  C   UNL     1       7.733   9.133  17.570  0.00  0.00    +0.000 C 
BRANCH   8  12
ATOM      9  C   UNL     1      10.183  12.077  19.596  0.00  0.00    +0.000 A 
ATOM     10  C   UNL     1       9.655  12.341  18.331  0.00  0.00    +0.000 A 
ATOM     11  C   UNL     1       8.859  11.396  17.679  0.00  0.00    +0.000 A 
ATOM     12  C   UNL     1       8.584  10.161  18.280  0.00  0.00    +0.000 A 
ATOM     13  C   UNL     1       9.139   9.892  19.540  0.00  0.00    +0.000 A 
ATOM     14  C   UNL     1       9.931  10.843  20.195  0.00  0.00    +0.000 A 
BRANCH   9  16
ATOM     15  C   UNL     1      10.651  14.398  19.683  0.00  0.00    +0.000 C 
ATOM     16  O   UNL     1      10.950  13.079  20.124  0.00  0.00    +0.000 OA
ENDBRANCH   9  16
ENDBRANCH   8  12
ENDBRANCH   7   8
ENDBRANCH   1   7
BRANCH   4  17
ATOM     17  C   UNL     1       4.221   4.011  17.277  0.00  0.00    +0.000 C 
BRANCH  17  18
ATOM     18  S   UNL     1       2.510   4.515  17.585  0.00  0.00    +0.000 S 
BRANCH  18  19
ATOM     19  C   UNL     1       2.178   3.936  19.207  0.00  0.00    +0.000 A 
ATOM     20  C   UNL     1       2.662   4.411  20.407  0.00  0.00    +0.000 A 
ATOM     21  C   UNL     1       2.174   3.662  21.522  0.00  0.00    +0.000 A 
ATOM     22  C   UNL     1       1.315   2.661  21.134  0.00  0.00    +0.000 A 
ATOM     23  S   UNL     1       1.093   2.629  19.440  0.00  0.00    +0.000 S 
ENDBRANCH  18  19
ENDBRANCH  17  18
ENDBRANCH   4  17
TORSDOF 7
ENDMDL
MODEL 4
REMARK VINA RESULT:      -6.7      5.948      8.332
REMARK  Name = 
REMARK  9 active torsions:
REMARK  status: ('A' for Active; 'I' for Inactive)
REMARK    1  A    between atoms: C_1  and  O_2
REMARK    2  A    between atoms: O_2  and  C_3
REMARK    3  A    between atoms: C_6  and  C_7
REMARK    4  A    between atoms: C_7  and  S_8
REMARK    5  A    between atoms: S_8  and  C_9
REMARK    6  A    between atoms: C_12  and  C_13
REMARK    7  A    between atoms: C_13  and  S_14
REMARK    8  A    between atoms: S_14  and  C_15
REMARK    9  A    between atoms: N_20  and  C_21
REMARK                            x       y       z     vdW  Elec       q    Type
REMARK                         _______ _______ _______ _____ _____    ______ ____
ROOT
ATOM      1  C   UNL     1       3.108   6.346  18.693  0.00  0.00    +0.000 A 
ATOM      2  N   UNL     1       3.417   7.223  17.772  0.00  0.00    +0.000 NA
ATOM      3  N   UNL     1       2.728   8.377  18.045  0.00  0.00    +0.000 NA
ATOM      4  C   UNL     1       2.009   8.188  19.138  0.00  0.00    +0.000 A 
ATOM      5  N   UNL     1       2.241   6.909  19.595  0.00  0.00    +0.000 N 
ATOM      6  C   UNL     1       1.709   6.272  20.772  0.00  0.00    +0.000 C 
ENDROOT
BRANCH   1   7
ATOM      7  S   UNL     1       3.642   4.705  18.782  0.00  0.00    +0.000 S 
BRANCH   7   8
ATOM      8  C   UNL     1       5.430   4.907  18.522  0.00  0.00    +0.000 C 
BRANCH   8  12
ATOM      9  C   UNL     1       6.500   4.317  14.364  0.00  0.00    +0.000 A 
ATOM     10  C   UNL     1       5.291   3.829  14.863  0.00  0.00    +0.000 A 
ATOM     11  C   UNL     1       4.941   4.024  16.202  0.00  0.00    +0.000 A 
ATOM     12  C   UNL     1       5.802   4.706  17.071  0.00  0.00    +0.000 A 
ATOM     13  C   UNL     1       7.027   5.172  16.569  0.00  0.00    +0.000 A 
ATOM     14  C   UNL     1       7.372   4.981  15.226  0.00  0.00    +0.000 A 
BRANCH   9  16
ATOM     15  C   UNL     1       5.675   3.407  12.339  0.00  0.00    +0.000 C 
ATOM     16  O   UNL     1       6.728   4.056  13.042  0.00  0.00    +0.000 OA
ENDBRANCH   9  16
ENDBRANCH   8  12
ENDBRANCH   7   8
ENDBRANCH   1   7
BRANCH   4  17
ATOM     17  C   UNL     1       1.044   9.176  19.696  0.00  0.00    +0.000 C 
BRANCH  17  18
ATOM     18  S   UNL     1       0.837  10.702  18.745  0.00  0.00    +0.000 S 
BRANCH  18  19
ATOM     19  C   UNL     1      -0.868  10.728  18.340  0.00  0.00    +0.000 A 
ATOM     20  C   UNL     1      -1.562   9.905  17.478  0.00  0.00    +0.000 A 
ATOM     21  C   UNL     1      -2.946  10.250  17.396  0.00  0.00    +0.000 A 
ATOM     22  C   UNL     1      -3.264  11.305  18.218  0.00  0.00    +0.000 A 
ATOM     23  S   UNL     1      -1.906  11.870  19.087  0.00  0.00    +0.000 S 
ENDBRANCH  18  19
ENDBRANCH  17  18
ENDBRANCH   4  17
TORSDOF 7
ENDMDL
MODEL 5
REMARK VINA RESULT:      -6.6      4.529      7.390
REMARK  Name = 
REMARK  9 active torsions:
REMARK  status: ('A' for Active; 'I' for Inactive)
REMARK    1  A    between atoms: C_1  and  O_2
REMARK    2  A    between atoms: O_2  and  C_3
REMARK    3  A    between atoms: C_6  and  C_7
REMARK    4  A    between atoms: C_7  and  S_8
REMARK    5  A    between atoms: S_8  and  C_9
REMARK    6  A    between atoms: C_12  and  C_13
REMARK    7  A    between atoms: C_13  and  S_14
REMARK    8  A    between atoms: S_14  and  C_15
REMARK    9  A    between atoms: N_20  and  C_21
REMARK                            x       y       z     vdW  Elec       q    Type
REMARK                         _______ _______ _______ _____ _____    ______ ____
ROOT
ATOM      1  C   UNL     1       2.270   5.446  18.533  0.00  0.00    +0.000 A 
ATOM      2  N   UNL     1       2.475   6.573  17.898  0.00  0.00    +0.000 NA
ATOM      3  N   UNL     1       2.347   7.594  18.805  0.00  0.00    +0.000 NA
ATOM      4  C   UNL     1       2.071   7.072  19.988  0.00  0.00    +0.000 A 
ATOM      5  N   UNL     1       2.035   5.700  19.861  0.00  0.00    +0.000 N 
ATOM      6  C   UNL     1       1.809   4.714  20.886  0.00  0.00    +0.000 C 
ENDROOT
BRANCH   1   7
ATOM      7  S   UNL     1       2.242   3.861  17.847  0.00  0.00    +0.000 S 
BRANCH   7   8
ATOM      8  C   UNL     1       3.925   3.288  18.228  0.00  0.00    +0.000 C 
BRANCH   8  12
ATOM      9  C   UNL     1       6.892   6.198  17.003  0.00  0.00    +0.000 A 
ATOM     10  C   UNL     1       6.729   5.874  18.350  0.00  0.00    +0.000 A 
ATOM     11  C   UNL     1       5.778   4.930  18.747  0.00  0.00    +0.000 A 
ATOM     12  C   UNL     1       4.962   4.299  17.799  0.00  0.00    +0.000 A 
ATOM     13  C   UNL     1       5.113   4.649  16.448  0.00  0.00    +0.000 A 
ATOM     14  C   UNL     1       6.072   5.590  16.053  0.00  0.00    +0.000 A 
BRANCH   9  16
ATOM     15  C   UNL     1       7.866   8.271  17.607  0.00  0.00    +0.000 C 
ATOM     16  O   UNL     1       7.850   7.139  16.746  0.00  0.00    +0.000 OA
ENDBRANCH   9  16
ENDBRANCH   8  12
ENDBRANCH   7   8
ENDBRANCH   1   7
BRANCH   4  17
ATOM     17  C   UNL     1       1.758   7.865  21.209  0.00  0.00    +0.000 C 
BRANCH  17  18
ATOM     18  S   UNL     1       0.088   8.560  21.293  0.00  0.00    +0.000 S 
BRANCH  18  19
ATOM     19  C   UNL     1       0.226  10.108  20.483  0.00  0.00    +0.000 A 
ATOM     20  C   UNL     1       0.722  11.297  20.975  0.00  0.00    +0.000 A 
ATOM     21  C   UNL     1       0.652  12.352  20.014  0.00  0.00    +0.000 A 
ATOM     22  C   UNL     1       0.132  11.924  18.815  0.00  0.00    +0.000 A 
ATOM     23  S   UNL     1      -0.262  10.262  18.847  0.00  0.00    +0.000 S 
ENDBRANCH  18  19
ENDBRANCH  17  18
ENDBRANCH   4  17
TORSDOF 7
ENDMDL
MODEL 6
REMARK VINA RESULT:      -6.6      7.136      9.526
REMARK  Name = 
REMARK  9 active torsions:
REMARK  status: ('A' for Active; 'I' for Inactive)
REMARK    1  A    between atoms: C_1  and  O_2
REMARK    2  A    between atoms: O_2  and  C_3
REMARK    3  A    between atoms: C_6  and  C_7
REMARK    4  A    between atoms: C_7  and  S_8
REMARK    5  A    between atoms: S_8  and  C_9
REMARK    6  A    between atoms: C_12  and  C_13
REMARK    7  A    between atoms: C_13  and  S_14
REMARK    8  A    between atoms: S_14  and  C_15
REMARK    9  A    between atoms: N_20  and  C_21
REMARK                            x       y       z     vdW  Elec       q    Type
REMARK                         _______ _______ _______ _____ _____    ______ ____
ROOT
ATOM      1  C   UNL     1       0.683  10.118  20.021  0.00  0.00    +0.000 A 
ATOM      2  N   UNL     1       0.650   9.760  21.280  0.00  0.00    +0.000 NA
ATOM      3  N   UNL     1       1.321   8.569  21.394  0.00  0.00    +0.000 NA
ATOM      4  C   UNL     1       1.762   8.219  20.198  0.00  0.00    +0.000 A 
ATOM      5  N   UNL     1       1.393   9.194  19.296  0.00  0.00    +0.000 N 
ATOM      6  C   UNL     1       1.684   9.262  17.888  0.00  0.00    +0.000 C 
ENDROOT
BRANCH   1   7
ATOM      7  S   UNL     1      -0.073  11.503  19.318  0.00  0.00    +0.000 S 
BRANCH   7   8
ATOM      8  C   UNL     1      -1.826  11.032  19.421  0.00  0.00    +0.000 C 
BRANCH   8  12
ATOM      9  C   UNL     1      -3.551  10.530  15.478  0.00  0.00    +0.000 A 
ATOM     10  C   UNL     1      -2.365   9.880  15.823  0.00  0.00    +0.000 A 
ATOM     11  C   UNL     1      -1.811  10.035  17.096  0.00  0.00    +0.000 A 
ATOM     12  C   UNL     1      -2.431  10.854  18.048  0.00  0.00    +0.000 A 
ATOM     13  C   UNL     1      -3.609  11.525  17.686  0.00  0.00    +0.000 A 
ATOM     14  C   UNL     1      -4.166  11.363  16.412  0.00  0.00    +0.000 A 
BRANCH   9  16
ATOM     15  C   UNL     1      -3.059   9.674  13.325  0.00  0.00    +0.000 C 
ATOM     16  O   UNL     1      -3.986  10.302  14.202  0.00  0.00    +0.000 OA
ENDBRANCH   9  16
ENDBRANCH   8  12
ENDBRANCH   7   8
ENDBRANCH   1   7
BRANCH   4  17
ATOM     17  C   UNL     1       2.448   6.933  19.893  0.00  0.00    +0.000 C 
BRANCH  17  18
ATOM     18  S   UNL     1       1.594   5.433  20.438  0.00  0.00    +0.000 S 
BRANCH  18  19
ATOM     19  C   UNL     1       2.008   4.237  19.225  0.00  0.00    +0.000 A 
ATOM     20  C   UNL     1       2.759   4.397  18.079  0.00  0.00    +0.000 A 
ATOM     21  C   UNL     1       2.862   3.186  17.327  0.00  0.00    +0.000 A 
ATOM     22  C   UNL     1       2.211   2.142  17.939  0.00  0.00    +0.000 A 
ATOM     23  S   UNL     1       1.487   2.615  19.412  0.00  0.00    +0.000 S 
ENDBRANCH  18  19
ENDBRANCH  17  18
ENDBRANCH   4  17
TORSDOF 7
ENDMDL
MODEL 7
REMARK VINA RESULT:      -6.6      3.707      9.577
REMARK  Name = 
REMARK  9 active torsions:
REMARK  status: ('A' for Active; 'I' for Inactive)
REMARK    1  A    between atoms: C_1  and  O_2
REMARK    2  A    between atoms: O_2  and  C_3
REMARK    3  A    between atoms: C_6  and  C_7
REMARK    4  A    between atoms: C_7  and  S_8
REMARK    5  A    between atoms: S_8  and  C_9
REMARK    6  A    between atoms: C_12  and  C_13
REMARK    7  A    between atoms: C_13  and  S_14
REMARK    8  A    between atoms: S_14  and  C_15
REMARK    9  A    between atoms: N_20  and  C_21
REMARK                            x       y       z     vdW  Elec       q    Type
REMARK                         _______ _______ _______ _____ _____    ______ ____
ROOT
ATOM      1  C   UNL     1       7.153   6.029  17.428  0.00  0.00    +0.000 A 
ATOM      2  N   UNL     1       6.953   6.939  16.507  0.00  0.00    +0.000 NA
ATOM      3  N   UNL     1       7.504   8.114  16.952  0.00  0.00    +0.000 NA
ATOM      4  C   UNL     1       8.040   7.901  18.142  0.00  0.00    +0.000 A 
ATOM      5  N   UNL     1       7.855   6.576  18.472  0.00  0.00    +0.000 N 
ATOM      6  C   UNL     1       8.302   5.879  19.651  0.00  0.00    +0.000 C 
ENDROOT
BRANCH   1   7
ATOM      7  S   UNL     1       6.599   4.393  17.405  0.00  0.00    +0.000 S 
BRANCH   7   8
ATOM      8  C   UNL     1       4.910   4.607  16.767  0.00  0.00    +0.000 C 
BRANCH   8  12
ATOM      9  C   UNL     1       1.948   3.445  19.708  0.00  0.00    +0.000 A 
ATOM     10  C   UNL     1       1.611   4.303  18.660  0.00  0.00    +0.000 A 
ATOM     11  C   UNL     1       2.562   4.673  17.706  0.00  0.00    +0.000 A 
ATOM     12  C   UNL     1       3.877   4.197  17.790  0.00  0.00    +0.000 A 
ATOM     13  C   UNL     1       4.216   3.356  18.861  0.00  0.00    +0.000 A 
ATOM     14  C   UNL     1       3.259   2.981  19.812  0.00  0.00    +0.000 A 
BRANCH   9  16
ATOM     15  C   UNL     1       1.302   2.537  21.798  0.00  0.00    +0.000 C 
ATOM     16  O   UNL     1       0.930   3.165  20.577  0.00  0.00    +0.000 OA
ENDBRANCH   9  16
ENDBRANCH   8  12
ENDBRANCH   7   8
ENDBRANCH   1   7
BRANCH   4  17
ATOM     17  C   UNL     1       8.643   8.960  18.999  0.00  0.00    +0.000 C 
BRANCH  17  18
ATOM     18  S   UNL     1       9.095  10.496  18.154  0.00  0.00    +0.000 S 
BRANCH  18  19
ATOM     19  C   UNL     1       9.349  11.643  19.456  0.00  0.00    +0.000 A 
ATOM     20  C   UNL     1       9.795  11.406  20.739  0.00  0.00    +0.000 A 
ATOM     21  C   UNL     1       9.854  12.600  21.521  0.00  0.00    +0.000 A 
ATOM     22  C   UNL     1       9.478  13.708  20.799  0.00  0.00    +0.000 A 
ATOM     23  S   UNL     1       9.064  13.312  19.189  0.00  0.00    +0.000 S 
ENDBRANCH  18  19
ENDBRANCH  17  18
ENDBRANCH   4  17
TORSDOF 7
ENDMDL
MODEL 8
REMARK VINA RESULT:      -6.6      6.825      9.724
REMARK  Name = 
REMARK  9 active torsions:
REMARK  status: ('A' for Active; 'I' for Inactive)
REMARK    1  A    between atoms: C_1  and  O_2
REMARK    2  A    between atoms: O_2  and  C_3
REMARK    3  A    between atoms: C_6  and  C_7
REMARK    4  A    between atoms: C_7  and  S_8
REMARK    5  A    between atoms: S_8  and  C_9
REMARK    6  A    between atoms: C_12  and  C_13
REMARK    7  A    between atoms: C_13  and  S_14
REMARK    8  A    between atoms: S_14  and  C_15
REMARK    9  A    between atoms: N_20  and  C_21
REMARK                            x       y       z     vdW  Elec       q    Type
REMARK                         _______ _______ _______ _____ _____    ______ ____
ROOT
ATOM      1  C   UNL     1       1.334   9.304  19.271  0.00  0.00    +0.000 A 
ATOM      2  N   UNL     1       1.798   9.344  18.047  0.00  0.00    +0.000 NA
ATOM      3  N   UNL     1       2.450   8.161  17.808  0.00  0.00    +0.000 NA
ATOM      4  C   UNL     1       2.370   7.410  18.893  0.00  0.00    +0.000 A 
ATOM      5  N   UNL     1       1.645   8.096  19.844  0.00  0.00    +0.000 N 
ATOM      6  C   UNL     1       1.269   7.662  21.164  0.00  0.00    +0.000 C 
ENDROOT
BRANCH   1   7
ATOM      7  S   UNL     1       0.496  10.565  20.103  0.00  0.00    +0.000 S 
BRANCH   7   8
ATOM      8  C   UNL     1      -0.090  11.572  18.708  0.00  0.00    +0.000 C 
BRANCH   8  12
ATOM      9  C   UNL     1      -4.295  10.877  17.927  0.00  0.00    +0.000 A 
ATOM     10  C   UNL     1      -3.890  11.922  18.758  0.00  0.00    +0.000 A 
ATOM     11  C   UNL     1      -2.534  12.153  19.005  0.00  0.00    +0.000 A 
ATOM     12  C   UNL     1      -1.556  11.331  18.431  0.00  0.00    +0.000 A 
ATOM     13  C   UNL     1      -1.971  10.266  17.617  0.00  0.00    +0.000 A 
ATOM     14  C   UNL     1      -3.330  10.042  17.365  0.00  0.00    +0.000 A 
BRANCH   9  16
ATOM     15  C   UNL     1      -6.385  10.395  18.932  0.00  0.00    +0.000 C 
ATOM     16  O   UNL     1      -5.648  10.753  17.770  0.00  0.00    +0.000 OA
ENDBRANCH   9  16
ENDBRANCH   8  12
ENDBRANCH   7   8
ENDBRANCH   1   7
BRANCH   4  17
ATOM     17  C   UNL     1       3.045   6.094  19.062  0.00  0.00    +0.000 C 
BRANCH  17  18
ATOM     18  S   UNL     1       3.934   5.471  17.613  0.00  0.00    +0.000 S 
BRANCH  18  19
ATOM     19  C   UNL     1       5.569   6.068  17.824  0.00  0.00    +0.000 A 
ATOM     20  C   UNL     1       6.214   7.077  17.139  0.00  0.00    +0.000 A 
ATOM     21  C   UNL     1       7.558   7.263  17.587  0.00  0.00    +0.000 A 
ATOM     22  C   UNL     1       7.881   6.409  18.615  0.00  0.00    +0.000 A 
ATOM     23  S   UNL     1       6.573   5.396  19.041  0.00  0.00    +0.000 S 
ENDBRANCH  18  19
ENDBRANCH  17  18
ENDBRANCH   4  17
TORSDOF 7
ENDMDL
MODEL 9
REMARK VINA RESULT:      -6.6      4.634      7.388
REMARK  Name = 
REMARK  9 active torsions:
REMARK  status: ('A' for Active; 'I' for Inactive)
REMARK    1  A    between atoms: C_1  and  O_2
REMARK    2  A    between atoms: O_2  and  C_3
REMARK    3  A    between atoms: C_6  and  C_7
REMARK    4  A    between atoms: C_7  and  S_8
REMARK    5  A    between atoms: S_8  and  C_9
REMARK    6  A    between atoms: C_12  and  C_13
REMARK    7  A    between atoms: C_13  and  S_14
REMARK    8  A    between atoms: S_14  and  C_15
REMARK    9  A    between atoms: N_20  and  C_21
REMARK                            x       y       z     vdW  Elec       q    Type
REMARK                         _______ _______ _______ _____ _____    ______ ____
ROOT
ATOM      1  C   UNL     1       1.967   3.843  18.770  0.00  0.00    +0.000 A 
ATOM      2  N   UNL     1       1.387   3.736  17.601  0.00  0.00    +0.000 NA
ATOM      3  N   UNL     1       2.366   3.505  16.668  0.00  0.00    +0.000 NA
ATOM      4  C   UNL     1       3.535   3.469  17.285  0.00  0.00    +0.000 A 
ATOM      5  N   UNL     1       3.320   3.659  18.634  0.00  0.00    +0.000 N 
ATOM      6  C   UNL     1       4.288   3.660  19.700  0.00  0.00    +0.000 C 
ENDROOT
BRANCH   1   7
ATOM      7  S   UNL     1       1.203   4.206  20.277  0.00  0.00    +0.000 S 
BRANCH   7   8
ATOM      8  C   UNL     1       2.276   5.535  20.899  0.00  0.00    +0.000 C 
BRANCH   8  12
ATOM      9  C   UNL     1       1.376   9.327  19.007  0.00  0.00    +0.000 A 
ATOM     10  C   UNL     1       2.160   8.376  18.353  0.00  0.00    +0.000 A 
ATOM     11  C   UNL     1       2.446   7.149  18.959  0.00  0.00    +0.000 A 
ATOM     12  C   UNL     1       1.957   6.856  20.238  0.00  0.00    +0.000 A 
ATOM     13  C   UNL     1       1.190   7.827  20.900  0.00  0.00    +0.000 A 
ATOM     14  C   UNL     1       0.900   9.053  20.288  0.00  0.00    +0.000 A 
BRANCH   9  16
ATOM     15  C   UNL     1       0.984  11.662  19.091  0.00  0.00    +0.000 C 
ATOM     16  O   UNL     1       1.175  10.488  18.311  0.00  0.00    +0.000 OA
ENDBRANCH   9  16
ENDBRANCH   8  12
ENDBRANCH   7   8
ENDBRANCH   1   7
BRANCH   4  17
ATOM     17  C   UNL     1       4.850   3.344  16.598  0.00  0.00    +0.000 C 
BRANCH  17  18
ATOM     18  S   UNL     1       5.399   4.799  15.672  0.00  0.00    +0.000 S 
BRANCH  18  19
ATOM     19  C   UNL     1       6.421   5.667  16.802  0.00  0.00    +0.000 A 
ATOM     20  C   UNL     1       6.546   7.028  16.981  0.00  0.00    +0.000 A 
ATOM     21  C   UNL     1       7.500   7.356  17.993  0.00  0.00    +0.000 A 
ATOM     22  C   UNL     1       8.048   6.234  18.568  0.00  0.00    +0.000 A 
ATOM     23  S   UNL     1       7.411   4.796  17.898  0.00  0.00    +0.000 S 
ENDBRANCH  18  19
ENDBRANCH  17  18
ENDBRANCH   4  17
TORSDOF 7
ENDMDL
