MODEL 1
REMARK VINA RESULT:      -7.7      0.000      0.000
REMARK  Name = 
REMARK  2 active torsions:
REMARK  status: ('A' for Active; 'I' for Inactive)
REMARK    1  A    between atoms: C_2  and  C_3
REMARK    2  A    between atoms: C_2  and  C_19
REMARK                            x       y       z     vdW  Elec       q    Type
REMARK                         _______ _______ _______ _____ _____    ______ ____
ROOT
ATOM      1  C   UNL     1       4.518   3.711  18.530  0.00  0.00    +0.000 C 
ATOM      2  C   UNL     1       3.415   4.487  18.579  0.00  0.00    +0.000 C 
ATOM      3  N   UNL     1       2.962   5.229  17.471  0.00  0.00    +0.000 N 
ATOM      4  C   UNL     1       2.015   6.300  17.712  0.00  0.00    +0.000 C 
ATOM      5  C   UNL     1       2.526   7.053  18.961  0.00  0.00    +0.000 C 
ATOM      6  C   UNL     1       1.893   8.414  19.021  0.00  0.00    +0.000 A 
ATOM      7  C   UNL     1       2.032   9.262  17.900  0.00  0.00    +0.000 A 
ATOM      8  C   UNL     1       1.365  10.471  17.835  0.00  0.00    +0.000 A 
ATOM      9  C   UNL     1       0.597  10.883  18.918  0.00  0.00    +0.000 A 
ATOM     10  C   UNL     1       0.536  10.092  20.081  0.00  0.00    +0.000 A 
ATOM     11  C   UNL     1       1.188   8.855  20.136  0.00  0.00    +0.000 A 
ATOM     12  C   UNL     1       1.271   8.052  21.410  0.00  0.00    +0.000 C 
ATOM     13  C   UNL     1       1.445   6.537  21.193  0.00  0.00    +0.000 C 
ATOM     14  N   UNL     1       2.353   6.157  20.118  0.00  0.00    +0.000 N 
ATOM     15  C   UNL     1       2.748   4.789  19.951  0.00  0.00    +0.000 C 
ATOM     16  O   UNL     1       2.596   3.922  20.802  0.00  0.00    +0.000 OA
ATOM     17  H   UNL     1       3.783   5.578  16.959  0.00  0.00    +0.000 HD
ENDROOT
BRANCH   1  19
ATOM     18  O   UNL     1       5.548   3.589  16.422  0.00  0.00    +0.000 OA
ATOM     19  C   UNL     1       5.510   4.165  17.517  0.00  0.00    +0.000 C 
BRANCH  19  20
ATOM     20  C   UNL     1       6.445   5.300  17.675  0.00  0.00    +0.000 A 
ATOM     21  C   UNL     1       7.372   5.202  18.736  0.00  0.00    +0.000 A 
ATOM     22  C   UNL     1       8.190   6.274  19.088  0.00  0.00    +0.000 A 
ATOM     23  C   UNL     1       8.092   7.468  18.382  0.00  0.00    +0.000 A 
ATOM     24  C   UNL     1       7.186   7.574  17.317  0.00  0.00    +0.000 A 
ATOM     25  C   UNL     1       6.370   6.495  16.969  0.00  0.00    +0.000 A 
ATOM     26  F   UNL     1       5.483   6.659  15.978  0.00  0.00    +0.000 F 
ENDBRANCH  19  20
ENDBRANCH   1  19
TORSDOF 2
ENDMDL
MODEL 2
REMARK VINA RESULT:      -7.6      3.104      5.262
REMARK  Name = 
REMARK  2 active torsions:
REMARK  status: ('A' for Active; 'I' for Inactive)
REMARK    1  A    between atoms: C_2  and  C_3
REMARK    2  A    between atoms: C_2  and  C_19
REMARK                            x       y       z     vdW  Elec       q    Type
REMARK                         _______ _______ _______ _____ _____    ______ ____
ROOT
ATOM      1  C   UNL     1       6.289   6.556  16.068  0.00  0.00    +0.000 C 
ATOM      2  C   UNL     1       5.814   6.353  17.315  0.00  0.00    +0.000 C 
ATOM      3  N   UNL     1       6.372   5.404  18.193  0.00  0.00    +0.000 N 
ATOM      4  C   UNL     1       5.586   4.996  19.340  0.00  0.00    +0.000 C 
ATOM      5  C   UNL     1       4.146   4.785  18.823  0.00  0.00    +0.000 C 
ATOM      6  C   UNL     1       3.379   3.944  19.803  0.00  0.00    +0.000 A 
ATOM      7  C   UNL     1       3.913   2.688  20.164  0.00  0.00    +0.000 A 
ATOM      8  C   UNL     1       3.328   1.924  21.157  0.00  0.00    +0.000 A 
ATOM      9  C   UNL     1       2.162   2.375  21.764  0.00  0.00    +0.000 A 
ATOM     10  C   UNL     1       1.565   3.578  21.339  0.00  0.00    +0.000 A 
ATOM     11  C   UNL     1       2.171   4.364  20.354  0.00  0.00    +0.000 A 
ATOM     12  C   UNL     1       1.490   5.575  19.768  0.00  0.00    +0.000 C 
ATOM     13  C   UNL     1       2.457   6.633  19.202  0.00  0.00    +0.000 C 
ATOM     14  N   UNL     1       3.604   6.110  18.472  0.00  0.00    +0.000 N 
ATOM     15  C   UNL     1       4.459   6.992  17.734  0.00  0.00    +0.000 C 
ATOM     16  O   UNL     1       4.166   8.143  17.438  0.00  0.00    +0.000 OA
ATOM     17  H   UNL     1       6.661   4.585  17.640  0.00  0.00    +0.000 HD
ENDROOT
BRANCH   1  19
ATOM     18  O   UNL     1       7.767   4.735  16.197  0.00  0.00    +0.000 OA
ATOM     19  C   UNL     1       6.961   5.358  15.495  0.00  0.00    +0.000 C 
BRANCH  19  20
ATOM     20  C   UNL     1       6.715   4.794  14.149  0.00  0.00    +0.000 A 
ATOM     21  C   UNL     1       5.602   3.935  14.025  0.00  0.00    +0.000 A 
ATOM     22  C   UNL     1       5.365   3.216  12.855  0.00  0.00    +0.000 A 
ATOM     23  C   UNL     1       6.243   3.345  11.786  0.00  0.00    +0.000 A 
ATOM     24  C   UNL     1       7.345   4.206  11.889  0.00  0.00    +0.000 A 
ATOM     25  C   UNL     1       7.576   4.924  13.066  0.00  0.00    +0.000 A 
ATOM     26  F   UNL     1       8.670   5.696  13.139  0.00  0.00    +0.000 F 
ENDBRANCH  19  20
ENDBRANCH   1  19
TORSDOF 2
ENDMDL
MODEL 3
REMARK VINA RESULT:      -7.5      3.035      4.738
REMARK  Name = 
REMARK  2 active torsions:
REMARK  status: ('A' for Active; 'I' for Inactive)
REMARK    1  A    between atoms: C_2  and  C_3
REMARK    2  A    between atoms: C_2  and  C_19
REMARK                            x       y       z     vdW  Elec       q    Type
REMARK                         _______ _______ _______ _____ _____    ______ ____
ROOT
ATOM      1  C   UNL     1       2.557   5.679  17.622  0.00  0.00    +0.000 C 
ATOM      2  C   UNL     1       2.587   6.701  18.503  0.00  0.00    +0.000 C 
ATOM      3  N   UNL     1       2.435   6.509  19.890  0.00  0.00    +0.000 N 
ATOM      4  C   UNL     1       2.109   7.663  20.703  0.00  0.00    +0.000 C 
ATOM      5  C   UNL     1       1.022   8.443  19.931  0.00  0.00    +0.000 C 
ATOM      6  C   UNL     1       0.309   9.374  20.868  0.00  0.00    +0.000 A 
ATOM      7  C   UNL     1      -0.275   8.828  22.032  0.00  0.00    +0.000 A 
ATOM      8  C   UNL     1      -0.830   9.644  23.000  0.00  0.00    +0.000 A 
ATOM      9  C   UNL     1      -0.866  11.018  22.793  0.00  0.00    +0.000 A 
ATOM     10  C   UNL     1      -0.378  11.562  21.589  0.00  0.00    +0.000 A 
ATOM     11  C   UNL     1       0.208  10.740  20.621  0.00  0.00    +0.000 A 
ATOM     12  C   UNL     1       0.603  11.262  19.263  0.00  0.00    +0.000 C 
ATOM     13  C   UNL     1       1.733  10.466  18.582  0.00  0.00    +0.000 C 
ATOM     14  N   UNL     1       1.659   9.018  18.732  0.00  0.00    +0.000 N 
ATOM     15  C   UNL     1       2.535   8.166  17.983  0.00  0.00    +0.000 C 
ATOM     16  O   UNL     1       3.183   8.531  17.011  0.00  0.00    +0.000 OA
ATOM     17  H   UNL     1       1.749   5.755  20.038  0.00  0.00    +0.000 HD
ENDROOT
BRANCH   1  19
ATOM     18  O   UNL     1       0.756   4.179  17.468  0.00  0.00    +0.000 OA
ATOM     19  C   UNL     1       1.764   4.514  18.101  0.00  0.00    +0.000 C 
BRANCH  19  20
ATOM     20  C   UNL     1       2.102   3.664  19.265  0.00  0.00    +0.000 A 
ATOM     21  C   UNL     1       1.093   3.511  20.241  0.00  0.00    +0.000 A 
ATOM     22  C   UNL     1       1.345   2.875  21.454  0.00  0.00    +0.000 A 
ATOM     23  C   UNL     1       2.618   2.379  21.713  0.00  0.00    +0.000 A 
ATOM     24  C   UNL     1       3.626   2.511  20.747  0.00  0.00    +0.000 A 
ATOM     25  C   UNL     1       3.365   3.150  19.531  0.00  0.00    +0.000 A 
ATOM     26  F   UNL     1       4.372   3.298  18.659  0.00  0.00    +0.000 F 
ENDBRANCH  19  20
ENDBRANCH   1  19
TORSDOF 2
ENDMDL
MODEL 4
REMARK VINA RESULT:      -7.4      3.203      4.858
REMARK  Name = 
REMARK  2 active torsions:
REMARK  status: ('A' for Active; 'I' for Inactive)
REMARK    1  A    between atoms: C_2  and  C_3
REMARK    2  A    between atoms: C_2  and  C_19
REMARK                            x       y       z     vdW  Elec       q    Type
REMARK                         _______ _______ _______ _____ _____    ______ ____
ROOT
ATOM      1  C   UNL     1       2.563   5.961  17.659  0.00  0.00    +0.000 C 
ATOM      2  C   UNL     1       2.550   6.988  18.535  0.00  0.00    +0.000 C 
ATOM      3  N   UNL     1       2.472   6.794  19.928  0.00  0.00    +0.000 N 
ATOM      4  C   UNL     1       2.092   7.925  20.750  0.00  0.00    +0.000 C 
ATOM      5  C   UNL     1       0.915   8.611  20.022  0.00  0.00    +0.000 C 
ATOM      6  C   UNL     1       0.171   9.490  20.986  0.00  0.00    +0.000 A 
ATOM      7  C   UNL     1      -0.318   8.908  22.176  0.00  0.00    +0.000 A 
ATOM      8  C   UNL     1      -0.894   9.685  23.164  0.00  0.00    +0.000 A 
ATOM      9  C   UNL     1      -1.047  11.050  22.954  0.00  0.00    +0.000 A 
ATOM     10  C   UNL     1      -0.656  11.623  21.728  0.00  0.00    +0.000 A 
ATOM     11  C   UNL     1      -0.048  10.842  20.739  0.00  0.00    +0.000 A 
ATOM     12  C   UNL     1       0.246  11.384  19.363  0.00  0.00    +0.000 C 
ATOM     13  C   UNL     1       1.405  10.675  18.637  0.00  0.00    +0.000 C 
ATOM     14  N   UNL     1       1.453   9.227  18.795  0.00  0.00    +0.000 N 
ATOM     15  C   UNL     1       2.360   8.441  18.012  0.00  0.00    +0.000 C 
ATOM     16  O   UNL     1       2.936   8.850  17.012  0.00  0.00    +0.000 OA
ATOM     17  H   UNL     1       1.856   5.990  20.108  0.00  0.00    +0.000 HD
ENDROOT
BRANCH   1  19
ATOM     18  O   UNL     1       0.960   4.250  17.520  0.00  0.00    +0.000 OA
ATOM     19  C   UNL     1       1.886   4.741  18.177  0.00  0.00    +0.000 C 
BRANCH  19  20
ATOM     20  C   UNL     1       2.256   4.008  19.409  0.00  0.00    +0.000 A 
ATOM     21  C   UNL     1       3.490   3.323  19.382  0.00  0.00    +0.000 A 
ATOM     22  C   UNL     1       3.869   2.467  20.414  0.00  0.00    +0.000 A 
ATOM     23  C   UNL     1       3.014   2.280  21.494  0.00  0.00    +0.000 A 
ATOM     24  C   UNL     1       1.791   2.964  21.540  0.00  0.00    +0.000 A 
ATOM     25  C   UNL     1       1.418   3.823  20.502  0.00  0.00    +0.000 A 
ATOM     26  F   UNL     1       0.218   4.416  20.564  0.00  0.00    +0.000 F 
ENDBRANCH  19  20
ENDBRANCH   1  19
TORSDOF 2
ENDMDL
MODEL 5
REMARK VINA RESULT:      -7.2      3.033      5.220
REMARK  Name = 
REMARK  2 active torsions:
REMARK  status: ('A' for Active; 'I' for Inactive)
REMARK    1  A    between atoms: C_2  and  C_3
REMARK    2  A    between atoms: C_2  and  C_19
REMARK                            x       y       z     vdW  Elec       q    Type
REMARK                         _______ _______ _______ _____ _____    ______ ____
ROOT
ATOM      1  C   UNL     1       6.303   6.414  16.093  0.00  0.00    +0.000 C 
ATOM      2  C   UNL     1       5.806   6.244  17.336  0.00  0.00    +0.000 C 
ATOM      3  N   UNL     1       6.336   5.303  18.241  0.00  0.00    +0.000 N 
ATOM      4  C   UNL     1       5.527   4.930  19.384  0.00  0.00    +0.000 C 
ATOM      5  C   UNL     1       4.091   4.731  18.850  0.00  0.00    +0.000 C 
ATOM      6  C   UNL     1       3.296   3.922  19.834  0.00  0.00    +0.000 A 
ATOM      7  C   UNL     1       3.805   2.665  20.227  0.00  0.00    +0.000 A 
ATOM      8  C   UNL     1       3.193   1.930  21.226  0.00  0.00    +0.000 A 
ATOM      9  C   UNL     1       2.026   2.411  21.806  0.00  0.00    +0.000 A 
ATOM     10  C   UNL     1       1.455   3.614  21.349  0.00  0.00    +0.000 A 
ATOM     11  C   UNL     1       2.088   4.371  20.358  0.00  0.00    +0.000 A 
ATOM     12  C   UNL     1       1.435   5.581  19.738  0.00  0.00    +0.000 C 
ATOM     13  C   UNL     1       2.426   6.613  19.167  0.00  0.00    +0.000 C 
ATOM     14  N   UNL     1       3.575   6.057  18.464  0.00  0.00    +0.000 N 
ATOM     15  C   UNL     1       4.456   6.911  17.722  0.00  0.00    +0.000 C 
ATOM     16  O   UNL     1       4.186   8.061  17.400  0.00  0.00    +0.000 OA
ATOM     17  H   UNL     1       6.620   4.469  17.708  0.00  0.00    +0.000 HD
ENDROOT
BRANCH   1  19
ATOM     18  O   UNL     1       7.903   4.697  16.187  0.00  0.00    +0.000 OA
ATOM     19  C   UNL     1       6.964   5.195  15.554  0.00  0.00    +0.000 C 
BRANCH  19  20
ATOM     20  C   UNL     1       6.565   4.471  14.326  0.00  0.00    +0.000 A 
ATOM     21  C   UNL     1       7.470   4.530  13.244  0.00  0.00    +0.000 A 
ATOM     22  C   UNL     1       7.134   4.031  11.987  0.00  0.00    +0.000 A 
ATOM     23  C   UNL     1       5.881   3.463  11.791  0.00  0.00    +0.000 A 
ATOM     24  C   UNL     1       4.977   3.384  12.861  0.00  0.00    +0.000 A 
ATOM     25  C   UNL     1       5.321   3.886  14.119  0.00  0.00    +0.000 A 
ATOM     26  F   UNL     1       4.407   3.836  15.098  0.00  0.00    +0.000 F 
ENDBRANCH  19  20
ENDBRANCH   1  19
TORSDOF 2
ENDMDL
MODEL 6
REMARK VINA RESULT:      -7.2      3.247      5.027
REMARK  Name = 
REMARK  2 active torsions:
REMARK  status: ('A' for Active; 'I' for Inactive)
REMARK    1  A    between atoms: C_2  and  C_3
REMARK    2  A    between atoms: C_2  and  C_19
REMARK                            x       y       z     vdW  Elec       q    Type
REMARK                         _______ _______ _______ _____ _____    ______ ____
ROOT
ATOM      1  C   UNL     1       2.474   6.590  18.579  0.00  0.00    +0.000 C 
ATOM      2  C   UNL     1       2.276   7.771  19.199  0.00  0.00    +0.000 C 
ATOM      3  N   UNL     1       2.315   7.907  20.601  0.00  0.00    +0.000 N 
ATOM      4  C   UNL     1       1.733   9.099  21.184  0.00  0.00    +0.000 C 
ATOM      5  C   UNL     1       0.397   9.332  20.446  0.00  0.00    +0.000 C 
ATOM      6  C   UNL     1      -0.475  10.244  21.261  0.00  0.00    +0.000 A 
ATOM      7  C   UNL     1      -0.759   9.877  22.594  0.00  0.00    +0.000 A 
ATOM      8  C   UNL     1      -1.443  10.733  23.438  0.00  0.00    +0.000 A 
ATOM      9  C   UNL     1      -1.909  11.946  22.944  0.00  0.00    +0.000 A 
ATOM     10  C   UNL     1      -1.720  12.275  21.588  0.00  0.00    +0.000 A 
ATOM     11  C   UNL     1      -1.004  11.422  20.742  0.00  0.00    +0.000 A 
ATOM     12  C   UNL     1      -0.910  11.666  19.256  0.00  0.00    +0.000 C 
ATOM     13  C   UNL     1       0.340  11.057  18.593  0.00  0.00    +0.000 C 
ATOM     14  N   UNL     1       0.719   9.732  19.064  0.00  0.00    +0.000 N 
ATOM     15  C   UNL     1       1.739   8.985  18.388  0.00  0.00    +0.000 C 
ATOM     16  O   UNL     1       2.156   9.251  17.268  0.00  0.00    +0.000 OA
ATOM     17  H   UNL     1       1.905   7.060  21.018  0.00  0.00    +0.000 HD
ENDROOT
BRANCH   1  19
ATOM     18  O   UNL     1       1.432   5.601  20.437  0.00  0.00    +0.000 OA
ATOM     19  C   UNL     1       2.116   5.417  19.422  0.00  0.00    +0.000 C 
BRANCH  19  20
ATOM     20  C   UNL     1       2.465   4.009  19.132  0.00  0.00    +0.000 A 
ATOM     21  C   UNL     1       3.459   3.430  19.952  0.00  0.00    +0.000 A 
ATOM     22  C   UNL     1       3.989   2.172  19.673  0.00  0.00    +0.000 A 
ATOM     23  C   UNL     1       3.532   1.469  18.564  0.00  0.00    +0.000 A 
ATOM     24  C   UNL     1       2.536   2.026  17.749  0.00  0.00    +0.000 A 
ATOM     25  C   UNL     1       2.008   3.288  18.035  0.00  0.00    +0.000 A 
ATOM     26  F   UNL     1       1.094   3.803  17.200  0.00  0.00    +0.000 F 
ENDBRANCH  19  20
ENDBRANCH   1  19
TORSDOF 2
ENDMDL
MODEL 7
REMARK VINA RESULT:      -7.0      2.776      6.792
REMARK  Name = 
REMARK  2 active torsions:
REMARK  status: ('A' for Active; 'I' for Inactive)
REMARK    1  A    between atoms: C_2  and  C_3
REMARK    2  A    between atoms: C_2  and  C_19
REMARK                            x       y       z     vdW  Elec       q    Type
REMARK                         _______ _______ _______ _____ _____    ______ ____
ROOT
ATOM      1  C   UNL     1       0.865   6.972  20.860  0.00  0.00    +0.000 C 
ATOM      2  C   UNL     1       1.900   6.218  20.435  0.00  0.00    +0.000 C 
ATOM      3  N   UNL     1       3.183   6.753  20.209  0.00  0.00    +0.000 N 
ATOM      4  C   UNL     1       4.113   5.976  19.414  0.00  0.00    +0.000 C 
ATOM      5  C   UNL     1       3.305   5.432  18.215  0.00  0.00    +0.000 C 
ATOM      6  C   UNL     1       4.247   5.011  17.124  0.00  0.00    +0.000 A 
ATOM      7  C   UNL     1       5.176   5.961  16.643  0.00  0.00    +0.000 A 
ATOM      8  C   UNL     1       6.156   5.603  15.737  0.00  0.00    +0.000 A 
ATOM      9  C   UNL     1       6.186   4.303  15.246  0.00  0.00    +0.000 A 
ATOM     10  C   UNL     1       5.202   3.377  15.641  0.00  0.00    +0.000 A 
ATOM     11  C   UNL     1       4.226   3.731  16.580  0.00  0.00    +0.000 A 
ATOM     12  C   UNL     1       3.072   2.820  16.913  0.00  0.00    +0.000 C 
ATOM     13  C   UNL     1       2.477   3.041  18.317  0.00  0.00    +0.000 C 
ATOM     14  N   UNL     1       2.358   4.431  18.738  0.00  0.00    +0.000 N 
ATOM     15  C   UNL     1       1.641   4.769  19.932  0.00  0.00    +0.000 C 
ATOM     16  O   UNL     1       0.879   4.008  20.514  0.00  0.00    +0.000 OA
ATOM     17  H   UNL     1       3.074   7.699  19.818  0.00  0.00    +0.000 HD
ENDROOT
BRANCH   1  19
ATOM     18  O   UNL     1       1.514   8.688  19.394  0.00  0.00    +0.000 OA
ATOM     19  C   UNL     1       0.986   8.405  20.477  0.00  0.00    +0.000 C 
BRANCH  19  20
ATOM     20  C   UNL     1       0.480   9.552  21.263  0.00  0.00    +0.000 A 
ATOM     21  C   UNL     1      -0.226   9.237  22.445  0.00  0.00    +0.000 A 
ATOM     22  C   UNL     1      -0.890  10.218  23.178  0.00  0.00    +0.000 A 
ATOM     23  C   UNL     1      -0.860  11.536  22.738  0.00  0.00    +0.000 A 
ATOM     24  C   UNL     1      -0.152  11.866  21.574  0.00  0.00    +0.000 A 
ATOM     25  C   UNL     1       0.513  10.876  20.844  0.00  0.00    +0.000 A 
ATOM     26  F   UNL     1       1.135  11.229  19.710  0.00  0.00    +0.000 F 
ENDBRANCH  19  20
ENDBRANCH   1  19
TORSDOF 2
ENDMDL
MODEL 8
REMARK VINA RESULT:      -6.9      6.524      9.557
REMARK  Name = 
REMARK  2 active torsions:
REMARK  status: ('A' for Active; 'I' for Inactive)
REMARK    1  A    between atoms: C_2  and  C_3
REMARK    2  A    between atoms: C_2  and  C_19
REMARK                            x       y       z     vdW  Elec       q    Type
REMARK                         _______ _______ _______ _____ _____    ______ ____
ROOT
ATOM      1  C   UNL     1      -1.602  11.631  18.512  0.00  0.00    +0.000 C 
ATOM      2  C   UNL     1      -2.708  12.298  18.904  0.00  0.00    +0.000 C 
ATOM      3  N   UNL     1      -2.662  13.373  19.812  0.00  0.00    +0.000 N 
ATOM      4  C   UNL     1      -3.898  13.775  20.452  0.00  0.00    +0.000 C 
ATOM      5  C   UNL     1      -4.611  12.471  20.871  0.00  0.00    +0.000 C 
ATOM      6  C   UNL     1      -5.644  12.776  21.917  0.00  0.00    +0.000 A 
ATOM      7  C   UNL     1      -5.229  13.453  23.085  0.00  0.00    +0.000 A 
ATOM      8  C   UNL     1      -6.148  13.882  24.024  0.00  0.00    +0.000 A 
ATOM      9  C   UNL     1      -7.494  13.585  23.844  0.00  0.00    +0.000 A 
ATOM     10  C   UNL     1      -7.905  12.820  22.734  0.00  0.00    +0.000 A 
ATOM     11  C   UNL     1      -6.979  12.411  21.769  0.00  0.00    +0.000 A 
ATOM     12  C   UNL     1      -7.353  11.469  20.653  0.00  0.00    +0.000 C 
ATOM     13  C   UNL     1      -6.474  11.598  19.394  0.00  0.00    +0.000 C 
ATOM     14  N   UNL     1      -5.051  11.792  19.639  0.00  0.00    +0.000 N 
ATOM     15  C   UNL     1      -4.113  11.727  18.557  0.00  0.00    +0.000 C 
ATOM     16  O   UNL     1      -4.367  11.258  17.455  0.00  0.00    +0.000 OA
ATOM     17  H   UNL     1      -1.937  13.171  20.514  0.00  0.00    +0.000 HD
ENDROOT
BRANCH   1  19
ATOM     18  O   UNL     1       0.327  12.589  19.449  0.00  0.00    +0.000 OA
ATOM     19  C   UNL     1      -0.504  11.675  19.516  0.00  0.00    +0.000 C 
BRANCH  19  20
ATOM     20  C   UNL     1      -0.334  10.735  20.647  0.00  0.00    +0.000 A 
ATOM     21  C   UNL     1      -0.896  11.133  21.879  0.00  0.00    +0.000 A 
ATOM     22  C   UNL     1      -0.660  10.416  23.050  0.00  0.00    +0.000 A 
ATOM     23  C   UNL     1       0.146   9.285  23.008  0.00  0.00    +0.000 A 
ATOM     24  C   UNL     1       0.700   8.870  21.788  0.00  0.00    +0.000 A 
ATOM     25  C   UNL     1       0.458   9.594  20.617  0.00  0.00    +0.000 A 
ATOM     26  F   UNL     1       1.049   9.190  19.483  0.00  0.00    +0.000 F 
ENDBRANCH  19  20
ENDBRANCH   1  19
TORSDOF 2
ENDMDL
MODEL 9
REMARK VINA RESULT:      -6.9      1.086      1.448
REMARK  Name = 
REMARK  2 active torsions:
REMARK  status: ('A' for Active; 'I' for Inactive)
REMARK    1  A    between atoms: C_2  and  C_3
REMARK    2  A    between atoms: C_2  and  C_19
REMARK                            x       y       z     vdW  Elec       q    Type
REMARK                         _______ _______ _______ _____ _____    ______ ____
ROOT
ATOM      1  C   UNL     1       4.660   4.101  18.906  0.00  0.00    +0.000 C 
ATOM      2  C   UNL     1       3.518   4.817  18.853  0.00  0.00    +0.000 C 
ATOM      3  N   UNL     1       3.111   5.510  17.696  0.00  0.00    +0.000 N 
ATOM      4  C   UNL     1       2.095   6.534  17.840  0.00  0.00    +0.000 C 
ATOM      5  C   UNL     1       2.469   7.339  19.104  0.00  0.00    +0.000 C 
ATOM      6  C   UNL     1       1.764   8.665  19.083  0.00  0.00    +0.000 A 
ATOM      7  C   UNL     1       1.943   9.495  17.955  0.00  0.00    +0.000 A 
ATOM      8  C   UNL     1       1.221  10.666  17.811  0.00  0.00    +0.000 A 
ATOM      9  C   UNL     1       0.353  11.058  18.823  0.00  0.00    +0.000 A 
ATOM     10  C   UNL     1       0.246  10.289  19.998  0.00  0.00    +0.000 A 
ATOM     11  C   UNL     1       0.955   9.090  20.132  0.00  0.00    +0.000 A 
ATOM     12  C   UNL     1       0.982   8.319  21.427  0.00  0.00    +0.000 C 
ATOM     13  C   UNL     1       1.251   6.811  21.261  0.00  0.00    +0.000 C 
ATOM     14  N   UNL     1       2.257   6.459  20.267  0.00  0.00    +0.000 N 
ATOM     15  C   UNL     1       2.734   5.111  20.164  0.00  0.00    +0.000 C 
ATOM     16  O   UNL     1       2.563   4.255  21.022  0.00  0.00    +0.000 OA
ATOM     17  H   UNL     1       3.950   5.893  17.239  0.00  0.00    +0.000 HD
ENDROOT
BRANCH   1  19
ATOM     18  O   UNL     1       5.894   3.953  16.913  0.00  0.00    +0.000 OA
ATOM     19  C   UNL     1       5.700   4.586  17.958  0.00  0.00    +0.000 C 
BRANCH  19  20
ATOM     20  C   UNL     1       6.513   5.812  18.125  0.00  0.00    +0.000 A 
ATOM     21  C   UNL     1       6.337   6.816  17.148  0.00  0.00    +0.000 A 
ATOM     22  C   UNL     1       7.160   7.938  17.103  0.00  0.00    +0.000 A 
ATOM     23  C   UNL     1       8.179   8.076  18.039  0.00  0.00    +0.000 A 
ATOM     24  C   UNL     1       8.356   7.093  19.024  0.00  0.00    +0.000 A 
ATOM     25  C   UNL     1       7.526   5.970  19.063  0.00  0.00    +0.000 A 
ATOM     26  F   UNL     1       7.764   5.031  19.990  0.00  0.00    +0.000 F 
ENDBRANCH  19  20
ENDBRANCH   1  19
TORSDOF 2
ENDMDL
