MODEL 1
REMARK VINA RESULT:      -7.1      0.000      0.000
REMARK  Name = 
REMARK  4 active torsions:
REMARK  status: ('A' for Active; 'I' for Inactive)
REMARK    1  A    between atoms: C_2  and  O_3
REMARK    2  A    between atoms: C_2  and  C_4
REMARK    3  A    between atoms: N_6  and  C_7
REMARK    4  A    between atoms: C_11  and  C_12
REMARK                            x       y       z     vdW  Elec       q    Type
REMARK                         _______ _______ _______ _____ _____    ______ ____
ROOT
ATOM      1  C   UNL     1       2.735   5.395  18.521  0.00  0.00    +0.000 A 
ATOM      2  C   UNL     1       2.319   6.727  18.483  0.00  0.00    +0.000 A 
ATOM      3  C   UNL     1       3.052   7.680  17.781  0.00  0.00    +0.000 A 
ATOM      4  C   UNL     1       4.209   7.310  17.100  0.00  0.00    +0.000 A 
ATOM      5  C   UNL     1       4.656   5.982  17.123  0.00  0.00    +0.000 A 
ATOM      6  C   UNL     1       3.914   5.032  17.855  0.00  0.00    +0.000 A 
ENDROOT
BRANCH   5   7
ATOM      7  C   UNL     1       5.850   5.565  16.386  0.00  0.00    +0.000 A 
ATOM      8  N   UNL     1       6.255   5.981  15.200  0.00  0.00    +0.000 NA
ATOM      9  N   UNL     1       7.431   5.328  14.930  0.00  0.00    +0.000 NA
ATOM     10  N   UNL     1       7.759   4.516  15.922  0.00  0.00    +0.000 NA
ATOM     11  N   UNL     1       6.782   4.659  16.824  0.00  0.00    +0.000 N 
ATOM     12  H   UNL     1       6.822   4.128  17.684  0.00  0.00    +0.000 HD
ENDBRANCH   5   7
BRANCH   1  15
ATOM     13  C   UNL     1       2.008   4.219  20.585  0.00  0.00    +0.000 C 
ATOM     14  O   UNL     1       2.519   4.900  21.470  0.00  0.00    +0.000 OA
ATOM     15  N   UNL     1       2.017   4.400  19.217  0.00  0.00    +0.000 N 
ATOM     16  H   UNL     1       1.405   3.786  18.684  0.00  0.00    +0.000 HD
BRANCH  13  18
ATOM     17  O   UNL     1       1.425   2.413  22.087  0.00  0.00    +0.000 OA
ATOM     18  C   UNL     1       1.182   3.016  21.059  0.00  0.00    +0.000 C 
BRANCH  18  19
ATOM     19  O   UNL     1       0.193   2.745  20.185  0.00  0.00    +0.000 OA
ATOM     20  H   UNL     1      -0.599   3.283  20.433  0.00  0.00    +0.000 HD
ENDBRANCH  18  19
ENDBRANCH  13  18
ENDBRANCH   1  15
TORSDOF 4
ENDMDL
MODEL 2
REMARK VINA RESULT:      -7.0      2.200      2.724
REMARK  Name = 
REMARK  4 active torsions:
REMARK  status: ('A' for Active; 'I' for Inactive)
REMARK    1  A    between atoms: C_2  and  O_3
REMARK    2  A    between atoms: C_2  and  C_4
REMARK    3  A    between atoms: N_6  and  C_7
REMARK    4  A    between atoms: C_11  and  C_12
REMARK                            x       y       z     vdW  Elec       q    Type
REMARK                         _______ _______ _______ _____ _____    ______ ____
ROOT
ATOM      1  C   UNL     1       4.941   4.452  18.412  0.00  0.00    +0.000 A 
ATOM      2  C   UNL     1       5.819   5.108  19.276  0.00  0.00    +0.000 A 
ATOM      3  C   UNL     1       7.019   5.633  18.804  0.00  0.00    +0.000 A 
ATOM      4  C   UNL     1       7.353   5.517  17.458  0.00  0.00    +0.000 A 
ATOM      5  C   UNL     1       6.495   4.859  16.565  0.00  0.00    +0.000 A 
ATOM      6  C   UNL     1       5.293   4.314  17.061  0.00  0.00    +0.000 A 
ENDROOT
BRANCH   5   7
ATOM      7  C   UNL     1       6.810   4.754  15.140  0.00  0.00    +0.000 A 
ATOM      8  N   UNL     1       6.276   3.937  14.251  0.00  0.00    +0.000 NA
ATOM      9  N   UNL     1       6.870   4.215  13.047  0.00  0.00    +0.000 NA
ATOM     10  N   UNL     1       7.764   5.184  13.173  0.00  0.00    +0.000 NA
ATOM     11  N   UNL     1       7.729   5.518  14.468  0.00  0.00    +0.000 N 
ATOM     12  H   UNL     1       8.338   6.253  14.803  0.00  0.00    +0.000 HD
ENDBRANCH   5   7
BRANCH   1  15
ATOM     13  C   UNL     1       3.547   2.692  19.476  0.00  0.00    +0.000 C 
ATOM     14  O   UNL     1       4.390   1.885  19.858  0.00  0.00    +0.000 OA
ATOM     15  N   UNL     1       3.715   3.911  18.850  0.00  0.00    +0.000 N 
ATOM     16  H   UNL     1       2.875   4.478  18.752  0.00  0.00    +0.000 HD
BRANCH  13  18
ATOM     17  O   UNL     1       1.522   2.699  20.801  0.00  0.00    +0.000 OA
ATOM     18  C   UNL     1       2.088   2.336  19.788  0.00  0.00    +0.000 C 
BRANCH  18  19
ATOM     19  O   UNL     1       1.563   1.581  18.802  0.00  0.00    +0.000 OA
ATOM     20  H   UNL     1       1.756   2.020  17.937  0.00  0.00    +0.000 HD
ENDBRANCH  18  19
ENDBRANCH  13  18
ENDBRANCH   1  15
TORSDOF 4
ENDMDL
MODEL 3
REMARK VINA RESULT:      -7.0      4.705      6.575
REMARK  Name = 
REMARK  4 active torsions:
REMARK  status: ('A' for Active; 'I' for Inactive)
REMARK    1  A    between atoms: C_2  and  O_3
REMARK    2  A    between atoms: C_2  and  C_4
REMARK    3  A    between atoms: N_6  and  C_7
REMARK    4  A    between atoms: C_11  and  C_12
REMARK                            x       y       z     vdW  Elec       q    Type
REMARK                         _______ _______ _______ _____ _____    ______ ____
ROOT
ATOM      1  C   UNL     1       5.150   4.991  15.805  0.00  0.00    +0.000 A 
ATOM      2  C   UNL     1       4.992   6.359  16.029  0.00  0.00    +0.000 A 
ATOM      3  C   UNL     1       4.601   6.834  17.278  0.00  0.00    +0.000 A 
ATOM      4  C   UNL     1       4.370   5.944  18.324  0.00  0.00    +0.000 A 
ATOM      5  C   UNL     1       4.515   4.563  18.130  0.00  0.00    +0.000 A 
ATOM      6  C   UNL     1       4.892   4.096  16.854  0.00  0.00    +0.000 A 
ENDROOT
BRANCH   5   7
ATOM      7  C   UNL     1       4.311   3.612  19.224  0.00  0.00    +0.000 A 
ATOM      8  N   UNL     1       3.265   3.513  20.023  0.00  0.00    +0.000 NA
ATOM      9  N   UNL     1       3.514   2.468  20.876  0.00  0.00    +0.000 NA
ATOM     10  N   UNL     1       4.694   1.923  20.624  0.00  0.00    +0.000 NA
ATOM     11  N   UNL     1       5.189   2.630  19.602  0.00  0.00    +0.000 N 
ATOM     12  H   UNL     1       6.098   2.387  19.229  0.00  0.00    +0.000 HD
ENDBRANCH   5   7
BRANCH   1  15
ATOM     13  C   UNL     1       6.779   4.662  13.958  0.00  0.00    +0.000 C 
ATOM     14  O   UNL     1       7.785   5.216  14.393  0.00  0.00    +0.000 OA
ATOM     15  N   UNL     1       5.549   4.472  14.556  0.00  0.00    +0.000 N 
ATOM     16  H   UNL     1       4.906   3.858  14.061  0.00  0.00    +0.000 HD
BRANCH  13  18
ATOM     17  O   UNL     1       7.444   4.594  11.633  0.00  0.00    +0.000 OA
ATOM     18  C   UNL     1       6.913   4.027  12.569  0.00  0.00    +0.000 C 
BRANCH  18  19
ATOM     19  O   UNL     1       6.362   2.797  12.553  0.00  0.00    +0.000 OA
ATOM     20  H   UNL     1       7.087   2.132  12.448  0.00  0.00    +0.000 HD
ENDBRANCH  18  19
ENDBRANCH  13  18
ENDBRANCH   1  15
TORSDOF 4
ENDMDL
MODEL 4
REMARK VINA RESULT:      -7.0      2.033      2.602
REMARK  Name = 
REMARK  4 active torsions:
REMARK  status: ('A' for Active; 'I' for Inactive)
REMARK    1  A    between atoms: C_2  and  O_3
REMARK    2  A    between atoms: C_2  and  C_4
REMARK    3  A    between atoms: N_6  and  C_7
REMARK    4  A    between atoms: C_11  and  C_12
REMARK                            x       y       z     vdW  Elec       q    Type
REMARK                         _______ _______ _______ _____ _____    ______ ____
ROOT
ATOM      1  C   UNL     1       4.281   4.486  18.451  0.00  0.00    +0.000 A 
ATOM      2  C   UNL     1       5.152   4.940  19.442  0.00  0.00    +0.000 A 
ATOM      3  C   UNL     1       6.458   5.305  19.128  0.00  0.00    +0.000 A 
ATOM      4  C   UNL     1       6.908   5.230  17.812  0.00  0.00    +0.000 A 
ATOM      5  C   UNL     1       6.060   4.773  16.793  0.00  0.00    +0.000 A 
ATOM      6  C   UNL     1       4.747   4.386  17.131  0.00  0.00    +0.000 A 
ENDROOT
BRANCH   5   7
ATOM      7  C   UNL     1       6.502   4.717  15.399  0.00  0.00    +0.000 A 
ATOM      8  N   UNL     1       7.317   5.547  14.776  0.00  0.00    +0.000 NA
ATOM      9  N   UNL     1       7.452   5.083  13.492  0.00  0.00    +0.000 NA
ATOM     10  N   UNL     1       6.734   3.985  13.309  0.00  0.00    +0.000 NA
ATOM     11  N   UNL     1       6.144   3.758  14.488  0.00  0.00    +0.000 N 
ATOM     12  H   UNL     1       5.538   2.955  14.588  0.00  0.00    +0.000 HD
ENDBRANCH   5   7
BRANCH   1  15
ATOM     13  C   UNL     1       2.490   2.818  18.877  0.00  0.00    +0.000 C 
ATOM     14  O   UNL     1       3.114   1.760  18.891  0.00  0.00    +0.000 OA
ATOM     15  N   UNL     1       2.951   4.111  18.729  0.00  0.00    +0.000 N 
ATOM     16  H   UNL     1       2.266   4.846  18.891  0.00  0.00    +0.000 HD
BRANCH  13  18
ATOM     17  O   UNL     1       0.245   2.047  18.406  0.00  0.00    +0.000 OA
ATOM     18  C   UNL     1       0.979   2.707  19.116  0.00  0.00    +0.000 C 
BRANCH  18  19
ATOM     19  O   UNL     1       0.614   3.435  20.190  0.00  0.00    +0.000 OA
ATOM     20  H   UNL     1       0.935   4.362  20.062  0.00  0.00    +0.000 HD
ENDBRANCH  18  19
ENDBRANCH  13  18
ENDBRANCH   1  15
TORSDOF 4
ENDMDL
MODEL 5
REMARK VINA RESULT:      -7.0      1.134      1.441
REMARK  Name = 
REMARK  4 active torsions:
REMARK  status: ('A' for Active; 'I' for Inactive)
REMARK    1  A    between atoms: C_2  and  O_3
REMARK    2  A    between atoms: C_2  and  C_4
REMARK    3  A    between atoms: N_6  and  C_7
REMARK    4  A    between atoms: C_11  and  C_12
REMARK                            x       y       z     vdW  Elec       q    Type
REMARK                         _______ _______ _______ _____ _____    ______ ____
ROOT
ATOM      1  C   UNL     1       3.643   5.248  18.989  0.00  0.00    +0.000 A 
ATOM      2  C   UNL     1       2.987   6.478  18.930  0.00  0.00    +0.000 A 
ATOM      3  C   UNL     1       3.249   7.375  17.899  0.00  0.00    +0.000 A 
ATOM      4  C   UNL     1       4.168   7.049  16.904  0.00  0.00    +0.000 A 
ATOM      5  C   UNL     1       4.849   5.823  16.937  0.00  0.00    +0.000 A 
ATOM      6  C   UNL     1       4.587   4.934  18.000  0.00  0.00    +0.000 A 
ENDROOT
BRANCH   5   7
ATOM      7  C   UNL     1       5.794   5.446  15.885  0.00  0.00    +0.000 A 
ATOM      8  N   UNL     1       5.563   4.698  14.822  0.00  0.00    +0.000 NA
ATOM      9  N   UNL     1       6.738   4.637  14.117  0.00  0.00    +0.000 NA
ATOM     10  N   UNL     1       7.690   5.329  14.723  0.00  0.00    +0.000 NA
ATOM     11  N   UNL     1       7.108   5.830  15.819  0.00  0.00    +0.000 N 
ATOM     12  H   UNL     1       7.653   6.406  16.447  0.00  0.00    +0.000 HD
ENDBRANCH   5   7
BRANCH   1  15
ATOM     13  C   UNL     1       2.197   3.686  20.270  0.00  0.00    +0.000 C 
ATOM     14  O   UNL     1       1.144   3.728  19.641  0.00  0.00    +0.000 OA
ATOM     15  N   UNL     1       3.401   4.311  20.014  0.00  0.00    +0.000 N 
ATOM     16  H   UNL     1       4.185   4.018  20.595  0.00  0.00    +0.000 HD
BRANCH  13  18
ATOM     17  O   UNL     1       1.235   2.570  22.189  0.00  0.00    +0.000 OA
ATOM     18  C   UNL     1       2.213   2.757  21.490  0.00  0.00    +0.000 C 
BRANCH  18  19
ATOM     19  O   UNL     1       3.434   2.213  21.658  0.00  0.00    +0.000 OA
ATOM     20  H   UNL     1       3.989   2.445  20.873  0.00  0.00    +0.000 HD
ENDBRANCH  18  19
ENDBRANCH  13  18
ENDBRANCH   1  15
TORSDOF 4
ENDMDL
MODEL 6
REMARK VINA RESULT:      -6.9      2.472      3.145
REMARK  Name = 
REMARK  4 active torsions:
REMARK  status: ('A' for Active; 'I' for Inactive)
REMARK    1  A    between atoms: C_2  and  O_3
REMARK    2  A    between atoms: C_2  and  C_4
REMARK    3  A    between atoms: N_6  and  C_7
REMARK    4  A    between atoms: C_11  and  C_12
REMARK                            x       y       z     vdW  Elec       q    Type
REMARK                         _______ _______ _______ _____ _____    ______ ____
ROOT
ATOM      1  C   UNL     1       4.819   4.273  17.732  0.00  0.00    +0.000 A 
ATOM      2  C   UNL     1       5.842   4.619  18.615  0.00  0.00    +0.000 A 
ATOM      3  C   UNL     1       7.128   4.874  18.147  0.00  0.00    +0.000 A 
ATOM      4  C   UNL     1       7.406   4.795  16.785  0.00  0.00    +0.000 A 
ATOM      5  C   UNL     1       6.401   4.445  15.872  0.00  0.00    +0.000 A 
ATOM      6  C   UNL     1       5.109   4.169  16.363  0.00  0.00    +0.000 A 
ENDROOT
BRANCH   5   7
ATOM      7  C   UNL     1       6.663   4.388  14.433  0.00  0.00    +0.000 A 
ATOM      8  N   UNL     1       7.396   5.215  13.712  0.00  0.00    +0.000 NA
ATOM      9  N   UNL     1       7.366   4.750  12.421  0.00  0.00    +0.000 NA
ATOM     10  N   UNL     1       6.626   3.656  12.330  0.00  0.00    +0.000 NA
ATOM     11  N   UNL     1       6.189   3.430  13.574  0.00  0.00    +0.000 N 
ATOM     12  H   UNL     1       5.597   2.630  13.750  0.00  0.00    +0.000 HD
ENDBRANCH   5   7
BRANCH   1  15
ATOM     13  C   UNL     1       2.999   2.776  18.519  0.00  0.00    +0.000 C 
ATOM     14  O   UNL     1       3.573   1.695  18.619  0.00  0.00    +0.000 OA
ATOM     15  N   UNL     1       3.504   4.012  18.166  0.00  0.00    +0.000 N 
ATOM     16  H   UNL     1       2.870   4.800  18.288  0.00  0.00    +0.000 HD
BRANCH  13  18
ATOM     17  O   UNL     1       0.982   3.715  19.470  0.00  0.00    +0.000 OA
ATOM     18  C   UNL     1       1.513   2.783  18.896  0.00  0.00    +0.000 C 
BRANCH  18  19
ATOM     19  O   UNL     1       0.920   1.635  18.512  0.00  0.00    +0.000 OA
ATOM     20  H   UNL     1      -0.026   1.661  18.800  0.00  0.00    +0.000 HD
ENDBRANCH  18  19
ENDBRANCH  13  18
ENDBRANCH   1  15
TORSDOF 4
ENDMDL
MODEL 7
REMARK VINA RESULT:      -6.9      0.975      1.094
REMARK  Name = 
REMARK  4 active torsions:
REMARK  status: ('A' for Active; 'I' for Inactive)
REMARK    1  A    between atoms: C_2  and  O_3
REMARK    2  A    between atoms: C_2  and  C_4
REMARK    3  A    between atoms: N_6  and  C_7
REMARK    4  A    between atoms: C_11  and  C_12
REMARK                            x       y       z     vdW  Elec       q    Type
REMARK                         _______ _______ _______ _____ _____    ______ ____
ROOT
ATOM      1  C   UNL     1       3.372   5.526  19.183  0.00  0.00    +0.000 A 
ATOM      2  C   UNL     1       2.693   6.726  18.966  0.00  0.00    +0.000 A 
ATOM      3  C   UNL     1       3.059   7.571  17.923  0.00  0.00    +0.000 A 
ATOM      4  C   UNL     1       4.106   7.222  17.074  0.00  0.00    +0.000 A 
ATOM      5  C   UNL     1       4.813   6.026  17.268  0.00  0.00    +0.000 A 
ATOM      6  C   UNL     1       4.444   5.191  18.342  0.00  0.00    +0.000 A 
ENDROOT
BRANCH   5   7
ATOM      7  C   UNL     1       5.895   5.625  16.368  0.00  0.00    +0.000 A 
ATOM      8  N   UNL     1       6.117   6.039  15.135  0.00  0.00    +0.000 NA
ATOM      9  N   UNL     1       7.252   5.404  14.700  0.00  0.00    +0.000 NA
ATOM     10  N   UNL     1       7.734   4.603  15.637  0.00  0.00    +0.000 NA
ATOM     11  N   UNL     1       6.894   4.737  16.671  0.00  0.00    +0.000 N 
ATOM     12  H   UNL     1       7.068   4.211  17.517  0.00  0.00    +0.000 HD
ENDBRANCH   5   7
BRANCH   1  15
ATOM     13  C   UNL     1       2.268   3.497  20.097  0.00  0.00    +0.000 C 
ATOM     14  O   UNL     1       1.819   2.965  19.086  0.00  0.00    +0.000 OA
ATOM     15  N   UNL     1       3.029   4.642  20.226  0.00  0.00    +0.000 N 
ATOM     16  H   UNL     1       3.410   4.819  21.154  0.00  0.00    +0.000 HD
BRANCH  13  18
ATOM     17  O   UNL     1       2.898   2.356  22.136  0.00  0.00    +0.000 OA
ATOM     18  C   UNL     1       2.005   2.760  21.416  0.00  0.00    +0.000 C 
BRANCH  18  19
ATOM     19  O   UNL     1       0.681   2.633  21.633  0.00  0.00    +0.000 OA
ATOM     20  H   UNL     1       0.245   3.494  21.413  0.00  0.00    +0.000 HD
ENDBRANCH  18  19
ENDBRANCH  13  18
ENDBRANCH   1  15
TORSDOF 4
ENDMDL
MODEL 8
REMARK VINA RESULT:      -6.9      2.118      2.594
REMARK  Name = 
REMARK  4 active torsions:
REMARK  status: ('A' for Active; 'I' for Inactive)
REMARK    1  A    between atoms: C_2  and  O_3
REMARK    2  A    between atoms: C_2  and  C_4
REMARK    3  A    between atoms: N_6  and  C_7
REMARK    4  A    between atoms: C_11  and  C_12
REMARK                            x       y       z     vdW  Elec       q    Type
REMARK                         _______ _______ _______ _____ _____    ______ ____
ROOT
ATOM      1  C   UNL     1       4.026   4.591  17.480  0.00  0.00    +0.000 A 
ATOM      2  C   UNL     1       4.130   5.874  18.018  0.00  0.00    +0.000 A 
ATOM      3  C   UNL     1       4.942   6.833  17.418  0.00  0.00    +0.000 A 
ATOM      4  C   UNL     1       5.654   6.522  16.262  0.00  0.00    +0.000 A 
ATOM      5  C   UNL     1       5.575   5.240  15.699  0.00  0.00    +0.000 A 
ATOM      6  C   UNL     1       4.766   4.274  16.331  0.00  0.00    +0.000 A 
ENDROOT
BRANCH   5   7
ATOM      7  C   UNL     1       6.289   4.902  14.467  0.00  0.00    +0.000 A 
ATOM      8  N   UNL     1       7.424   5.412  14.025  0.00  0.00    +0.000 NA
ATOM      9  N   UNL     1       7.712   4.775  12.844  0.00  0.00    +0.000 NA
ATOM     10  N   UNL     1       6.778   3.885  12.547  0.00  0.00    +0.000 NA
ATOM     11  N   UNL     1       5.895   3.964  13.549  0.00  0.00    +0.000 N 
ATOM     12  H   UNL     1       5.082   3.362  13.537  0.00  0.00    +0.000 HD
ENDBRANCH   5   7
BRANCH   1  15
ATOM     13  C   UNL     1       1.841   3.497  17.929  0.00  0.00    +0.000 C 
ATOM     14  O   UNL     1       1.069   4.164  17.246  0.00  0.00    +0.000 OA
ATOM     15  N   UNL     1       3.213   3.595  18.057  0.00  0.00    +0.000 N 
ATOM     16  H   UNL     1       3.664   2.842  18.573  0.00  0.00    +0.000 HD
BRANCH  13  18
ATOM     17  O   UNL     1       0.104   2.408  19.213  0.00  0.00    +0.000 OA
ATOM     18  C   UNL     1       1.212   2.342  18.717  0.00  0.00    +0.000 C 
BRANCH  18  19
ATOM     19  O   UNL     1       2.054   1.291  18.773  0.00  0.00    +0.000 OA
ATOM     20  H   UNL     1       2.321   1.055  17.850  0.00  0.00    +0.000 HD
ENDBRANCH  18  19
ENDBRANCH  13  18
ENDBRANCH   1  15
TORSDOF 4
ENDMDL
MODEL 9
REMARK VINA RESULT:      -6.9      2.242      2.675
REMARK  Name = 
REMARK  4 active torsions:
REMARK  status: ('A' for Active; 'I' for Inactive)
REMARK    1  A    between atoms: C_2  and  O_3
REMARK    2  A    between atoms: C_2  and  C_4
REMARK    3  A    between atoms: N_6  and  C_7
REMARK    4  A    between atoms: C_11  and  C_12
REMARK                            x       y       z     vdW  Elec       q    Type
REMARK                         _______ _______ _______ _____ _____    ______ ____
ROOT
ATOM      1  C   UNL     1       4.887   4.052  18.220  0.00  0.00    +0.000 A 
ATOM      2  C   UNL     1       5.616   4.832  19.119  0.00  0.00    +0.000 A 
ATOM      3  C   UNL     1       6.727   5.555  18.693  0.00  0.00    +0.000 A 
ATOM      4  C   UNL     1       7.119   5.514  17.358  0.00  0.00    +0.000 A 
ATOM      5  C   UNL     1       6.411   4.736  16.430  0.00  0.00    +0.000 A 
ATOM      6  C   UNL     1       5.301   3.993  16.881  0.00  0.00    +0.000 A 
ENDROOT
BRANCH   5   7
ATOM      7  C   UNL     1       6.786   4.705  15.016  0.00  0.00    +0.000 A 
ATOM      8  N   UNL     1       6.299   3.925  14.068  0.00  0.00    +0.000 NA
ATOM      9  N   UNL     1       6.938   4.269  12.904  0.00  0.00    +0.000 NA
ATOM     10  N   UNL     1       7.812   5.241  13.113  0.00  0.00    +0.000 NA
ATOM     11  N   UNL     1       7.720   5.512  14.421  0.00  0.00    +0.000 N 
ATOM     12  H   UNL     1       8.304   6.237  14.816  0.00  0.00    +0.000 HD
ENDBRANCH   5   7
BRANCH   1  15
ATOM     13  C   UNL     1       2.479   3.811  18.779  0.00  0.00    +0.000 C 
ATOM     14  O   UNL     1       2.042   4.935  18.550  0.00  0.00    +0.000 OA
ATOM     15  N   UNL     1       3.754   3.310  18.611  0.00  0.00    +0.000 N 
ATOM     16  H   UNL     1       3.855   2.304  18.734  0.00  0.00    +0.000 HD
BRANCH  13  18
ATOM     17  O   UNL     1       0.721   2.981  20.220  0.00  0.00    +0.000 OA
ATOM     18  C   UNL     1       1.453   2.781  19.270  0.00  0.00    +0.000 C 
BRANCH  18  19
ATOM     19  O   UNL     1       1.501   1.667  18.514  0.00  0.00    +0.000 OA
ATOM     20  H   UNL     1       1.673   0.894  19.107  0.00  0.00    +0.000 HD
ENDBRANCH  18  19
ENDBRANCH  13  18
ENDBRANCH   1  15
TORSDOF 4
ENDMDL
