MODEL 1
REMARK VINA RESULT:      -7.5      0.000      0.000
REMARK  Name = 
REMARK  3 active torsions:
REMARK  status: ('A' for Active; 'I' for Inactive)
REMARK    1  A    between atoms: C_1  and  N_2
REMARK    2  A    between atoms: C_10  and  C_12
REMARK    3  A    between atoms: C_15  and  S_16
REMARK                            x       y       z     vdW  Elec       q    Type
REMARK                         _______ _______ _______ _____ _____    ______ ____
ROOT
ATOM      1  C   UNL     1       3.888   0.952  18.833  0.00  0.00    +0.000 C 
ATOM      2  N   UNL     1       3.252   2.258  18.878  0.00  0.00    +0.000 NA
ATOM      3  C   UNL     1       4.031   3.259  19.608  0.00  0.00    +0.000 C 
ATOM      4  C   UNL     1       5.103   3.947  18.776  0.00  0.00    +0.000 C 
ATOM      5  C   UNL     1       4.538   4.597  17.496  0.00  0.00    +0.000 C 
ATOM      6  C   UNL     1       5.780   5.013  16.627  0.00  0.00    +0.000 C 
ATOM      7  C   UNL     1       5.605   6.482  16.297  0.00  0.00    +0.000 C 
ATOM      8  C   UNL     1       4.753   6.999  17.416  0.00  0.00    +0.000 C 
ATOM      9  N   UNL     1       3.850   5.926  17.753  0.00  0.00    +0.000 N 
ATOM     10  C   UNL     1       2.583   6.168  18.306  0.00  0.00    +0.000 C 
ATOM     11  O   UNL     1       1.733   5.298  18.463  0.00  0.00    +0.000 OA
ATOM     12  C   UNL     1       3.767   3.511  16.723  0.00  0.00    +0.000 C 
ATOM     13  C   UNL     1       2.775   2.705  17.565  0.00  0.00    +0.000 C 
ENDROOT
BRANCH  10  14
ATOM     14  C   UNL     1       2.169   7.559  18.777  0.00  0.00    +0.000 A 
ATOM     15  C   UNL     1       1.892   8.556  17.814  0.00  0.00    +0.000 A 
ATOM     16  C   UNL     1       1.254   9.759  18.173  0.00  0.00    +0.000 A 
ATOM     17  C   UNL     1       0.892   9.969  19.505  0.00  0.00    +0.000 A 
ATOM     18  C   UNL     1       1.244   9.051  20.485  0.00  0.00    +0.000 A 
ATOM     19  C   UNL     1       1.860   7.853  20.114  0.00  0.00    +0.000 A 
BRANCH  17  20
ATOM     20  S   UNL     1      -0.219  11.283  19.930  0.00  0.00    +0.000 S 
ATOM     21  O   UNL     1      -0.355  11.319  21.363  0.00  0.00    +0.000 OA
ATOM     22  O   UNL     1       0.163  12.449  19.158  0.00  0.00    +0.000 OA
ATOM     23  F   UNL     1      -1.646  10.849  19.389  0.00  0.00    +0.000 F 
ENDBRANCH  17  20
ENDBRANCH  10  14
TORSDOF 2
ENDMDL
MODEL 2
REMARK VINA RESULT:      -7.4      4.136      7.899
REMARK  Name = 
REMARK  3 active torsions:
REMARK  status: ('A' for Active; 'I' for Inactive)
REMARK    1  A    between atoms: C_1  and  N_2
REMARK    2  A    between atoms: C_10  and  C_12
REMARK    3  A    between atoms: C_15  and  S_16
REMARK                            x       y       z     vdW  Elec       q    Type
REMARK                         _______ _______ _______ _____ _____    ______ ____
ROOT
ATOM      1  C   UNL     1       0.067  14.195  18.835  0.00  0.00    +0.000 C 
ATOM      2  N   UNL     1       0.497  12.840  18.535  0.00  0.00    +0.000 NA
ATOM      3  C   UNL     1       1.649  12.407  19.327  0.00  0.00    +0.000 C 
ATOM      4  C   UNL     1       1.294  11.858  20.701  0.00  0.00    +0.000 C 
ATOM      5  C   UNL     1       0.276  10.700  20.635  0.00  0.00    +0.000 C 
ATOM      6  C   UNL     1      -0.189  10.437  22.114  0.00  0.00    +0.000 C 
ATOM      7  C   UNL     1       0.024   8.960  22.377  0.00  0.00    +0.000 C 
ATOM      8  C   UNL     1       1.119   8.582  21.426  0.00  0.00    +0.000 C 
ATOM      9  N   UNL     1       0.902   9.375  20.240  0.00  0.00    +0.000 N 
ATOM     10  C   UNL     1       1.315   8.940  18.971  0.00  0.00    +0.000 C 
ATOM     11  O   UNL     1       1.016   9.510  17.928  0.00  0.00    +0.000 OA
ATOM     12  C   UNL     1      -0.945  11.199  19.840  0.00  0.00    +0.000 C 
ATOM     13  C   UNL     1      -0.613  11.882  18.512  0.00  0.00    +0.000 C 
ENDROOT
BRANCH  10  14
ATOM     14  C   UNL     1       2.200   7.709  18.797  0.00  0.00    +0.000 A 
ATOM     15  C   UNL     1       3.212   7.725  17.810  0.00  0.00    +0.000 A 
ATOM     16  C   UNL     1       4.220   6.743  17.784  0.00  0.00    +0.000 A 
ATOM     17  C   UNL     1       4.217   5.734  18.750  0.00  0.00    +0.000 A 
ATOM     18  C   UNL     1       3.178   5.639  19.667  0.00  0.00    +0.000 A 
ATOM     19  C   UNL     1       2.193   6.630  19.695  0.00  0.00    +0.000 A 
BRANCH  17  20
ATOM     20  S   UNL     1       5.645   4.709  18.973  0.00  0.00    +0.000 S 
ATOM     21  O   UNL     1       6.628   5.454  19.716  0.00  0.00    +0.000 OA
ATOM     22  O   UNL     1       5.185   3.400  19.393  0.00  0.00    +0.000 OA
ATOM     23  F   UNL     1       6.277   4.509  17.533  0.00  0.00    +0.000 F 
ENDBRANCH  17  20
ENDBRANCH  10  14
TORSDOF 2
ENDMDL
MODEL 3
REMARK VINA RESULT:      -7.1      4.027      8.035
REMARK  Name = 
REMARK  3 active torsions:
REMARK  status: ('A' for Active; 'I' for Inactive)
REMARK    1  A    between atoms: C_1  and  N_2
REMARK    2  A    between atoms: C_10  and  C_12
REMARK    3  A    between atoms: C_15  and  S_16
REMARK                            x       y       z     vdW  Elec       q    Type
REMARK                         _______ _______ _______ _____ _____    ______ ____
ROOT
ATOM      1  C   UNL     1      -0.313  14.261  18.698  0.00  0.00    +0.000 C 
ATOM      2  N   UNL     1       0.213  12.926  18.467  0.00  0.00    +0.000 NA
ATOM      3  C   UNL     1       1.389  12.614  19.280  0.00  0.00    +0.000 C 
ATOM      4  C   UNL     1       1.068  12.112  20.680  0.00  0.00    +0.000 C 
ATOM      5  C   UNL     1       0.133  10.883  20.672  0.00  0.00    +0.000 C 
ATOM      6  C   UNL     1      -0.318  10.663  22.162  0.00  0.00    +0.000 C 
ATOM      7  C   UNL     1      -0.004   9.219  22.499  0.00  0.00    +0.000 C 
ATOM      8  C   UNL     1       1.118   8.872  21.568  0.00  0.00    +0.000 C 
ATOM      9  N   UNL     1       0.851   9.587  20.345  0.00  0.00    +0.000 N 
ATOM     10  C   UNL     1       1.299   9.120  19.099  0.00  0.00    +0.000 C 
ATOM     11  O   UNL     1       0.965   9.614  18.028  0.00  0.00    +0.000 OA
ATOM     12  C   UNL     1      -1.117  11.255  19.852  0.00  0.00    +0.000 C 
ATOM     13  C   UNL     1      -0.828  11.892  18.491  0.00  0.00    +0.000 C 
ENDROOT
BRANCH  10  14
ATOM     14  C   UNL     1       2.269   7.946  18.988  0.00  0.00    +0.000 A 
ATOM     15  C   UNL     1       2.178   6.889  19.920  0.00  0.00    +0.000 A 
ATOM     16  C   UNL     1       2.853   5.671  19.711  0.00  0.00    +0.000 A 
ATOM     17  C   UNL     1       3.628   5.509  18.561  0.00  0.00    +0.000 A 
ATOM     18  C   UNL     1       3.815   6.567  17.682  0.00  0.00    +0.000 A 
ATOM     19  C   UNL     1       3.126   7.765  17.891  0.00  0.00    +0.000 A 
BRANCH  17  20
ATOM     20  S   UNL     1       4.188   3.897  18.083  0.00  0.00    +0.000 S 
ATOM     21  O   UNL     1       5.067   3.397  19.109  0.00  0.00    +0.000 OA
ATOM     22  O   UNL     1       3.035   3.151  17.620  0.00  0.00    +0.000 OA
ATOM     23  F   UNL     1       5.113   4.107  16.812  0.00  0.00    +0.000 F 
ENDBRANCH  17  20
ENDBRANCH  10  14
TORSDOF 2
ENDMDL
MODEL 4
REMARK VINA RESULT:      -7.1      1.504      3.045
REMARK  Name = 
REMARK  3 active torsions:
REMARK  status: ('A' for Active; 'I' for Inactive)
REMARK    1  A    between atoms: C_1  and  N_2
REMARK    2  A    between atoms: C_10  and  C_12
REMARK    3  A    between atoms: C_15  and  S_16
REMARK                            x       y       z     vdW  Elec       q    Type
REMARK                         _______ _______ _______ _____ _____    ______ ____
ROOT
ATOM      1  C   UNL     1       7.354   4.294  16.038  0.00  0.00    +0.000 C 
ATOM      2  N   UNL     1       6.472   5.117  16.850  0.00  0.00    +0.000 NA
ATOM      3  C   UNL     1       5.252   5.525  16.153  0.00  0.00    +0.000 C 
ATOM      4  C   UNL     1       4.131   4.497  16.197  0.00  0.00    +0.000 C 
ATOM      5  C   UNL     1       3.762   4.080  17.637  0.00  0.00    +0.000 C 
ATOM      6  C   UNL     1       2.808   2.839  17.506  0.00  0.00    +0.000 C 
ATOM      7  C   UNL     1       1.563   3.164  18.307  0.00  0.00    +0.000 C 
ATOM      8  C   UNL     1       1.517   4.662  18.301  0.00  0.00    +0.000 C 
ATOM      9  N   UNL     1       2.891   5.099  18.349  0.00  0.00    +0.000 N 
ATOM     10  C   UNL     1       3.258   6.330  18.915  0.00  0.00    +0.000 C 
ATOM     11  O   UNL     1       4.421   6.667  19.111  0.00  0.00    +0.000 OA
ATOM     12  C   UNL     1       5.054   3.610  18.331  0.00  0.00    +0.000 C 
ATOM     13  C   UNL     1       6.245   4.560  18.188  0.00  0.00    +0.000 C 
ENDROOT
BRANCH  10  14
ATOM     14  C   UNL     1       2.214   7.367  19.319  0.00  0.00    +0.000 A 
ATOM     15  C   UNL     1       1.703   7.350  20.636  0.00  0.00    +0.000 A 
ATOM     16  C   UNL     1       0.953   8.429  21.142  0.00  0.00    +0.000 A 
ATOM     17  C   UNL     1       0.709   9.534  20.324  0.00  0.00    +0.000 A 
ATOM     18  C   UNL     1       1.114   9.531  18.996  0.00  0.00    +0.000 A 
ATOM     19  C   UNL     1       1.873   8.463  18.511  0.00  0.00    +0.000 A 
BRANCH  17  20
ATOM     20  S   UNL     1       0.096  11.043  21.023  0.00  0.00    +0.000 S 
ATOM     21  O   UNL     1      -0.893  10.716  22.016  0.00  0.00    +0.000 OA
ATOM     22  O   UNL     1       1.238  11.887  21.316  0.00  0.00    +0.000 OA
ATOM     23  F   UNL     1      -0.703  11.775  19.866  0.00  0.00    +0.000 F 
ENDBRANCH  17  20
ENDBRANCH  10  14
TORSDOF 2
ENDMDL
MODEL 5
REMARK VINA RESULT:      -7.0      1.407      3.062
REMARK  Name = 
REMARK  3 active torsions:
REMARK  status: ('A' for Active; 'I' for Inactive)
REMARK    1  A    between atoms: C_1  and  N_2
REMARK    2  A    between atoms: C_10  and  C_12
REMARK    3  A    between atoms: C_15  and  S_16
REMARK                            x       y       z     vdW  Elec       q    Type
REMARK                         _______ _______ _______ _____ _____    ______ ____
ROOT
ATOM      1  C   UNL     1       7.136   4.376  15.016  0.00  0.00    +0.000 C 
ATOM      2  N   UNL     1       6.278   5.325  15.705  0.00  0.00    +0.000 NA
ATOM      3  C   UNL     1       4.852   5.028  15.568  0.00  0.00    +0.000 C 
ATOM      4  C   UNL     1       4.324   4.012  16.570  0.00  0.00    +0.000 C 
ATOM      5  C   UNL     1       4.607   4.416  18.033  0.00  0.00    +0.000 C 
ATOM      6  C   UNL     1       4.258   3.161  18.913  0.00  0.00    +0.000 C 
ATOM      7  C   UNL     1       3.290   3.634  19.978  0.00  0.00    +0.000 C 
ATOM      8  C   UNL     1       2.631   4.828  19.355  0.00  0.00    +0.000 C 
ATOM      9  N   UNL     1       3.648   5.469  18.558  0.00  0.00    +0.000 N 
ATOM     10  C   UNL     1       3.624   6.848  18.295  0.00  0.00    +0.000 C 
ATOM     11  O   UNL     1       4.544   7.451  17.755  0.00  0.00    +0.000 OA
ATOM     12  C   UNL     1       6.120   4.675  18.161  0.00  0.00    +0.000 C 
ATOM     13  C   UNL     1       6.710   5.587  17.083  0.00  0.00    +0.000 C 
ENDROOT
BRANCH  10  14
ATOM     14  C   UNL     1       2.417   7.710  18.655  0.00  0.00    +0.000 A 
ATOM     15  C   UNL     1       1.999   7.777  20.003  0.00  0.00    +0.000 A 
ATOM     16  C   UNL     1       1.078   8.750  20.433  0.00  0.00    +0.000 A 
ATOM     17  C   UNL     1       0.567   9.663  19.508  0.00  0.00    +0.000 A 
ATOM     18  C   UNL     1       0.884   9.554  18.161  0.00  0.00    +0.000 A 
ATOM     19  C   UNL     1       1.813   8.596  17.749  0.00  0.00    +0.000 A 
BRANCH  17  20
ATOM     20  S   UNL     1      -0.297  11.107  20.065  0.00  0.00    +0.000 S 
ATOM     21  O   UNL     1      -0.742  10.880  21.415  0.00  0.00    +0.000 OA
ATOM     22  O   UNL     1       0.496  12.263  19.694  0.00  0.00    +0.000 OA
ATOM     23  F   UNL     1      -1.623  11.192  19.199  0.00  0.00    +0.000 F 
ENDBRANCH  17  20
ENDBRANCH  10  14
TORSDOF 2
ENDMDL
MODEL 6
REMARK VINA RESULT:      -7.0      1.694      3.138
REMARK  Name = 
REMARK  3 active torsions:
REMARK  status: ('A' for Active; 'I' for Inactive)
REMARK    1  A    between atoms: C_1  and  N_2
REMARK    2  A    between atoms: C_10  and  C_12
REMARK    3  A    between atoms: C_15  and  S_16
REMARK                            x       y       z     vdW  Elec       q    Type
REMARK                         _______ _______ _______ _____ _____    ______ ____
ROOT
ATOM      1  C   UNL     1       5.945   3.372  16.084  0.00  0.00    +0.000 C 
ATOM      2  N   UNL     1       5.293   4.434  16.832  0.00  0.00    +0.000 NA
ATOM      3  C   UNL     1       3.857   4.535  16.569  0.00  0.00    +0.000 C 
ATOM      4  C   UNL     1       3.001   3.592  17.402  0.00  0.00    +0.000 C 
ATOM      5  C   UNL     1       3.239   3.754  18.918  0.00  0.00    +0.000 C 
ATOM      6  C   UNL     1       2.506   2.548  19.611  0.00  0.00    +0.000 C 
ATOM      7  C   UNL     1       1.594   3.143  20.664  0.00  0.00    +0.000 C 
ATOM      8  C   UNL     1       1.316   4.525  20.155  0.00  0.00    +0.000 C 
ATOM      9  N   UNL     1       2.531   4.959  19.510  0.00  0.00    +0.000 N 
ATOM     10  C   UNL     1       2.879   6.316  19.420  0.00  0.00    +0.000 C 
ATOM     11  O   UNL     1       3.967   6.713  19.018  0.00  0.00    +0.000 OA
ATOM     12  C   UNL     1       4.749   3.595  19.172  0.00  0.00    +0.000 C 
ATOM     13  C   UNL     1       5.647   4.429  18.256  0.00  0.00    +0.000 C 
ENDROOT
BRANCH  10  14
ATOM     14  C   UNL     1       1.899   7.420  19.809  0.00  0.00    +0.000 A 
ATOM     15  C   UNL     1       1.383   7.449  21.124  0.00  0.00    +0.000 A 
ATOM     16  C   UNL     1       0.700   8.577  21.615  0.00  0.00    +0.000 A 
ATOM     17  C   UNL     1       0.527   9.686  20.784  0.00  0.00    +0.000 A 
ATOM     18  C   UNL     1       0.935   9.644  19.458  0.00  0.00    +0.000 A 
ATOM     19  C   UNL     1       1.629   8.526  18.987  0.00  0.00    +0.000 A 
BRANCH  17  20
ATOM     20  S   UNL     1       0.006  11.237  21.465  0.00  0.00    +0.000 S 
ATOM     21  O   UNL     1      -0.198  11.068  22.880  0.00  0.00    +0.000 OA
ATOM     22  O   UNL     1       0.872  12.267  20.925  0.00  0.00    +0.000 OA
ATOM     23  F   UNL     1      -1.436  11.521  20.868  0.00  0.00    +0.000 F 
ENDBRANCH  17  20
ENDBRANCH  10  14
TORSDOF 2
ENDMDL
MODEL 7
REMARK VINA RESULT:      -6.9      4.507      8.629
REMARK  Name = 
REMARK  3 active torsions:
REMARK  status: ('A' for Active; 'I' for Inactive)
REMARK    1  A    between atoms: C_1  and  N_2
REMARK    2  A    between atoms: C_10  and  C_12
REMARK    3  A    between atoms: C_15  and  S_16
REMARK                            x       y       z     vdW  Elec       q    Type
REMARK                         _______ _______ _______ _____ _____    ______ ____
ROOT
ATOM      1  C   UNL     1      -1.100  14.499  23.689  0.00  0.00    +0.000 C 
ATOM      2  N   UNL     1      -0.375  13.525  22.890  0.00  0.00    +0.000 NA
ATOM      3  C   UNL     1      -0.997  12.201  22.881  0.00  0.00    +0.000 C 
ATOM      4  C   UNL     1      -2.106  12.036  21.851  0.00  0.00    +0.000 C 
ATOM      5  C   UNL     1      -1.644  12.376  20.419  0.00  0.00    +0.000 C 
ATOM      6  C   UNL     1      -2.944  12.426  19.536  0.00  0.00    +0.000 C 
ATOM      7  C   UNL     1      -2.706  11.497  18.362  0.00  0.00    +0.000 C 
ATOM      8  C   UNL     1      -1.701  10.515  18.884  0.00  0.00    +0.000 C 
ATOM      9  N   UNL     1      -0.842  11.262  19.770  0.00  0.00    +0.000 N 
ATOM     10  C   UNL     1       0.493  10.891  19.997  0.00  0.00    +0.000 C 
ATOM     11  O   UNL     1       1.293  11.581  20.618  0.00  0.00    +0.000 OA
ATOM     12  C   UNL     1      -1.039  13.792  20.447  0.00  0.00    +0.000 C 
ATOM     13  C   UNL     1      -0.017  14.033  21.561  0.00  0.00    +0.000 C 
ENDROOT
BRANCH  10  14
ATOM     14  C   UNL     1       1.050   9.563  19.489  0.00  0.00    +0.000 A 
ATOM     15  C   UNL     1       1.510   9.476  18.156  0.00  0.00    +0.000 A 
ATOM     16  C   UNL     1       2.272   8.377  17.717  0.00  0.00    +0.000 A 
ATOM     17  C   UNL     1       2.576   7.354  18.618  0.00  0.00    +0.000 A 
ATOM     18  C   UNL     1       2.052   7.368  19.903  0.00  0.00    +0.000 A 
ATOM     19  C   UNL     1       1.312   8.472  20.333  0.00  0.00    +0.000 A 
BRANCH  17  20
ATOM     20  S   UNL     1       3.818   6.155  18.218  0.00  0.00    +0.000 S 
ATOM     21  O   UNL     1       3.170   5.002  17.648  0.00  0.00    +0.000 OA
ATOM     22  O   UNL     1       4.898   6.848  17.544  0.00  0.00    +0.000 OA
ATOM     23  F   UNL     1       4.414   5.655  19.600  0.00  0.00    +0.000 F 
ENDBRANCH  17  20
ENDBRANCH  10  14
TORSDOF 2
ENDMDL
MODEL 8
REMARK VINA RESULT:      -6.8      4.045      7.838
REMARK  Name = 
REMARK  3 active torsions:
REMARK  status: ('A' for Active; 'I' for Inactive)
REMARK    1  A    between atoms: C_1  and  N_2
REMARK    2  A    between atoms: C_10  and  C_12
REMARK    3  A    between atoms: C_15  and  S_16
REMARK                            x       y       z     vdW  Elec       q    Type
REMARK                         _______ _______ _______ _____ _____    ______ ____
ROOT
ATOM      1  C   UNL     1      -0.315  14.085  18.961  0.00  0.00    +0.000 C 
ATOM      2  N   UNL     1       0.122  12.781  18.489  0.00  0.00    +0.000 NA
ATOM      3  C   UNL     1       1.428  12.380  19.015  0.00  0.00    +0.000 C 
ATOM      4  C   UNL     1       1.376  11.728  20.389  0.00  0.00    +0.000 C 
ATOM      5  C   UNL     1       0.428  10.511  20.436  0.00  0.00    +0.000 C 
ATOM      6  C   UNL     1       0.274  10.130  21.953  0.00  0.00    +0.000 C 
ATOM      7  C   UNL     1       0.613   8.657  22.066  0.00  0.00    +0.000 C 
ATOM      8  C   UNL     1       1.522   8.410  20.899  0.00  0.00    +0.000 C 
ATOM      9  N   UNL     1       1.037   9.256  19.836  0.00  0.00    +0.000 N 
ATOM     10  C   UNL     1       1.219   8.926  18.483  0.00  0.00    +0.000 C 
ATOM     11  O   UNL     1       0.693   9.535  17.559  0.00  0.00    +0.000 OA
ATOM     12  C   UNL     1      -0.949  10.973  19.924  0.00  0.00    +0.000 C 
ATOM     13  C   UNL     1      -0.918  11.754  18.608  0.00  0.00    +0.000 C 
ENDROOT
BRANCH  10  14
ATOM     14  C   UNL     1       2.119   7.769  18.057  0.00  0.00    +0.000 A 
ATOM     15  C   UNL     1       3.433   8.047  17.618  0.00  0.00    +0.000 A 
ATOM     16  C   UNL     1       4.386   7.022  17.473  0.00  0.00    +0.000 A 
ATOM     17  C   UNL     1       4.023   5.706  17.767  0.00  0.00    +0.000 A 
ATOM     18  C   UNL     1       2.713   5.394  18.102  0.00  0.00    +0.000 A 
ATOM     19  C   UNL     1       1.780   6.422  18.261  0.00  0.00    +0.000 A 
BRANCH  17  20
ATOM     20  S   UNL     1       5.268   4.457  17.948  0.00  0.00    +0.000 S 
ATOM     21  O   UNL     1       6.243   4.631  16.903  0.00  0.00    +0.000 OA
ATOM     22  O   UNL     1       5.635   4.403  19.349  0.00  0.00    +0.000 OA
ATOM     23  F   UNL     1       4.559   3.075  17.628  0.00  0.00    +0.000 F 
ENDBRANCH  17  20
ENDBRANCH  10  14
TORSDOF 2
ENDMDL
MODEL 9
REMARK VINA RESULT:      -6.8      1.590      3.056
REMARK  Name = 
REMARK  3 active torsions:
REMARK  status: ('A' for Active; 'I' for Inactive)
REMARK    1  A    between atoms: C_1  and  N_2
REMARK    2  A    between atoms: C_10  and  C_12
REMARK    3  A    between atoms: C_15  and  S_16
REMARK                            x       y       z     vdW  Elec       q    Type
REMARK                         _______ _______ _______ _____ _____    ______ ____
ROOT
ATOM      1  C   UNL     1       6.260   3.531  15.728  0.00  0.00    +0.000 C 
ATOM      2  N   UNL     1       5.551   4.643  16.339  0.00  0.00    +0.000 NA
ATOM      3  C   UNL     1       4.096   4.526  16.249  0.00  0.00    +0.000 C 
ATOM      4  C   UNL     1       3.466   3.681  17.347  0.00  0.00    +0.000 C 
ATOM      5  C   UNL     1       3.836   4.173  18.763  0.00  0.00    +0.000 C 
ATOM      6  C   UNL     1       3.349   3.058  19.758  0.00  0.00    +0.000 C 
ATOM      7  C   UNL     1       2.479   3.748  20.789  0.00  0.00    +0.000 C 
ATOM      8  C   UNL     1       1.965   4.958  20.068  0.00  0.00    +0.000 C 
ATOM      9  N   UNL     1       3.036   5.386  19.203  0.00  0.00    +0.000 N 
ATOM     10  C   UNL     1       3.186   6.727  18.815  0.00  0.00    +0.000 C 
ATOM     11  O   UNL     1       4.163   7.153  18.210  0.00  0.00    +0.000 OA
ATOM     12  C   UNL     1       5.372   4.240  18.846  0.00  0.00    +0.000 C 
ATOM     13  C   UNL     1       6.049   4.966  17.681  0.00  0.00    +0.000 C 
ENDROOT
BRANCH  10  14
ATOM     14  C   UNL     1       2.111   7.769  19.112  0.00  0.00    +0.000 A 
ATOM     15  C   UNL     1       1.694   7.965  20.448  0.00  0.00    +0.000 A 
ATOM     16  C   UNL     1       0.917   9.080  20.813  0.00  0.00    +0.000 A 
ATOM     17  C   UNL     1       0.551  10.007  19.836  0.00  0.00    +0.000 A 
ATOM     18  C   UNL     1       0.862   9.785  18.501  0.00  0.00    +0.000 A 
ATOM     19  C   UNL     1       1.649   8.684  18.153  0.00  0.00    +0.000 A 
BRANCH  17  20
ATOM     20  S   UNL     1      -0.103  11.587  20.305  0.00  0.00    +0.000 S 
ATOM     21  O   UNL     1      -1.504  11.615  19.977  0.00  0.00    +0.000 OA
ATOM     22  O   UNL     1       0.388  11.887  21.636  0.00  0.00    +0.000 OA
ATOM     23  F   UNL     1       0.572  12.650  19.341  0.00  0.00    +0.000 F 
ENDBRANCH  17  20
ENDBRANCH  10  14
TORSDOF 2
ENDMDL
