MODEL 1
REMARK VINA RESULT:      -8.5      0.000      0.000
REMARK  Name = 
REMARK  5 active torsions:
REMARK  status: ('A' for Active; 'I' for Inactive)
REMARK    1  A    between atoms: S_2  and  C_4
REMARK    2  A    between atoms: S_2  and  C_11
REMARK    3  A    between atoms: N_15  and  C_16
REMARK    4  A    between atoms: C_16  and  C_17
REMARK    5  A    between atoms: C_17  and  C_18
REMARK                            x       y       z     vdW  Elec       q    Type
REMARK                         _______ _______ _______ _____ _____    ______ ____
ROOT
ATOM      1  C   UNL     1       5.145   5.841  16.330  0.00  0.00    +0.000 C 
ATOM      2  F   UNL     1       4.787   6.642  15.268  0.00  0.00    +0.000 F 
ATOM      3  C   UNL     1       4.138   4.695  16.369  0.00  0.00    +0.000 C 
ATOM      4  C   UNL     1       4.215   3.918  17.675  0.00  0.00    +0.000 C 
ATOM      5  N   UNL     1       4.058   4.773  18.857  0.00  0.00    +0.000 NA
ATOM      6  C   UNL     1       5.045   5.865  18.866  0.00  0.00    +0.000 C 
ATOM      7  C   UNL     1       5.035   6.703  17.589  0.00  0.00    +0.000 C 
ENDROOT
BRANCH   1   9
ATOM      8  O   UNL     1       7.111   4.045  16.831  0.00  0.00    +0.000 OA
ATOM      9  S   UNL     1       6.869   5.267  16.086  0.00  0.00    +0.000 S 
ATOM     10  O   UNL     1       7.778   6.390  16.246  0.00  0.00    +0.000 OA
BRANCH   9  11
ATOM     11  C   UNL     1       6.950   4.823  14.361  0.00  0.00    +0.000 A 
ATOM     12  C   UNL     1       7.802   5.524  13.496  0.00  0.00    +0.000 A 
ATOM     13  C   UNL     1       7.859   5.169  12.148  0.00  0.00    +0.000 A 
ATOM     14  C   UNL     1       7.074   4.117  11.674  0.00  0.00    +0.000 A 
ATOM     15  C   UNL     1       6.236   3.431  12.549  0.00  0.00    +0.000 A 
ATOM     16  F   UNL     1       5.493   2.417  12.088  0.00  0.00    +0.000 F 
ATOM     17  C   UNL     1       6.158   3.775  13.891  0.00  0.00    +0.000 A 
ENDBRANCH   9  11
ENDBRANCH   1   9
BRANCH   5  18
ATOM     18  C   UNL     1       2.687   5.275  19.061  0.00  0.00    +0.000 C 
BRANCH  18  19
ATOM     19  C   UNL     1       2.579   6.303  20.198  0.00  0.00    +0.000 C 
BRANCH  19  20
ATOM     20  C   UNL     1       1.990   7.599  19.710  0.00  0.00    +0.000 A 
ATOM     21  C   UNL     1       2.070   7.955  18.357  0.00  0.00    +0.000 A 
ATOM     22  C   UNL     1       1.515   9.157  17.923  0.00  0.00    +0.000 A 
ATOM     23  C   UNL     1       0.883   9.997  18.838  0.00  0.00    +0.000 A 
ATOM     24  F   UNL     1       0.358  11.154  18.415  0.00  0.00    +0.000 F 
ATOM     25  C   UNL     1       0.782   9.654  20.178  0.00  0.00    +0.000 A 
ATOM     26  C   UNL     1       1.334   8.454  20.602  0.00  0.00    +0.000 A 
ATOM     27  F   UNL     1       1.228   8.106  21.895  0.00  0.00    +0.000 F 
ENDBRANCH  19  20
ENDBRANCH  18  19
ENDBRANCH   5  18
TORSDOF 5
ENDMDL
MODEL 2
REMARK VINA RESULT:      -8.4      3.047      4.256
REMARK  Name = 
REMARK  5 active torsions:
REMARK  status: ('A' for Active; 'I' for Inactive)
REMARK    1  A    between atoms: S_2  and  C_4
REMARK    2  A    between atoms: S_2  and  C_11
REMARK    3  A    between atoms: N_15  and  C_16
REMARK    4  A    between atoms: C_16  and  C_17
REMARK    5  A    between atoms: C_17  and  C_18
REMARK                            x       y       z     vdW  Elec       q    Type
REMARK                         _______ _______ _______ _____ _____    ______ ____
ROOT
ATOM      1  C   UNL     1       2.198   4.226  18.385  0.00  0.00    +0.000 C 
ATOM      2  F   UNL     1       1.482   3.991  17.232  0.00  0.00    +0.000 F 
ATOM      3  C   UNL     1       1.235   4.000  19.548  0.00  0.00    +0.000 C 
ATOM      4  C   UNL     1       1.795   4.535  20.858  0.00  0.00    +0.000 C 
ATOM      5  N   UNL     1       2.176   5.949  20.780  0.00  0.00    +0.000 NA
ATOM      6  C   UNL     1       3.136   6.190  19.691  0.00  0.00    +0.000 C 
ATOM      7  C   UNL     1       2.653   5.685  18.333  0.00  0.00    +0.000 C 
ENDROOT
BRANCH   1   9
ATOM      8  O   UNL     1       3.356   1.873  17.701  0.00  0.00    +0.000 OA
ATOM      9  S   UNL     1       3.643   3.098  18.426  0.00  0.00    +0.000 S 
ATOM     10  O   UNL     1       4.152   3.016  19.785  0.00  0.00    +0.000 OA
BRANCH   9  11
ATOM     11  C   UNL     1       4.899   3.948  17.490  0.00  0.00    +0.000 A 
ATOM     12  C   UNL     1       4.792   4.038  16.095  0.00  0.00    +0.000 A 
ATOM     13  C   UNL     1       5.780   4.706  15.370  0.00  0.00    +0.000 A 
ATOM     14  C   UNL     1       6.860   5.283  16.039  0.00  0.00    +0.000 A 
ATOM     15  C   UNL     1       6.948   5.185  17.425  0.00  0.00    +0.000 A 
ATOM     16  F   UNL     1       7.982   5.750  18.060  0.00  0.00    +0.000 F 
ATOM     17  C   UNL     1       5.980   4.517  18.163  0.00  0.00    +0.000 A 
ENDBRANCH   9  11
ENDBRANCH   1   9
BRANCH   5  18
ATOM     18  C   UNL     1       1.033   6.879  20.713  0.00  0.00    +0.000 C 
BRANCH  18  19
ATOM     19  C   UNL     1       1.450   8.340  20.484  0.00  0.00    +0.000 C 
BRANCH  19  20
ATOM     20  C   UNL     1       0.563   9.288  21.246  0.00  0.00    +0.000 A 
ATOM     21  C   UNL     1       0.333   9.106  22.615  0.00  0.00    +0.000 A 
ATOM     22  C   UNL     1      -0.488   9.997  23.305  0.00  0.00    +0.000 A 
ATOM     23  C   UNL     1      -1.072  11.064  22.625  0.00  0.00    +0.000 A 
ATOM     24  F   UNL     1      -1.865  11.912  23.293  0.00  0.00    +0.000 F 
ATOM     25  C   UNL     1      -0.844  11.269  21.273  0.00  0.00    +0.000 A 
ATOM     26  C   UNL     1      -0.023  10.379  20.594  0.00  0.00    +0.000 A 
ATOM     27  F   UNL     1       0.216  10.577  19.288  0.00  0.00    +0.000 F 
ENDBRANCH  19  20
ENDBRANCH  18  19
ENDBRANCH   5  18
TORSDOF 5
ENDMDL
MODEL 3
REMARK VINA RESULT:      -8.4      2.717      3.949
REMARK  Name = 
REMARK  5 active torsions:
REMARK  status: ('A' for Active; 'I' for Inactive)
REMARK    1  A    between atoms: S_2  and  C_4
REMARK    2  A    between atoms: S_2  and  C_11
REMARK    3  A    between atoms: N_15  and  C_16
REMARK    4  A    between atoms: C_16  and  C_17
REMARK    5  A    between atoms: C_17  and  C_18
REMARK                            x       y       z     vdW  Elec       q    Type
REMARK                         _______ _______ _______ _____ _____    ______ ____
ROOT
ATOM      1  C   UNL     1       2.258   4.227  18.382  0.00  0.00    +0.000 C 
ATOM      2  F   UNL     1       1.559   4.017  17.213  0.00  0.00    +0.000 F 
ATOM      3  C   UNL     1       1.268   4.011  19.523  0.00  0.00    +0.000 C 
ATOM      4  C   UNL     1       1.814   4.524  20.849  0.00  0.00    +0.000 C 
ATOM      5  N   UNL     1       2.224   5.931  20.790  0.00  0.00    +0.000 NA
ATOM      6  C   UNL     1       3.210   6.160  19.722  0.00  0.00    +0.000 C 
ATOM      7  C   UNL     1       2.743   5.678  18.350  0.00  0.00    +0.000 C 
ENDROOT
BRANCH   1   9
ATOM      8  O   UNL     1       3.347   1.820  17.779  0.00  0.00    +0.000 OA
ATOM      9  S   UNL     1       3.678   3.070  18.440  0.00  0.00    +0.000 S 
ATOM     10  O   UNL     1       4.219   3.039  19.789  0.00  0.00    +0.000 OA
BRANCH   9  11
ATOM     11  C   UNL     1       4.929   3.848  17.436  0.00  0.00    +0.000 A 
ATOM     12  C   UNL     1       6.060   4.414  18.040  0.00  0.00    +0.000 A 
ATOM     13  C   UNL     1       7.034   5.021  17.246  0.00  0.00    +0.000 A 
ATOM     14  C   UNL     1       6.876   5.055  15.860  0.00  0.00    +0.000 A 
ATOM     15  C   UNL     1       5.746   4.487  15.278  0.00  0.00    +0.000 A 
ATOM     16  F   UNL     1       5.607   4.515  13.947  0.00  0.00    +0.000 F 
ATOM     17  C   UNL     1       4.762   3.886  16.052  0.00  0.00    +0.000 A 
ENDBRANCH   9  11
ENDBRANCH   1   9
BRANCH   5  18
ATOM     18  C   UNL     1       1.102   6.884  20.710  0.00  0.00    +0.000 C 
BRANCH  18  19
ATOM     19  C   UNL     1       1.548   8.326  20.426  0.00  0.00    +0.000 C 
BRANCH  19  20
ATOM     20  C   UNL     1       0.737   9.316  21.218  0.00  0.00    +0.000 A 
ATOM     21  C   UNL     1       0.107   8.932  22.409  0.00  0.00    +0.000 A 
ATOM     22  C   UNL     1      -0.635   9.864  23.132  0.00  0.00    +0.000 A 
ATOM     23  C   UNL     1      -0.745  11.173  22.664  0.00  0.00    +0.000 A 
ATOM     24  F   UNL     1      -1.466  12.061  23.360  0.00  0.00    +0.000 F 
ATOM     25  C   UNL     1      -0.117  11.574  21.495  0.00  0.00    +0.000 A 
ATOM     26  C   UNL     1       0.624  10.641  20.783  0.00  0.00    +0.000 A 
ATOM     27  F   UNL     1       1.249  11.024  19.658  0.00  0.00    +0.000 F 
ENDBRANCH  19  20
ENDBRANCH  18  19
ENDBRANCH   5  18
TORSDOF 5
ENDMDL
MODEL 4
REMARK VINA RESULT:      -8.3      2.937      3.756
REMARK  Name = 
REMARK  5 active torsions:
REMARK  status: ('A' for Active; 'I' for Inactive)
REMARK    1  A    between atoms: S_2  and  C_4
REMARK    2  A    between atoms: S_2  and  C_11
REMARK    3  A    between atoms: N_15  and  C_16
REMARK    4  A    between atoms: C_16  and  C_17
REMARK    5  A    between atoms: C_17  and  C_18
REMARK                            x       y       z     vdW  Elec       q    Type
REMARK                         _______ _______ _______ _____ _____    ______ ____
ROOT
ATOM      1  C   UNL     1       2.220   4.207  18.379  0.00  0.00    +0.000 C 
ATOM      2  F   UNL     1       1.519   4.029  17.206  0.00  0.00    +0.000 F 
ATOM      3  C   UNL     1       1.242   3.923  19.516  0.00  0.00    +0.000 C 
ATOM      4  C   UNL     1       1.784   4.393  20.859  0.00  0.00    +0.000 C 
ATOM      5  N   UNL     1       2.162   5.810  20.855  0.00  0.00    +0.000 NA
ATOM      6  C   UNL     1       3.136   6.106  19.793  0.00  0.00    +0.000 C 
ATOM      7  C   UNL     1       2.672   5.668  18.405  0.00  0.00    +0.000 C 
ENDROOT
BRANCH   1   9
ATOM      8  O   UNL     1       3.375   1.873  17.633  0.00  0.00    +0.000 OA
ATOM      9  S   UNL     1       3.666   3.081  18.383  0.00  0.00    +0.000 S 
ATOM     10  O   UNL     1       4.187   2.970  19.736  0.00  0.00    +0.000 OA
BRANCH   9  11
ATOM     11  C   UNL     1       4.913   3.955  17.456  0.00  0.00    +0.000 A 
ATOM     12  C   UNL     1       4.801   4.066  16.063  0.00  0.00    +0.000 A 
ATOM     13  C   UNL     1       5.782   4.752  15.346  0.00  0.00    +0.000 A 
ATOM     14  C   UNL     1       6.861   5.325  16.020  0.00  0.00    +0.000 A 
ATOM     15  C   UNL     1       6.955   5.205  17.404  0.00  0.00    +0.000 A 
ATOM     16  F   UNL     1       7.988   5.766  18.044  0.00  0.00    +0.000 F 
ATOM     17  C   UNL     1       5.994   4.519  18.134  0.00  0.00    +0.000 A 
ENDBRANCH   9  11
ENDBRANCH   1   9
BRANCH   5  18
ATOM     18  C   UNL     1       1.018   6.740  20.820  0.00  0.00    +0.000 C 
BRANCH  18  19
ATOM     19  C   UNL     1       1.372   8.158  21.295  0.00  0.00    +0.000 C 
BRANCH  19  20
ATOM     20  C   UNL     1       0.767   9.202  20.396  0.00  0.00    +0.000 A 
ATOM     21  C   UNL     1       1.215   9.357  19.078  0.00  0.00    +0.000 A 
ATOM     22  C   UNL     1       0.640  10.327  18.259  0.00  0.00    +0.000 A 
ATOM     23  C   UNL     1      -0.381  11.135  18.758  0.00  0.00    +0.000 A 
ATOM     24  F   UNL     1      -0.924  12.070  17.968  0.00  0.00    +0.000 F 
ATOM     25  C   UNL     1      -0.847  10.987  20.056  0.00  0.00    +0.000 A 
ATOM     26  C   UNL     1      -0.271  10.016  20.864  0.00  0.00    +0.000 A 
ATOM     27  F   UNL     1      -0.726   9.855  22.117  0.00  0.00    +0.000 F 
ENDBRANCH  19  20
ENDBRANCH  18  19
ENDBRANCH   5  18
TORSDOF 5
ENDMDL
MODEL 5
REMARK VINA RESULT:      -8.2      3.032      3.953
REMARK  Name = 
REMARK  5 active torsions:
REMARK  status: ('A' for Active; 'I' for Inactive)
REMARK    1  A    between atoms: S_2  and  C_4
REMARK    2  A    between atoms: S_2  and  C_11
REMARK    3  A    between atoms: N_15  and  C_16
REMARK    4  A    between atoms: C_16  and  C_17
REMARK    5  A    between atoms: C_17  and  C_18
REMARK                            x       y       z     vdW  Elec       q    Type
REMARK                         _______ _______ _______ _____ _____    ______ ____
ROOT
ATOM      1  C   UNL     1       2.175   4.191  18.367  0.00  0.00    +0.000 C 
ATOM      2  F   UNL     1       1.469   4.014  17.198  0.00  0.00    +0.000 F 
ATOM      3  C   UNL     1       1.190   3.959  19.509  0.00  0.00    +0.000 C 
ATOM      4  C   UNL     1       1.747   4.436  20.843  0.00  0.00    +0.000 C 
ATOM      5  N   UNL     1       2.170   5.840  20.814  0.00  0.00    +0.000 NA
ATOM      6  C   UNL     1       3.153   6.085  19.746  0.00  0.00    +0.000 C 
ATOM      7  C   UNL     1       2.674   5.638  18.367  0.00  0.00    +0.000 C 
ENDROOT
BRANCH   1   9
ATOM      8  O   UNL     1       3.276   1.832  17.618  0.00  0.00    +0.000 OA
ATOM      9  S   UNL     1       3.585   3.020  18.392  0.00  0.00    +0.000 S 
ATOM     10  O   UNL     1       4.067   2.874  19.756  0.00  0.00    +0.000 OA
BRANCH   9  11
ATOM     11  C   UNL     1       4.883   3.866  17.509  0.00  0.00    +0.000 A 
ATOM     12  C   UNL     1       4.807   4.006  16.116  0.00  0.00    +0.000 A 
ATOM     13  C   UNL     1       5.826   4.670  15.434  0.00  0.00    +0.000 A 
ATOM     14  C   UNL     1       6.909   5.194  16.143  0.00  0.00    +0.000 A 
ATOM     15  C   UNL     1       6.966   5.046  17.526  0.00  0.00    +0.000 A 
ATOM     16  F   UNL     1       8.002   5.560  18.199  0.00  0.00    +0.000 F 
ATOM     17  C   UNL     1       5.966   4.381  18.222  0.00  0.00    +0.000 A 
ENDBRANCH   9  11
ENDBRANCH   1   9
BRANCH   5  18
ATOM     18  C   UNL     1       1.057   6.805  20.762  0.00  0.00    +0.000 C 
BRANCH  18  19
ATOM     19  C   UNL     1       1.458   8.222  21.201  0.00  0.00    +0.000 C 
BRANCH  19  20
ATOM     20  C   UNL     1       0.711   9.269  20.420  0.00  0.00    +0.000 A 
ATOM     21  C   UNL     1      -0.347   9.977  21.005  0.00  0.00    +0.000 A 
ATOM     22  C   UNL     1      -1.024  10.946  20.268  0.00  0.00    +0.000 A 
ATOM     23  C   UNL     1      -0.642  11.205  18.952  0.00  0.00    +0.000 A 
ATOM     24  F   UNL     1      -1.302  12.133  18.247  0.00  0.00    +0.000 F 
ATOM     25  C   UNL     1       0.411  10.524  18.361  0.00  0.00    +0.000 A 
ATOM     26  C   UNL     1       1.083   9.563  19.104  0.00  0.00    +0.000 A 
ATOM     27  F   UNL     1       2.114   8.909  18.545  0.00  0.00    +0.000 F 
ENDBRANCH  19  20
ENDBRANCH  18  19
ENDBRANCH   5  18
TORSDOF 5
ENDMDL
MODEL 6
REMARK VINA RESULT:      -8.2      2.591      3.436
REMARK  Name = 
REMARK  5 active torsions:
REMARK  status: ('A' for Active; 'I' for Inactive)
REMARK    1  A    between atoms: S_2  and  C_4
REMARK    2  A    between atoms: S_2  and  C_11
REMARK    3  A    between atoms: N_15  and  C_16
REMARK    4  A    between atoms: C_16  and  C_17
REMARK    5  A    between atoms: C_17  and  C_18
REMARK                            x       y       z     vdW  Elec       q    Type
REMARK                         _______ _______ _______ _____ _____    ______ ____
ROOT
ATOM      1  C   UNL     1       2.276   4.180  18.385  0.00  0.00    +0.000 C 
ATOM      2  F   UNL     1       1.594   4.000  17.201  0.00  0.00    +0.000 F 
ATOM      3  C   UNL     1       1.277   3.911  19.507  0.00  0.00    +0.000 C 
ATOM      4  C   UNL     1       1.800   4.385  20.855  0.00  0.00    +0.000 C 
ATOM      5  N   UNL     1       2.190   5.799  20.850  0.00  0.00    +0.000 NA
ATOM      6  C   UNL     1       3.185   6.080  19.802  0.00  0.00    +0.000 C 
ATOM      7  C   UNL     1       2.740   5.638  18.409  0.00  0.00    +0.000 C 
ENDROOT
BRANCH   1   9
ATOM      8  O   UNL     1       3.393   1.794  17.752  0.00  0.00    +0.000 OA
ATOM      9  S   UNL     1       3.713   3.042  18.421  0.00  0.00    +0.000 S 
ATOM     10  O   UNL     1       4.267   3.008  19.764  0.00  0.00    +0.000 OA
BRANCH   9  11
ATOM     11  C   UNL     1       4.943   3.847  17.411  0.00  0.00    +0.000 A 
ATOM     12  C   UNL     1       6.065   4.436  18.011  0.00  0.00    +0.000 A 
ATOM     13  C   UNL     1       7.023   5.063  17.213  0.00  0.00    +0.000 A 
ATOM     14  C   UNL     1       6.859   5.093  15.827  0.00  0.00    +0.000 A 
ATOM     15  C   UNL     1       5.739   4.501  15.250  0.00  0.00    +0.000 A 
ATOM     16  F   UNL     1       5.595   4.525  13.920  0.00  0.00    +0.000 F 
ATOM     17  C   UNL     1       4.770   3.880  16.028  0.00  0.00    +0.000 A 
ENDBRANCH   9  11
ENDBRANCH   1   9
BRANCH   5  18
ATOM     18  C   UNL     1       1.055   6.738  20.789  0.00  0.00    +0.000 C 
BRANCH  18  19
ATOM     19  C   UNL     1       1.417   8.161  21.244  0.00  0.00    +0.000 C 
BRANCH  19  20
ATOM     20  C   UNL     1       0.788   9.197  20.352  0.00  0.00    +0.000 A 
ATOM     21  C   UNL     1       1.229   9.366  19.033  0.00  0.00    +0.000 A 
ATOM     22  C   UNL     1       0.631  10.328  18.220  0.00  0.00    +0.000 A 
ATOM     23  C   UNL     1      -0.403  11.114  18.727  0.00  0.00    +0.000 A 
ATOM     24  F   UNL     1      -0.968  12.040  17.943  0.00  0.00    +0.000 F 
ATOM     25  C   UNL     1      -0.862  10.950  20.025  0.00  0.00    +0.000 A 
ATOM     26  C   UNL     1      -0.264   9.988  20.827  0.00  0.00    +0.000 A 
ATOM     27  F   UNL     1      -0.711   9.812  22.081  0.00  0.00    +0.000 F 
ENDBRANCH  19  20
ENDBRANCH  18  19
ENDBRANCH   5  18
TORSDOF 5
ENDMDL
MODEL 7
REMARK VINA RESULT:      -8.2      2.652      3.617
REMARK  Name = 
REMARK  5 active torsions:
REMARK  status: ('A' for Active; 'I' for Inactive)
REMARK    1  A    between atoms: S_2  and  C_4
REMARK    2  A    between atoms: S_2  and  C_11
REMARK    3  A    between atoms: N_15  and  C_16
REMARK    4  A    between atoms: C_16  and  C_17
REMARK    5  A    between atoms: C_17  and  C_18
REMARK                            x       y       z     vdW  Elec       q    Type
REMARK                         _______ _______ _______ _____ _____    ______ ____
ROOT
ATOM      1  C   UNL     1       2.258   4.230  18.352  0.00  0.00    +0.000 C 
ATOM      2  F   UNL     1       1.581   4.032  17.168  0.00  0.00    +0.000 F 
ATOM      3  C   UNL     1       1.248   3.999  19.472  0.00  0.00    +0.000 C 
ATOM      4  C   UNL     1       1.768   4.497  20.813  0.00  0.00    +0.000 C 
ATOM      5  N   UNL     1       2.177   5.905  20.779  0.00  0.00    +0.000 NA
ATOM      6  C   UNL     1       3.182   6.149  19.732  0.00  0.00    +0.000 C 
ATOM      7  C   UNL     1       2.741   5.681  18.346  0.00  0.00    +0.000 C 
ENDROOT
BRANCH   1   9
ATOM      8  O   UNL     1       3.356   1.826  17.755  0.00  0.00    +0.000 OA
ATOM      9  S   UNL     1       3.679   3.074  18.423  0.00  0.00    +0.000 S 
ATOM     10  O   UNL     1       4.205   3.040  19.778  0.00  0.00    +0.000 OA
BRANCH   9  11
ATOM     11  C   UNL     1       4.939   3.857  17.435  0.00  0.00    +0.000 A 
ATOM     12  C   UNL     1       6.059   4.430  18.053  0.00  0.00    +0.000 A 
ATOM     13  C   UNL     1       7.041   5.040  17.272  0.00  0.00    +0.000 A 
ATOM     14  C   UNL     1       6.903   5.069  15.883  0.00  0.00    +0.000 A 
ATOM     15  C   UNL     1       5.785   4.493  15.287  0.00  0.00    +0.000 A 
ATOM     16  F   UNL     1       5.665   4.517  13.954  0.00  0.00    +0.000 F 
ATOM     17  C   UNL     1       4.792   3.890  16.048  0.00  0.00    +0.000 A 
ENDBRANCH   9  11
ENDBRANCH   1   9
BRANCH   5  18
ATOM     18  C   UNL     1       1.055   6.857  20.689  0.00  0.00    +0.000 C 
BRANCH  18  19
ATOM     19  C   UNL     1       1.400   8.257  21.222  0.00  0.00    +0.000 C 
BRANCH  19  20
ATOM     20  C   UNL     1       0.733   9.332  20.408  0.00  0.00    +0.000 A 
ATOM     21  C   UNL     1      -0.322  10.083  20.944  0.00  0.00    +0.000 A 
ATOM     22  C   UNL     1      -0.925  11.078  20.177  0.00  0.00    +0.000 A 
ATOM     23  C   UNL     1      -0.472  11.319  18.880  0.00  0.00    +0.000 A 
ATOM     24  F   UNL     1      -1.061  12.272  18.146  0.00  0.00    +0.000 F 
ATOM     25  C   UNL     1       0.579  10.596  18.338  0.00  0.00    +0.000 A 
ATOM     26  C   UNL     1       1.177   9.610  19.110  0.00  0.00    +0.000 A 
ATOM     27  F   UNL     1       2.205   8.914  18.599  0.00  0.00    +0.000 F 
ENDBRANCH  19  20
ENDBRANCH  18  19
ENDBRANCH   5  18
TORSDOF 5
ENDMDL
MODEL 8
REMARK VINA RESULT:      -8.1      3.707      8.307
REMARK  Name = 
REMARK  5 active torsions:
REMARK  status: ('A' for Active; 'I' for Inactive)
REMARK    1  A    between atoms: S_2  and  C_4
REMARK    2  A    between atoms: S_2  and  C_11
REMARK    3  A    between atoms: N_15  and  C_16
REMARK    4  A    between atoms: C_16  and  C_17
REMARK    5  A    between atoms: C_17  and  C_18
REMARK                            x       y       z     vdW  Elec       q    Type
REMARK                         _______ _______ _______ _____ _____    ______ ____
ROOT
ATOM      1  C   UNL     1       5.037   4.278  17.302  0.00  0.00    +0.000 C 
ATOM      2  F   UNL     1       4.694   2.989  17.647  0.00  0.00    +0.000 F 
ATOM      3  C   UNL     1       4.599   4.471  15.853  0.00  0.00    +0.000 C 
ATOM      4  C   UNL     1       5.202   5.729  15.243  0.00  0.00    +0.000 C 
ATOM      5  N   UNL     1       6.665   5.764  15.341  0.00  0.00    +0.000 NA
ATOM      6  C   UNL     1       7.115   5.620  16.735  0.00  0.00    +0.000 C 
ATOM      7  C   UNL     1       6.559   4.378  17.427  0.00  0.00    +0.000 C 
ENDROOT
BRANCH   1   9
ATOM      8  O   UNL     1       3.499   6.468  17.725  0.00  0.00    +0.000 OA
ATOM      9  S   UNL     1       4.215   5.439  18.458  0.00  0.00    +0.000 S 
ATOM     10  O   UNL     1       5.152   5.829  19.498  0.00  0.00    +0.000 OA
BRANCH   9  11
ATOM     11  C   UNL     1       2.973   4.453  19.272  0.00  0.00    +0.000 A 
ATOM     12  C   UNL     1       2.921   4.408  20.672  0.00  0.00    +0.000 A 
ATOM     13  C   UNL     1       1.945   3.634  21.301  0.00  0.00    +0.000 A 
ATOM     14  C   UNL     1       1.028   2.916  20.532  0.00  0.00    +0.000 A 
ATOM     15  C   UNL     1       1.095   2.974  19.143  0.00  0.00    +0.000 A 
ATOM     16  F   UNL     1       0.205   2.291  18.413  0.00  0.00    +0.000 F 
ATOM     17  C   UNL     1       2.063   3.732  18.499  0.00  0.00    +0.000 A 
ENDBRANCH   9  11
ENDBRANCH   1   9
BRANCH   5  18
ATOM     18  C   UNL     1       7.353   4.817  14.445  0.00  0.00    +0.000 C 
BRANCH  18  19
ATOM     19  C   UNL     1       6.996   5.012  12.963  0.00  0.00    +0.000 C 
BRANCH  19  20
ATOM     20  C   UNL     1       6.738   3.694  12.284  0.00  0.00    +0.000 A 
ATOM     21  C   UNL     1       7.800   2.926  11.790  0.00  0.00    +0.000 A 
ATOM     22  C   UNL     1       7.543   1.706  11.168  0.00  0.00    +0.000 A 
ATOM     23  C   UNL     1       6.228   1.258  11.044  0.00  0.00    +0.000 A 
ATOM     24  F   UNL     1       5.988   0.088  10.439  0.00  0.00    +0.000 F 
ATOM     25  C   UNL     1       5.166   1.998  11.540  0.00  0.00    +0.000 A 
ATOM     26  C   UNL     1       5.431   3.210  12.162  0.00  0.00    +0.000 A 
ATOM     27  F   UNL     1       4.410   3.927  12.658  0.00  0.00    +0.000 F 
ENDBRANCH  19  20
ENDBRANCH  18  19
ENDBRANCH   5  18
TORSDOF 5
ENDMDL
MODEL 9
REMARK VINA RESULT:      -7.9      0.944      1.323
REMARK  Name = 
REMARK  5 active torsions:
REMARK  status: ('A' for Active; 'I' for Inactive)
REMARK    1  A    between atoms: S_2  and  C_4
REMARK    2  A    between atoms: S_2  and  C_11
REMARK    3  A    between atoms: N_15  and  C_16
REMARK    4  A    between atoms: C_16  and  C_17
REMARK    5  A    between atoms: C_17  and  C_18
REMARK                            x       y       z     vdW  Elec       q    Type
REMARK                         _______ _______ _______ _____ _____    ______ ____
ROOT
ATOM      1  C   UNL     1       5.106   5.808  16.507  0.00  0.00    +0.000 C 
ATOM      2  F   UNL     1       4.806   6.662  15.469  0.00  0.00    +0.000 F 
ATOM      3  C   UNL     1       4.040   4.716  16.491  0.00  0.00    +0.000 C 
ATOM      4  C   UNL     1       4.056   3.891  17.771  0.00  0.00    +0.000 C 
ATOM      5  N   UNL     1       3.926   4.712  18.979  0.00  0.00    +0.000 NA
ATOM      6  C   UNL     1       4.967   5.750  19.041  0.00  0.00    +0.000 C 
ATOM      7  C   UNL     1       5.021   6.631  17.794  0.00  0.00    +0.000 C 
ENDROOT
BRANCH   1   9
ATOM      8  O   UNL     1       6.956   3.876  16.940  0.00  0.00    +0.000 OA
ATOM      9  S   UNL     1       6.801   5.153  16.266  0.00  0.00    +0.000 S 
ATOM     10  O   UNL     1       7.766   6.211  16.517  0.00  0.00    +0.000 OA
BRANCH   9  11
ATOM     11  C   UNL     1       6.903   4.811  14.520  0.00  0.00    +0.000 A 
ATOM     12  C   UNL     1       6.240   3.697  13.984  0.00  0.00    +0.000 A 
ATOM     13  C   UNL     1       6.326   3.438  12.616  0.00  0.00    +0.000 A 
ATOM     14  C   UNL     1       7.063   4.290  11.793  0.00  0.00    +0.000 A 
ATOM     15  C   UNL     1       7.713   5.391  12.343  0.00  0.00    +0.000 A 
ATOM     16  F   UNL     1       8.410   6.209  11.545  0.00  0.00    +0.000 F 
ATOM     17  C   UNL     1       7.648   5.662  13.703  0.00  0.00    +0.000 A 
ENDBRANCH   9  11
ENDBRANCH   1   9
BRANCH   5  18
ATOM     18  C   UNL     1       2.580   5.279  19.182  0.00  0.00    +0.000 C 
BRANCH  18  19
ATOM     19  C   UNL     1       2.530   6.351  20.282  0.00  0.00    +0.000 C 
BRANCH  19  20
ATOM     20  C   UNL     1       1.961   7.643  19.761  0.00  0.00    +0.000 A 
ATOM     21  C   UNL     1       2.031   7.955  18.397  0.00  0.00    +0.000 A 
ATOM     22  C   UNL     1       1.494   9.155  17.933  0.00  0.00    +0.000 A 
ATOM     23  C   UNL     1       0.890  10.035  18.830  0.00  0.00    +0.000 A 
ATOM     24  F   UNL     1       0.383  11.188  18.378  0.00  0.00    +0.000 F 
ATOM     25  C   UNL     1       0.799   9.735  20.181  0.00  0.00    +0.000 A 
ATOM     26  C   UNL     1       1.332   8.537  20.635  0.00  0.00    +0.000 A 
ATOM     27  F   UNL     1       1.236   8.231  21.939  0.00  0.00    +0.000 F 
ENDBRANCH  19  20
ENDBRANCH  18  19
ENDBRANCH   5  18
TORSDOF 5
ENDMDL
