MODEL 1
REMARK VINA RESULT:      -8.2      0.000      0.000
REMARK  Name = 
REMARK  10 active torsions:
REMARK  status: ('A' for Active; 'I' for Inactive)
REMARK    1  A    between atoms: C_1  and  C_2
REMARK    2  A    between atoms: C_2  and  C_3
REMARK    3  A    between atoms: N_4  and  N_5
REMARK    4  A    between atoms: N_5  and  C_6
REMARK    5  A    between atoms: C_9  and  S_10
REMARK    6  A    between atoms: S_10  and  N_13
REMARK    7  A    between atoms: C_14  and  C_15
REMARK    8  A    between atoms: C_15  and  C_16
REMARK    9  A    between atoms: C_17  and  C_18
REMARK   10  A    between atoms: C_26  and  C_27
REMARK                            x       y       z     vdW  Elec       q    Type
REMARK                         _______ _______ _______ _____ _____    ______ ____
ROOT
ATOM      1  C   UNL     1       6.606   6.491  17.551  0.00  0.00    +0.000 A 
ATOM      2  C   UNL     1       5.369   6.806  16.967  0.00  0.00    +0.000 A 
ATOM      3  C   UNL     1       4.165   6.317  17.500  0.00  0.00    +0.000 A 
ATOM      4  C   UNL     1       4.191   5.491  18.628  0.00  0.00    +0.000 A 
ATOM      5  C   UNL     1       5.406   5.194  19.249  0.00  0.00    +0.000 A 
ATOM      6  C   UNL     1       6.599   5.706  18.715  0.00  0.00    +0.000 A 
ENDROOT
BRANCH   4   7
ATOM      7  S   UNL     1       2.661   4.868  19.316  0.00  0.00    +0.000 S 
ATOM      8  O   UNL     1       2.085   3.962  18.342  0.00  0.00    +0.000 OA
ATOM      9  O   UNL     1       2.955   4.401  20.658  0.00  0.00    +0.000 OA
BRANCH   7  10
ATOM     10  N   UNL     1       1.728   6.193  19.417  0.00  0.00    +0.000 NA
ATOM     11  C   UNL     1       2.143   7.161  20.162  0.00  0.00    +0.000 C 
BRANCH  11  12
ATOM     12  C   UNL     1       1.364   8.430  20.338  0.00  0.00    +0.000 C 
ATOM     13  C   UNL     1       0.920   8.780  21.727  0.00  0.00    +0.000 C 
ATOM     14  C   UNL     1       1.119   9.175  19.244  0.00  0.00    +0.000 C 
BRANCH  14  15
ATOM     15  C   UNL     1       0.399  10.458  19.279  0.00  0.00    +0.000 A 
ATOM     16  C   UNL     1       1.109  11.657  19.411  0.00  0.00    +0.000 A 
ATOM     17  C   UNL     1       0.433  12.881  19.446  0.00  0.00    +0.000 A 
ATOM     18  C   UNL     1      -0.957  12.916  19.352  0.00  0.00    +0.000 A 
ATOM     19  C   UNL     1      -1.673  11.726  19.223  0.00  0.00    +0.000 A 
ATOM     20  C   UNL     1      -0.998  10.502  19.187  0.00  0.00    +0.000 A 
ENDBRANCH  14  15
ENDBRANCH  11  12
ENDBRANCH   7  10
ENDBRANCH   4   7
BRANCH   1  21
ATOM     21  N   UNL     1       7.792   7.051  17.033  0.00  0.00    +0.000 N 
ATOM     22  H   UNL     1       8.465   6.418  16.607  0.00  0.00    +0.000 HD
BRANCH  21  24
ATOM     23  C   UNL     1       8.541   8.739  18.343  0.00  0.00    +0.000 C 
ATOM     24  N   UNL     1       8.033   8.373  17.209  0.00  0.00    +0.000 NA
BRANCH  23  26
ATOM     25  C   UNL     1       9.403  10.475  20.012  0.00  0.00    +0.000 C 
ATOM     26  C   UNL     1       8.909  10.159  18.630  0.00  0.00    +0.000 C 
ATOM     27  C   UNL     1       8.764  11.067  17.644  0.00  0.00    +0.000 C 
BRANCH  27  28
ATOM     28  C   UNL     1       9.149  12.481  17.776  0.00  0.00    +0.000 A 
ATOM     29  C   UNL     1      10.458  12.877  17.473  0.00  0.00    +0.000 A 
ATOM     30  C   UNL     1      10.845  14.215  17.592  0.00  0.00    +0.000 A 
ATOM     31  C   UNL     1       9.923  15.171  18.018  0.00  0.00    +0.000 A 
ATOM     32  C   UNL     1       8.620  14.787  18.327  0.00  0.00    +0.000 A 
ATOM     33  C   UNL     1       8.232  13.447  18.208  0.00  0.00    +0.000 A 
ENDBRANCH  27  28
ENDBRANCH  23  26
ENDBRANCH  21  24
ENDBRANCH   1  21
TORSDOF 8
ENDMDL
MODEL 2
REMARK VINA RESULT:      -7.9      2.224      8.380
REMARK  Name = 
REMARK  10 active torsions:
REMARK  status: ('A' for Active; 'I' for Inactive)
REMARK    1  A    between atoms: C_1  and  C_2
REMARK    2  A    between atoms: C_2  and  C_3
REMARK    3  A    between atoms: N_4  and  N_5
REMARK    4  A    between atoms: N_5  and  C_6
REMARK    5  A    between atoms: C_9  and  S_10
REMARK    6  A    between atoms: S_10  and  N_13
REMARK    7  A    between atoms: C_14  and  C_15
REMARK    8  A    between atoms: C_15  and  C_16
REMARK    9  A    between atoms: C_17  and  C_18
REMARK   10  A    between atoms: C_26  and  C_27
REMARK                            x       y       z     vdW  Elec       q    Type
REMARK                         _______ _______ _______ _____ _____    ______ ____
ROOT
ATOM      1  C   UNL     1       3.022   5.571  19.472  0.00  0.00    +0.000 A 
ATOM      2  C   UNL     1       4.200   4.857  19.738  0.00  0.00    +0.000 A 
ATOM      3  C   UNL     1       5.346   5.019  18.942  0.00  0.00    +0.000 A 
ATOM      4  C   UNL     1       5.319   5.899  17.857  0.00  0.00    +0.000 A 
ATOM      5  C   UNL     1       4.170   6.648  17.594  0.00  0.00    +0.000 A 
ATOM      6  C   UNL     1       3.039   6.490  18.410  0.00  0.00    +0.000 A 
ENDROOT
BRANCH   4   7
ATOM      7  S   UNL     1       6.777   6.114  16.842  0.00  0.00    +0.000 S 
ATOM      8  O   UNL     1       7.828   5.296  17.413  0.00  0.00    +0.000 OA
ATOM      9  O   UNL     1       6.371   5.916  15.463  0.00  0.00    +0.000 OA
BRANCH   7  10
ATOM     10  N   UNL     1       7.156   7.679  17.056  0.00  0.00    +0.000 NA
ATOM     11  C   UNL     1       8.028   7.962  17.964  0.00  0.00    +0.000 C 
BRANCH  11  12
ATOM     12  C   UNL     1       8.453   9.370  18.257  0.00  0.00    +0.000 C 
ATOM     13  C   UNL     1       7.828  10.463  17.441  0.00  0.00    +0.000 C 
ATOM     14  C   UNL     1       9.361   9.564  19.232  0.00  0.00    +0.000 C 
BRANCH  14  15
ATOM     15  C   UNL     1       9.838  10.894  19.645  0.00  0.00    +0.000 A 
ATOM     16  C   UNL     1      10.748  11.592  18.842  0.00  0.00    +0.000 A 
ATOM     17  C   UNL     1      11.207  12.856  19.227  0.00  0.00    +0.000 A 
ATOM     18  C   UNL     1      10.765  13.429  20.417  0.00  0.00    +0.000 A 
ATOM     19  C   UNL     1       9.862  12.739  21.225  0.00  0.00    +0.000 A 
ATOM     20  C   UNL     1       9.400  11.476  20.841  0.00  0.00    +0.000 A 
ENDBRANCH  14  15
ENDBRANCH  11  12
ENDBRANCH   7  10
ENDBRANCH   4   7
BRANCH   1  21
ATOM     21  N   UNL     1       1.909   5.438  20.327  0.00  0.00    +0.000 N 
ATOM     22  H   UNL     1       1.769   4.539  20.781  0.00  0.00    +0.000 HD
BRANCH  21  24
ATOM     23  C   UNL     1       1.458   7.565  20.958  0.00  0.00    +0.000 C 
ATOM     24  N   UNL     1       1.027   6.462  20.433  0.00  0.00    +0.000 NA
BRANCH  23  26
ATOM     25  C   UNL     1      -0.272   8.902  22.288  0.00  0.00    +0.000 C 
ATOM     26  C   UNL     1       0.598   8.783  21.070  0.00  0.00    +0.000 C 
ATOM     27  C   UNL     1       0.645   9.690  20.073  0.00  0.00    +0.000 C 
BRANCH  27  28
ATOM     28  C   UNL     1      -0.100  10.958  20.091  0.00  0.00    +0.000 A 
ATOM     29  C   UNL     1      -1.321  11.057  19.411  0.00  0.00    +0.000 A 
ATOM     30  C   UNL     1      -2.044  12.254  19.415  0.00  0.00    +0.000 A 
ATOM     31  C   UNL     1      -1.552  13.364  20.099  0.00  0.00    +0.000 A 
ATOM     32  C   UNL     1      -0.335  13.277  20.774  0.00  0.00    +0.000 A 
ATOM     33  C   UNL     1       0.390  12.080  20.770  0.00  0.00    +0.000 A 
ENDBRANCH  27  28
ENDBRANCH  23  26
ENDBRANCH  21  24
ENDBRANCH   1  21
TORSDOF 8
ENDMDL
MODEL 3
REMARK VINA RESULT:      -7.9      1.425      1.870
REMARK  Name = 
REMARK  10 active torsions:
REMARK  status: ('A' for Active; 'I' for Inactive)
REMARK    1  A    between atoms: C_1  and  C_2
REMARK    2  A    between atoms: C_2  and  C_3
REMARK    3  A    between atoms: N_4  and  N_5
REMARK    4  A    between atoms: N_5  and  C_6
REMARK    5  A    between atoms: C_9  and  S_10
REMARK    6  A    between atoms: S_10  and  N_13
REMARK    7  A    between atoms: C_14  and  C_15
REMARK    8  A    between atoms: C_15  and  C_16
REMARK    9  A    between atoms: C_17  and  C_18
REMARK   10  A    between atoms: C_26  and  C_27
REMARK                            x       y       z     vdW  Elec       q    Type
REMARK                         _______ _______ _______ _____ _____    ______ ____
ROOT
ATOM      1  C   UNL     1       6.417   5.670  17.264  0.00  0.00    +0.000 A 
ATOM      2  C   UNL     1       5.192   5.526  16.596  0.00  0.00    +0.000 A 
ATOM      3  C   UNL     1       4.036   5.104  17.275  0.00  0.00    +0.000 A 
ATOM      4  C   UNL     1       4.102   4.809  18.640  0.00  0.00    +0.000 A 
ATOM      5  C   UNL     1       5.301   4.979  19.334  0.00  0.00    +0.000 A 
ATOM      6  C   UNL     1       6.442   5.420  18.646  0.00  0.00    +0.000 A 
ENDROOT
BRANCH   4   7
ATOM      7  S   UNL     1       2.633   4.276  19.512  0.00  0.00    +0.000 S 
ATOM      8  O   UNL     1       1.905   3.385  18.630  0.00  0.00    +0.000 OA
ATOM      9  O   UNL     1       3.057   3.815  20.821  0.00  0.00    +0.000 OA
BRANCH   7  10
ATOM     10  N   UNL     1       1.783   5.648  19.690  0.00  0.00    +0.000 NA
ATOM     11  C   UNL     1       2.425   6.763  19.599  0.00  0.00    +0.000 C 
BRANCH  11  12
ATOM     12  C   UNL     1       1.749   8.093  19.752  0.00  0.00    +0.000 C 
ATOM     13  C   UNL     1       1.319   8.493  21.132  0.00  0.00    +0.000 C 
ATOM     14  C   UNL     1       1.575   8.843  18.647  0.00  0.00    +0.000 C 
BRANCH  14  15
ATOM     15  C   UNL     1       0.960  10.179  18.660  0.00  0.00    +0.000 A 
ATOM     16  C   UNL     1      -0.434  10.309  18.648  0.00  0.00    +0.000 A 
ATOM     17  C   UNL     1      -1.027  11.576  18.659  0.00  0.00    +0.000 A 
ATOM     18  C   UNL     1      -0.234  12.721  18.679  0.00  0.00    +0.000 A 
ATOM     19  C   UNL     1       1.156  12.600  18.687  0.00  0.00    +0.000 A 
ATOM     20  C   UNL     1       1.750  11.335  18.677  0.00  0.00    +0.000 A 
ENDBRANCH  14  15
ENDBRANCH  11  12
ENDBRANCH   7  10
ENDBRANCH   4   7
BRANCH   1  21
ATOM     21  N   UNL     1       7.544   6.159  16.572  0.00  0.00    +0.000 N 
ATOM     22  H   UNL     1       8.080   5.496  16.018  0.00  0.00    +0.000 HD
BRANCH  21  24
ATOM     23  C   UNL     1       7.891   7.917  17.954  0.00  0.00    +0.000 C 
ATOM     24  N   UNL     1       7.922   7.449  16.747  0.00  0.00    +0.000 NA
BRANCH  23  26
ATOM     25  C   UNL     1       7.754  10.428  17.481  0.00  0.00    +0.000 C 
ATOM     26  C   UNL     1       8.344   9.304  18.283  0.00  0.00    +0.000 C 
ATOM     27  C   UNL     1       9.258   9.461  19.262  0.00  0.00    +0.000 C 
BRANCH  27  28
ATOM     28  C   UNL     1       9.738  10.772  19.724  0.00  0.00    +0.000 A 
ATOM     29  C   UNL     1      10.727  11.447  18.997  0.00  0.00    +0.000 A 
ATOM     30  C   UNL     1      11.198  12.693  19.420  0.00  0.00    +0.000 A 
ATOM     31  C   UNL     1      10.683  13.277  20.577  0.00  0.00    +0.000 A 
ATOM     32  C   UNL     1       9.702  12.612  21.310  0.00  0.00    +0.000 A 
ATOM     33  C   UNL     1       9.231  11.363  20.888  0.00  0.00    +0.000 A 
ENDBRANCH  27  28
ENDBRANCH  23  26
ENDBRANCH  21  24
ENDBRANCH   1  21
TORSDOF 8
ENDMDL
MODEL 4
REMARK VINA RESULT:      -7.9      1.346      1.917
REMARK  Name = 
REMARK  10 active torsions:
REMARK  status: ('A' for Active; 'I' for Inactive)
REMARK    1  A    between atoms: C_1  and  C_2
REMARK    2  A    between atoms: C_2  and  C_3
REMARK    3  A    between atoms: N_4  and  N_5
REMARK    4  A    between atoms: N_5  and  C_6
REMARK    5  A    between atoms: C_9  and  S_10
REMARK    6  A    between atoms: S_10  and  N_13
REMARK    7  A    between atoms: C_14  and  C_15
REMARK    8  A    between atoms: C_15  and  C_16
REMARK    9  A    between atoms: C_17  and  C_18
REMARK   10  A    between atoms: C_26  and  C_27
REMARK                            x       y       z     vdW  Elec       q    Type
REMARK                         _______ _______ _______ _____ _____    ______ ____
ROOT
ATOM      1  C   UNL     1       6.359   5.984  17.366  0.00  0.00    +0.000 A 
ATOM      2  C   UNL     1       6.421   5.548  18.699  0.00  0.00    +0.000 A 
ATOM      3  C   UNL     1       5.270   5.115  19.379  0.00  0.00    +0.000 A 
ATOM      4  C   UNL     1       4.033   5.126  18.727  0.00  0.00    +0.000 A 
ATOM      5  C   UNL     1       3.952   5.521  17.390  0.00  0.00    +0.000 A 
ATOM      6  C   UNL     1       5.114   5.932  16.718  0.00  0.00    +0.000 A 
ENDROOT
BRANCH   4   7
ATOM      7  S   UNL     1       2.564   4.572  19.585  0.00  0.00    +0.000 S 
ATOM      8  O   UNL     1       1.764   3.823  18.635  0.00  0.00    +0.000 OA
ATOM      9  O   UNL     1       3.000   3.947  20.819  0.00  0.00    +0.000 OA
BRANCH   7  10
ATOM     10  N   UNL     1       1.794   5.956  19.942  0.00  0.00    +0.000 NA
ATOM     11  C   UNL     1       2.214   7.036  19.375  0.00  0.00    +0.000 C 
BRANCH  11  12
ATOM     12  C   UNL     1       1.586   8.373  19.631  0.00  0.00    +0.000 C 
ATOM     13  C   UNL     1       1.231   8.708  21.050  0.00  0.00    +0.000 C 
ATOM     14  C   UNL     1       1.386   9.188  18.578  0.00  0.00    +0.000 C 
BRANCH  14  15
ATOM     15  C   UNL     1       0.813  10.539  18.693  0.00  0.00    +0.000 A 
ATOM     16  C   UNL     1       1.656  11.655  18.750  0.00  0.00    +0.000 A 
ATOM     17  C   UNL     1       1.120  12.942  18.860  0.00  0.00    +0.000 A 
ATOM     18  C   UNL     1      -0.260  13.124  18.916  0.00  0.00    +0.000 A 
ATOM     19  C   UNL     1      -1.107  12.017  18.863  0.00  0.00    +0.000 A 
ATOM     20  C   UNL     1      -0.573  10.730  18.753  0.00  0.00    +0.000 A 
ENDBRANCH  14  15
ENDBRANCH  11  12
ENDBRANCH   7  10
ENDBRANCH   4   7
BRANCH   1  21
ATOM     21  N   UNL     1       7.540   6.349  16.689  0.00  0.00    +0.000 N 
ATOM     22  H   UNL     1       8.041   5.619  16.189  0.00  0.00    +0.000 HD
BRANCH  21  24
ATOM     23  C   UNL     1       7.897   8.181  17.969  0.00  0.00    +0.000 C 
ATOM     24  N   UNL     1       8.010   7.615  16.810  0.00  0.00    +0.000 NA
BRANCH  23  26
ATOM     25  C   UNL     1       7.909  10.676  17.401  0.00  0.00    +0.000 C 
ATOM     26  C   UNL     1       8.434   9.550  18.243  0.00  0.00    +0.000 C 
ATOM     27  C   UNL     1       9.361   9.688  19.213  0.00  0.00    +0.000 C 
BRANCH  27  28
ATOM     28  C   UNL     1       9.922  10.984  19.624  0.00  0.00    +0.000 A 
ATOM     29  C   UNL     1       9.376  11.663  20.721  0.00  0.00    +0.000 A 
ATOM     30  C   UNL     1       9.893  12.897  21.127  0.00  0.00    +0.000 A 
ATOM     31  C   UNL     1      10.964  13.464  20.438  0.00  0.00    +0.000 A 
ATOM     32  C   UNL     1      11.512  12.799  19.342  0.00  0.00    +0.000 A 
ATOM     33  C   UNL     1      10.994  11.565  18.934  0.00  0.00    +0.000 A 
ENDBRANCH  27  28
ENDBRANCH  23  26
ENDBRANCH  21  24
ENDBRANCH   1  21
TORSDOF 8
ENDMDL
MODEL 5
REMARK VINA RESULT:      -7.7      5.219      9.506
REMARK  Name = 
REMARK  10 active torsions:
REMARK  status: ('A' for Active; 'I' for Inactive)
REMARK    1  A    between atoms: C_1  and  C_2
REMARK    2  A    between atoms: C_2  and  C_3
REMARK    3  A    between atoms: N_4  and  N_5
REMARK    4  A    between atoms: N_5  and  C_6
REMARK    5  A    between atoms: C_9  and  S_10
REMARK    6  A    between atoms: S_10  and  N_13
REMARK    7  A    between atoms: C_14  and  C_15
REMARK    8  A    between atoms: C_15  and  C_16
REMARK    9  A    between atoms: C_17  and  C_18
REMARK   10  A    between atoms: C_26  and  C_27
REMARK                            x       y       z     vdW  Elec       q    Type
REMARK                         _______ _______ _______ _____ _____    ______ ____
ROOT
ATOM      1  C   UNL     1       1.869   7.765  19.570  0.00  0.00    +0.000 A 
ATOM      2  C   UNL     1       2.242   7.257  18.316  0.00  0.00    +0.000 A 
ATOM      3  C   UNL     1       2.572   5.902  18.147  0.00  0.00    +0.000 A 
ATOM      4  C   UNL     1       2.541   5.038  19.245  0.00  0.00    +0.000 A 
ATOM      5  C   UNL     1       2.138   5.512  20.496  0.00  0.00    +0.000 A 
ATOM      6  C   UNL     1       1.793   6.864  20.644  0.00  0.00    +0.000 A 
ENDROOT
BRANCH   4   7
ATOM      7  S   UNL     1       2.955   3.310  19.037  0.00  0.00    +0.000 S 
ATOM      8  O   UNL     1       3.757   2.915  20.179  0.00  0.00    +0.000 OA
ATOM      9  O   UNL     1       1.721   2.607  18.739  0.00  0.00    +0.000 OA
BRANCH   7  10
ATOM     10  N   UNL     1       3.894   3.305  17.712  0.00  0.00    +0.000 NA
ATOM     11  C   UNL     1       4.877   4.140  17.675  0.00  0.00    +0.000 C 
BRANCH  11  12
ATOM     12  C   UNL     1       5.808   4.233  16.503  0.00  0.00    +0.000 C 
ATOM     13  C   UNL     1       7.276   4.331  16.796  0.00  0.00    +0.000 C 
ATOM     14  C   UNL     1       5.271   4.218  15.269  0.00  0.00    +0.000 C 
BRANCH  14  15
ATOM     15  C   UNL     1       6.070   4.267  14.034  0.00  0.00    +0.000 A 
ATOM     16  C   UNL     1       7.142   5.161  13.928  0.00  0.00    +0.000 A 
ATOM     17  C   UNL     1       7.906   5.215  12.758  0.00  0.00    +0.000 A 
ATOM     18  C   UNL     1       7.604   4.379  11.685  0.00  0.00    +0.000 A 
ATOM     19  C   UNL     1       6.536   3.487  11.781  0.00  0.00    +0.000 A 
ATOM     20  C   UNL     1       5.772   3.431  12.951  0.00  0.00    +0.000 A 
ENDBRANCH  14  15
ENDBRANCH  11  12
ENDBRANCH   7  10
ENDBRANCH   4   7
BRANCH   1  21
ATOM     21  N   UNL     1       1.479   9.114  19.695  0.00  0.00    +0.000 N 
ATOM     22  H   UNL     1       1.987   9.804  19.148  0.00  0.00    +0.000 HD
BRANCH  21  24
ATOM     23  C   UNL     1       0.620  10.612  21.158  0.00  0.00    +0.000 C 
ATOM     24  N   UNL     1       0.527   9.448  20.600  0.00  0.00    +0.000 NA
BRANCH  23  26
ATOM     25  C   UNL     1      -0.747  10.234  23.288  0.00  0.00    +0.000 C 
ATOM     26  C   UNL     1      -0.404  11.118  22.123  0.00  0.00    +0.000 C 
ATOM     27  C   UNL     1      -0.964  12.321  21.886  0.00  0.00    +0.000 C 
BRANCH  27  28
ATOM     28  C   UNL     1      -1.935  12.960  22.788  0.00  0.00    +0.000 A 
ATOM     29  C   UNL     1      -1.529  14.021  23.607  0.00  0.00    +0.000 A 
ATOM     30  C   UNL     1      -2.436  14.641  24.473  0.00  0.00    +0.000 A 
ATOM     31  C   UNL     1      -3.758  14.204  24.527  0.00  0.00    +0.000 A 
ATOM     32  C   UNL     1      -4.171  13.145  23.720  0.00  0.00    +0.000 A 
ATOM     33  C   UNL     1      -3.264  12.523  22.854  0.00  0.00    +0.000 A 
ENDBRANCH  27  28
ENDBRANCH  23  26
ENDBRANCH  21  24
ENDBRANCH   1  21
TORSDOF 8
ENDMDL
MODEL 6
REMARK VINA RESULT:      -7.7      4.571     10.037
REMARK  Name = 
REMARK  10 active torsions:
REMARK  status: ('A' for Active; 'I' for Inactive)
REMARK    1  A    between atoms: C_1  and  C_2
REMARK    2  A    between atoms: C_2  and  C_3
REMARK    3  A    between atoms: N_4  and  N_5
REMARK    4  A    between atoms: N_5  and  C_6
REMARK    5  A    between atoms: C_9  and  S_10
REMARK    6  A    between atoms: S_10  and  N_13
REMARK    7  A    between atoms: C_14  and  C_15
REMARK    8  A    between atoms: C_15  and  C_16
REMARK    9  A    between atoms: C_17  and  C_18
REMARK   10  A    between atoms: C_26  and  C_27
REMARK                            x       y       z     vdW  Elec       q    Type
REMARK                         _______ _______ _______ _____ _____    ______ ____
ROOT
ATOM      1  C   UNL     1       1.815  12.541  18.869  0.00  0.00    +0.000 A 
ATOM      2  C   UNL     1       1.775  13.040  20.180  0.00  0.00    +0.000 A 
ATOM      3  C   UNL     1       2.536  14.159  20.559  0.00  0.00    +0.000 A 
ATOM      4  C   UNL     1       3.359  14.788  19.620  0.00  0.00    +0.000 A 
ATOM      5  C   UNL     1       3.388  14.333  18.300  0.00  0.00    +0.000 A 
ATOM      6  C   UNL     1       2.608  13.225  17.933  0.00  0.00    +0.000 A 
ENDROOT
BRANCH   4   7
ATOM      7  S   UNL     1       4.327  16.216  20.093  0.00  0.00    +0.000 S 
ATOM      8  O   UNL     1       3.844  17.343  19.319  0.00  0.00    +0.000 OA
ATOM      9  O   UNL     1       4.322  16.275  21.543  0.00  0.00    +0.000 OA
BRANCH   7  10
ATOM     10  N   UNL     1       5.824  15.839  19.589  0.00  0.00    +0.000 NA
ATOM     11  C   UNL     1       6.477  14.956  20.267  0.00  0.00    +0.000 C 
BRANCH  11  12
ATOM     12  C   UNL     1       7.868  14.531  19.902  0.00  0.00    +0.000 C 
ATOM     13  C   UNL     1       8.900  14.544  20.991  0.00  0.00    +0.000 C 
ATOM     14  C   UNL     1       8.101  14.161  18.629  0.00  0.00    +0.000 C 
BRANCH  14  15
ATOM     15  C   UNL     1       9.408  13.689  18.145  0.00  0.00    +0.000 A 
ATOM     16  C   UNL     1       9.696  12.319  18.126  0.00  0.00    +0.000 A 
ATOM     17  C   UNL     1      10.936  11.863  17.669  0.00  0.00    +0.000 A 
ATOM     18  C   UNL     1      11.898  12.770  17.231  0.00  0.00    +0.000 A 
ATOM     19  C   UNL     1      11.622  14.136  17.250  0.00  0.00    +0.000 A 
ATOM     20  C   UNL     1      10.382  14.595  17.706  0.00  0.00    +0.000 A 
ENDBRANCH  14  15
ENDBRANCH  11  12
ENDBRANCH   7  10
ENDBRANCH   4   7
BRANCH   1  21
ATOM     21  N   UNL     1       0.991  11.459  18.502  0.00  0.00    +0.000 N 
ATOM     22  H   UNL     1       0.176  11.661  17.928  0.00  0.00    +0.000 HD
BRANCH  21  24
ATOM     23  C   UNL     1       1.827   9.375  18.211  0.00  0.00    +0.000 C 
ATOM     24  N   UNL     1       1.253  10.226  19.001  0.00  0.00    +0.000 NA
BRANCH  23  26
ATOM     25  C   UNL     1       1.905   7.635  20.085  0.00  0.00    +0.000 C 
ATOM     26  C   UNL     1       2.224   8.007  18.666  0.00  0.00    +0.000 C 
ATOM     27  C   UNL     1       2.851   7.200  17.787  0.00  0.00    +0.000 C 
BRANCH  27  28
ATOM     28  C   UNL     1       3.236   5.812  18.087  0.00  0.00    +0.000 A 
ATOM     29  C   UNL     1       4.496   5.543  18.636  0.00  0.00    +0.000 A 
ATOM     30  C   UNL     1       4.882   4.231  18.928  0.00  0.00    +0.000 A 
ATOM     31  C   UNL     1       4.009   3.175  18.671  0.00  0.00    +0.000 A 
ATOM     32  C   UNL     1       2.754   3.432  18.121  0.00  0.00    +0.000 A 
ATOM     33  C   UNL     1       2.368   4.745  17.827  0.00  0.00    +0.000 A 
ENDBRANCH  27  28
ENDBRANCH  23  26
ENDBRANCH  21  24
ENDBRANCH   1  21
TORSDOF 8
ENDMDL
MODEL 7
REMARK VINA RESULT:      -7.6      2.294      7.980
REMARK  Name = 
REMARK  10 active torsions:
REMARK  status: ('A' for Active; 'I' for Inactive)
REMARK    1  A    between atoms: C_1  and  C_2
REMARK    2  A    between atoms: C_2  and  C_3
REMARK    3  A    between atoms: N_4  and  N_5
REMARK    4  A    between atoms: N_5  and  C_6
REMARK    5  A    between atoms: C_9  and  S_10
REMARK    6  A    between atoms: S_10  and  N_13
REMARK    7  A    between atoms: C_14  and  C_15
REMARK    8  A    between atoms: C_15  and  C_16
REMARK    9  A    between atoms: C_17  and  C_18
REMARK   10  A    between atoms: C_26  and  C_27
REMARK                            x       y       z     vdW  Elec       q    Type
REMARK                         _______ _______ _______ _____ _____    ______ ____
ROOT
ATOM      1  C   UNL     1       3.252   5.433  19.187  0.00  0.00    +0.000 A 
ATOM      2  C   UNL     1       3.160   5.746  17.822  0.00  0.00    +0.000 A 
ATOM      3  C   UNL     1       4.305   5.823  17.012  0.00  0.00    +0.000 A 
ATOM      4  C   UNL     1       5.567   5.596  17.570  0.00  0.00    +0.000 A 
ATOM      5  C   UNL     1       5.682   5.248  18.918  0.00  0.00    +0.000 A 
ATOM      6  C   UNL     1       4.526   5.155  19.709  0.00  0.00    +0.000 A 
ENDROOT
BRANCH   4   7
ATOM      7  S   UNL     1       7.030   5.689  16.544  0.00  0.00    +0.000 S 
ATOM      8  O   UNL     1       8.027   4.816  17.132  0.00  0.00    +0.000 OA
ATOM      9  O   UNL     1       6.604   5.484  15.173  0.00  0.00    +0.000 OA
BRANCH   7  10
ATOM     10  N   UNL     1       7.513   7.229  16.718  0.00  0.00    +0.000 NA
ATOM     11  C   UNL     1       7.791   7.636  17.910  0.00  0.00    +0.000 C 
BRANCH  11  12
ATOM     12  C   UNL     1       8.241   9.038  18.195  0.00  0.00    +0.000 C 
ATOM     13  C   UNL     1       7.622  10.139  17.385  0.00  0.00    +0.000 C 
ATOM     14  C   UNL     1       9.163   9.220  19.159  0.00  0.00    +0.000 C 
BRANCH  14  15
ATOM     15  C   UNL     1       9.666  10.543  19.563  0.00  0.00    +0.000 A 
ATOM     16  C   UNL     1      10.565  11.233  18.740  0.00  0.00    +0.000 A 
ATOM     17  C   UNL     1      11.048  12.490  19.117  0.00  0.00    +0.000 A 
ATOM     18  C   UNL     1      10.640  13.066  20.319  0.00  0.00    +0.000 A 
ATOM     19  C   UNL     1       9.748  12.384  21.146  0.00  0.00    +0.000 A 
ATOM     20  C   UNL     1       9.263  11.128  20.770  0.00  0.00    +0.000 A 
ENDBRANCH  14  15
ENDBRANCH  11  12
ENDBRANCH   7  10
ENDBRANCH   4   7
BRANCH   1  21
ATOM     21  N   UNL     1       2.081   5.297  19.959  0.00  0.00    +0.000 N 
ATOM     22  H   UNL     1       1.632   4.385  19.976  0.00  0.00    +0.000 HD
BRANCH  21  24
ATOM     23  C   UNL     1       1.915   7.549  20.108  0.00  0.00    +0.000 C 
ATOM     24  N   UNL     1       1.551   6.391  20.558  0.00  0.00    +0.000 NA
BRANCH  23  26
ATOM     25  C   UNL     1       1.303   8.983  22.137  0.00  0.00    +0.000 C 
ATOM     26  C   UNL     1       1.351   8.826  20.644  0.00  0.00    +0.000 C 
ATOM     27  C   UNL     1       0.909   9.747  19.764  0.00  0.00    +0.000 C 
BRANCH  27  28
ATOM     28  C   UNL     1       0.392  11.067  20.158  0.00  0.00    +0.000 A 
ATOM     29  C   UNL     1       1.248  12.175  20.166  0.00  0.00    +0.000 A 
ATOM     30  C   UNL     1       0.777  13.438  20.538  0.00  0.00    +0.000 A 
ATOM     31  C   UNL     1      -0.557  13.604  20.906  0.00  0.00    +0.000 A 
ATOM     32  C   UNL     1      -1.417  12.506  20.905  0.00  0.00    +0.000 A 
ATOM     33  C   UNL     1      -0.945  11.241  20.534  0.00  0.00    +0.000 A 
ENDBRANCH  27  28
ENDBRANCH  23  26
ENDBRANCH  21  24
ENDBRANCH   1  21
TORSDOF 8
ENDMDL
MODEL 8
REMARK VINA RESULT:      -7.6      5.237      9.231
REMARK  Name = 
REMARK  10 active torsions:
REMARK  status: ('A' for Active; 'I' for Inactive)
REMARK    1  A    between atoms: C_1  and  C_2
REMARK    2  A    between atoms: C_2  and  C_3
REMARK    3  A    between atoms: N_4  and  N_5
REMARK    4  A    between atoms: N_5  and  C_6
REMARK    5  A    between atoms: C_9  and  S_10
REMARK    6  A    between atoms: S_10  and  N_13
REMARK    7  A    between atoms: C_14  and  C_15
REMARK    8  A    between atoms: C_15  and  C_16
REMARK    9  A    between atoms: C_17  and  C_18
REMARK   10  A    between atoms: C_26  and  C_27
REMARK                            x       y       z     vdW  Elec       q    Type
REMARK                         _______ _______ _______ _____ _____    ______ ____
ROOT
ATOM      1  C   UNL     1       8.161   9.324  17.774  0.00  0.00    +0.000 A 
ATOM      2  C   UNL     1       8.909   9.087  18.937  0.00  0.00    +0.000 A 
ATOM      3  C   UNL     1       9.530  10.139  19.632  0.00  0.00    +0.000 A 
ATOM      4  C   UNL     1       9.414  11.449  19.156  0.00  0.00    +0.000 A 
ATOM      5  C   UNL     1       8.645  11.714  18.021  0.00  0.00    +0.000 A 
ATOM      6  C   UNL     1       8.014  10.654  17.350  0.00  0.00    +0.000 A 
ENDROOT
BRANCH   4   7
ATOM      7  S   UNL     1      10.198  12.794  20.037  0.00  0.00    +0.000 S 
ATOM      8  O   UNL     1      11.408  12.270  20.641  0.00  0.00    +0.000 OA
ATOM      9  O   UNL     1      10.270  13.919  19.124  0.00  0.00    +0.000 OA
BRANCH   7  10
ATOM     10  N   UNL     1       9.135  13.142  21.214  0.00  0.00    +0.000 NA
ATOM     11  C   UNL     1       8.758  12.176  21.983  0.00  0.00    +0.000 C 
BRANCH  11  12
ATOM     12  C   UNL     1       7.776  12.375  23.098  0.00  0.00    +0.000 C 
ATOM     13  C   UNL     1       6.658  13.349  22.868  0.00  0.00    +0.000 C 
ATOM     14  C   UNL     1       7.955  11.667  24.229  0.00  0.00    +0.000 C 
BRANCH  14  15
ATOM     15  C   UNL     1       7.048  11.739  25.386  0.00  0.00    +0.000 A 
ATOM     16  C   UNL     1       7.399  12.502  26.505  0.00  0.00    +0.000 A 
ATOM     17  C   UNL     1       6.543  12.576  27.609  0.00  0.00    +0.000 A 
ATOM     18  C   UNL     1       5.333  11.885  27.605  0.00  0.00    +0.000 A 
ATOM     19  C   UNL     1       4.977  11.119  26.495  0.00  0.00    +0.000 A 
ATOM     20  C   UNL     1       5.831  11.046  25.390  0.00  0.00    +0.000 A 
ENDBRANCH  14  15
ENDBRANCH  11  12
ENDBRANCH   7  10
ENDBRANCH   4   7
BRANCH   1  21
ATOM     21  N   UNL     1       7.494   8.258  17.137  0.00  0.00    +0.000 N 
ATOM     22  H   UNL     1       7.551   8.206  16.123  0.00  0.00    +0.000 HD
BRANCH  21  24
ATOM     23  C   UNL     1       5.804   6.757  17.258  0.00  0.00    +0.000 C 
ATOM     24  N   UNL     1       6.733   7.415  17.876  0.00  0.00    +0.000 NA
BRANCH  23  26
ATOM     25  C   UNL     1       5.637   4.648  18.698  0.00  0.00    +0.000 C 
ATOM     26  C   UNL     1       4.943   5.751  17.953  0.00  0.00    +0.000 C 
ATOM     27  C   UNL     1       3.604   5.886  17.859  0.00  0.00    +0.000 C 
BRANCH  27  28
ATOM     28  C   UNL     1       2.648   5.004  18.546  0.00  0.00    +0.000 A 
ATOM     29  C   UNL     1       2.237   5.306  19.851  0.00  0.00    +0.000 A 
ATOM     30  C   UNL     1       1.329   4.481  20.522  0.00  0.00    +0.000 A 
ATOM     31  C   UNL     1       0.823   3.344  19.893  0.00  0.00    +0.000 A 
ATOM     32  C   UNL     1       1.229   3.033  18.596  0.00  0.00    +0.000 A 
ATOM     33  C   UNL     1       2.139   3.858  17.924  0.00  0.00    +0.000 A 
ENDBRANCH  27  28
ENDBRANCH  23  26
ENDBRANCH  21  24
ENDBRANCH   1  21
TORSDOF 8
ENDMDL
MODEL 9
REMARK VINA RESULT:      -7.6      1.656      2.264
REMARK  Name = 
REMARK  10 active torsions:
REMARK  status: ('A' for Active; 'I' for Inactive)
REMARK    1  A    between atoms: C_1  and  C_2
REMARK    2  A    between atoms: C_2  and  C_3
REMARK    3  A    between atoms: N_4  and  N_5
REMARK    4  A    between atoms: N_5  and  C_6
REMARK    5  A    between atoms: C_9  and  S_10
REMARK    6  A    between atoms: S_10  and  N_13
REMARK    7  A    between atoms: C_14  and  C_15
REMARK    8  A    between atoms: C_15  and  C_16
REMARK    9  A    between atoms: C_17  and  C_18
REMARK   10  A    between atoms: C_26  and  C_27
REMARK                            x       y       z     vdW  Elec       q    Type
REMARK                         _______ _______ _______ _____ _____    ______ ____
ROOT
ATOM      1  C   UNL     1       7.363   7.225  17.624  0.00  0.00    +0.000 A 
ATOM      2  C   UNL     1       6.144   7.010  16.962  0.00  0.00    +0.000 A 
ATOM      3  C   UNL     1       5.283   5.967  17.341  0.00  0.00    +0.000 A 
ATOM      4  C   UNL     1       5.644   5.115  18.388  0.00  0.00    +0.000 A 
ATOM      5  C   UNL     1       6.835   5.331  19.086  0.00  0.00    +0.000 A 
ATOM      6  C   UNL     1       7.675   6.390  18.708  0.00  0.00    +0.000 A 
ENDROOT
BRANCH   4   7
ATOM      7  S   UNL     1       4.550   3.786  18.879  0.00  0.00    +0.000 S 
ATOM      8  O   UNL     1       3.952   3.249  17.673  0.00  0.00    +0.000 OA
ATOM      9  O   UNL     1       5.303   2.918  19.765  0.00  0.00    +0.000 OA
BRANCH   7  10
ATOM     10  N   UNL     1       3.402   4.544  19.741  0.00  0.00    +0.000 NA
ATOM     11  C   UNL     1       3.050   5.725  19.357  0.00  0.00    +0.000 C 
BRANCH  11  12
ATOM     12  C   UNL     1       2.005   6.525  20.076  0.00  0.00    +0.000 C 
ATOM     13  C   UNL     1       0.936   5.765  20.804  0.00  0.00    +0.000 C 
ATOM     14  C   UNL     1       2.094   7.867  20.027  0.00  0.00    +0.000 C 
BRANCH  14  15
ATOM     15  C   UNL     1       1.157   8.770  20.716  0.00  0.00    +0.000 A 
ATOM     16  C   UNL     1       1.109   8.795  22.115  0.00  0.00    +0.000 A 
ATOM     17  C   UNL     1       0.222   9.649  22.778  0.00  0.00    +0.000 A 
ATOM     18  C   UNL     1      -0.626  10.480  22.049  0.00  0.00    +0.000 A 
ATOM     19  C   UNL     1      -0.587  10.459  20.655  0.00  0.00    +0.000 A 
ATOM     20  C   UNL     1       0.301   9.607  19.991  0.00  0.00    +0.000 A 
ENDBRANCH  14  15
ENDBRANCH  11  12
ENDBRANCH   7  10
ENDBRANCH   4   7
BRANCH   1  21
ATOM     21  N   UNL     1       8.175   8.321  17.266  0.00  0.00    +0.000 N 
ATOM     22  H   UNL     1       8.832   8.190  16.501  0.00  0.00    +0.000 HD
BRANCH  21  24
ATOM     23  C   UNL     1       9.202   9.811  18.625  0.00  0.00    +0.000 C 
ATOM     24  N   UNL     1       8.122   9.455  18.006  0.00  0.00    +0.000 NA
BRANCH  23  26
ATOM     25  C   UNL     1       9.282  10.947  20.916  0.00  0.00    +0.000 C 
ATOM     26  C   UNL     1       9.286  11.075  19.420  0.00  0.00    +0.000 C 
ATOM     27  C   UNL     1       9.345  12.244  18.753  0.00  0.00    +0.000 C 
BRANCH  27  28
ATOM     28  C   UNL     1       9.494  13.551  19.412  0.00  0.00    +0.000 A 
ATOM     29  C   UNL     1      10.740  13.934  19.924  0.00  0.00    +0.000 A 
ATOM     30  C   UNL     1      10.902  15.172  20.555  0.00  0.00    +0.000 A 
ATOM     31  C   UNL     1       9.817  16.038  20.680  0.00  0.00    +0.000 A 
ATOM     32  C   UNL     1       8.572  15.664  20.178  0.00  0.00    +0.000 A 
ATOM     33  C   UNL     1       8.408  14.425  19.547  0.00  0.00    +0.000 A 
ENDBRANCH  27  28
ENDBRANCH  23  26
ENDBRANCH  21  24
ENDBRANCH   1  21
TORSDOF 8
ENDMDL
