MODEL 1
REMARK VINA RESULT:      -7.2      0.000      0.000
REMARK  Name = 
REMARK  6 active torsions:
REMARK  status: ('A' for Active; 'I' for Inactive)
REMARK    1  A    between atoms: C_1  and  N_2
REMARK    2  A    between atoms: N_2  and  C_3
REMARK    3  A    between atoms: C_4  and  C_6
REMARK    4  A    between atoms: C_9  and  C_10
REMARK    5  A    between atoms: N_12  and  C_13
REMARK    6  A    between atoms: C_19  and  C_20
REMARK                            x       y       z     vdW  Elec       q    Type
REMARK                         _______ _______ _______ _____ _____    ______ ____
ROOT
ATOM      1  C   UNL     1       0.315  11.512  21.512  0.00  0.00    +0.000 A 
ATOM      2  C   UNL     1      -0.664  11.233  22.477  0.00  0.00    +0.000 A 
ATOM      3  C   UNL     1      -1.352  12.269  23.114  0.00  0.00    +0.000 A 
ATOM      4  C   UNL     1      -1.090  13.590  22.766  0.00  0.00    +0.000 A 
ATOM      5 CL   UNL     1      -1.976  14.860  23.513  0.00  0.00    +0.000 Cl
ATOM      6  C   UNL     1      -0.110  13.887  21.820  0.00  0.00    +0.000 A 
ATOM      7  C   UNL     1       0.615  12.851  21.210  0.00  0.00    +0.000 A 
ENDROOT
BRANCH   7   8
ATOM      8  C   UNL     1       1.674  13.243  20.251  0.00  0.00    +0.000 C 
ATOM      9  O   UNL     1       1.741  12.645  19.176  0.00  0.00    +0.000 OA
ATOM     10  N   UNL     1       2.555  14.218  20.673  0.00  0.00    +0.000 N 
ATOM     11  C   UNL     1       3.681  14.597  19.943  0.00  0.00    +0.000 A 
ATOM     12  C   UNL     1       3.656  14.760  18.560  0.00  0.00    +0.000 A 
ATOM     13  C   UNL     1       4.842  15.085  17.898  0.00  0.00    +0.000 A 
ATOM     14  C   UNL     1       6.013  15.206  18.633  0.00  0.00    +0.000 A 
ATOM     15 CL   UNL     1       7.509  15.524  17.857  0.00  0.00    +0.000 Cl
ATOM     16  C   UNL     1       5.939  15.053  20.008  0.00  0.00    +0.000 A 
ATOM     17  N   UNL     1       4.789  14.796  20.682  0.00  0.00    +0.000 NA
ATOM     18  H   UNL     1       2.674  14.337  21.676  0.00  0.00    +0.000 HD
ENDBRANCH   7   8
BRANCH   1  21
ATOM     19  C   UNL     1       0.521   9.665  19.883  0.00  0.00    +0.000 C 
ATOM     20  O   UNL     1      -0.597   9.841  19.399  0.00  0.00    +0.000 OA
ATOM     21  N   UNL     1       1.027  10.456  20.907  0.00  0.00    +0.000 N 
ATOM     22  H   UNL     1       2.039  10.452  20.990  0.00  0.00    +0.000 HD
BRANCH  19  26
ATOM     23  C   UNL     1       2.783   6.729  19.199  0.00  0.00    +0.000 A 
ATOM     24  C   UNL     1       3.005   7.347  17.984  0.00  0.00    +0.000 A 
ATOM     25  S   UNL     1       2.176   8.828  17.818  0.00  0.00    +0.000 S 
ATOM     26  C   UNL     1       1.447   8.669  19.359  0.00  0.00    +0.000 A 
ATOM     27  C   UNL     1       1.847   7.500  19.978  0.00  0.00    +0.000 A 
BRANCH  23  31
ATOM     28  C   UNL     1       2.761   3.274  20.637  0.00  0.00    +0.000 C 
ATOM     29  N   UNL     1       2.451   4.378  19.735  0.00  0.00    +0.000 N 
ATOM     30  C   UNL     1       1.485   4.073  18.680  0.00  0.00    +0.000 C 
ATOM     31  C   UNL     1       3.335   5.433  19.602  0.00  0.00    +0.000 C 
ATOM     32  N   UNL     1       4.603   5.404  19.828  0.00  0.00    +0.000 NA
ATOM     33  H   UNL     1       4.886   4.463  20.092  0.00  0.00    +0.000 HD
ENDBRANCH  23  31
ENDBRANCH  19  26
ENDBRANCH   1  21
TORSDOF 4
ENDMDL
MODEL 2
REMARK VINA RESULT:      -7.2      1.216      1.485
REMARK  Name = 
REMARK  6 active torsions:
REMARK  status: ('A' for Active; 'I' for Inactive)
REMARK    1  A    between atoms: C_1  and  N_2
REMARK    2  A    between atoms: N_2  and  C_3
REMARK    3  A    between atoms: C_4  and  C_6
REMARK    4  A    between atoms: C_9  and  C_10
REMARK    5  A    between atoms: N_12  and  C_13
REMARK    6  A    between atoms: C_19  and  C_20
REMARK                            x       y       z     vdW  Elec       q    Type
REMARK                         _______ _______ _______ _____ _____    ______ ____
ROOT
ATOM      1  C   UNL     1      -0.069  10.984  21.393  0.00  0.00    +0.000 A 
ATOM      2  C   UNL     1      -1.033  10.678  22.364  0.00  0.00    +0.000 A 
ATOM      3  C   UNL     1      -1.575  11.681  23.172  0.00  0.00    +0.000 A 
ATOM      4  C   UNL     1      -1.180  13.003  22.991  0.00  0.00    +0.000 A 
ATOM      5 CL   UNL     1      -1.888  14.243  23.950  0.00  0.00    +0.000 Cl
ATOM      6  C   UNL     1      -0.213  13.324  22.041  0.00  0.00    +0.000 A 
ATOM      7  C   UNL     1       0.367  12.313  21.258  0.00  0.00    +0.000 A 
ENDROOT
BRANCH   7   8
ATOM      8  C   UNL     1       1.424  12.721  20.304  0.00  0.00    +0.000 C 
ATOM      9  O   UNL     1       1.616  12.021  19.307  0.00  0.00    +0.000 OA
ATOM     10  N   UNL     1       2.165  13.833  20.646  0.00  0.00    +0.000 N 
ATOM     11  C   UNL     1       3.278  14.262  19.922  0.00  0.00    +0.000 A 
ATOM     12  C   UNL     1       3.308  14.269  18.529  0.00  0.00    +0.000 A 
ATOM     13  C   UNL     1       4.482  14.658  17.883  0.00  0.00    +0.000 A 
ATOM     14  C   UNL     1       5.591  14.996  18.645  0.00  0.00    +0.000 A 
ATOM     15 CL   UNL     1       7.081  15.403  17.898  0.00  0.00    +0.000 Cl
ATOM     16  C   UNL     1       5.463  14.987  20.025  0.00  0.00    +0.000 A 
ATOM     17  N   UNL     1       4.315  14.670  20.678  0.00  0.00    +0.000 NA
ATOM     18  H   UNL     1       2.217  14.075  21.633  0.00  0.00    +0.000 HD
ENDBRANCH   7   8
BRANCH   1  21
ATOM     19  C   UNL     1       1.348   8.978  21.117  0.00  0.00    +0.000 C 
ATOM     20  O   UNL     1       1.662   8.921  22.305  0.00  0.00    +0.000 OA
ATOM     21  N   UNL     1       0.496   9.953  20.614  0.00  0.00    +0.000 N 
ATOM     22  H   UNL     1       0.045   9.715  19.736  0.00  0.00    +0.000 HD
BRANCH  19  26
ATOM     23  C   UNL     1       2.341   5.883  19.210  0.00  0.00    +0.000 A 
ATOM     24  C   UNL     1       2.489   6.744  18.141  0.00  0.00    +0.000 A 
ATOM     25  S   UNL     1       2.168   8.372  18.535  0.00  0.00    +0.000 S 
ATOM     26  C   UNL     1       1.769   7.971  20.152  0.00  0.00    +0.000 A 
ATOM     27  C   UNL     1       1.891   6.612  20.369  0.00  0.00    +0.000 A 
BRANCH  23  31
ATOM     28  C   UNL     1       3.774   2.627  18.048  0.00  0.00    +0.000 C 
ATOM     29  N   UNL     1       3.713   3.949  18.661  0.00  0.00    +0.000 N 
ATOM     30  C   UNL     1       4.989   4.471  19.151  0.00  0.00    +0.000 C 
ATOM     31  C   UNL     1       2.515   4.429  19.156  0.00  0.00    +0.000 C 
ATOM     32  N   UNL     1       1.512   3.725  19.552  0.00  0.00    +0.000 NA
ATOM     33  H   UNL     1       1.735   2.735  19.483  0.00  0.00    +0.000 HD
ENDBRANCH  23  31
ENDBRANCH  19  26
ENDBRANCH   1  21
TORSDOF 4
ENDMDL
MODEL 3
REMARK VINA RESULT:      -7.1      0.692      1.050
REMARK  Name = 
REMARK  6 active torsions:
REMARK  status: ('A' for Active; 'I' for Inactive)
REMARK    1  A    between atoms: C_1  and  N_2
REMARK    2  A    between atoms: N_2  and  C_3
REMARK    3  A    between atoms: C_4  and  C_6
REMARK    4  A    between atoms: C_9  and  C_10
REMARK    5  A    between atoms: N_12  and  C_13
REMARK    6  A    between atoms: C_19  and  C_20
REMARK                            x       y       z     vdW  Elec       q    Type
REMARK                         _______ _______ _______ _____ _____    ______ ____
ROOT
ATOM      1  C   UNL     1       0.295  11.578  21.527  0.00  0.00    +0.000 A 
ATOM      2  C   UNL     1      -0.713  11.384  22.482  0.00  0.00    +0.000 A 
ATOM      3  C   UNL     1      -1.366  12.475  23.061  0.00  0.00    +0.000 A 
ATOM      4  C   UNL     1      -1.038  13.768  22.664  0.00  0.00    +0.000 A 
ATOM      5 CL   UNL     1      -1.880  15.107  23.338  0.00  0.00    +0.000 Cl
ATOM      6  C   UNL     1      -0.029  13.981  21.727  0.00  0.00    +0.000 A 
ATOM      7  C   UNL     1       0.661  12.889  21.175  0.00  0.00    +0.000 A 
ENDROOT
BRANCH   7   8
ATOM      8  C   UNL     1       1.755  13.193  20.223  0.00  0.00    +0.000 C 
ATOM      9  O   UNL     1       1.890  12.467  19.236  0.00  0.00    +0.000 OA
ATOM     10  N   UNL     1       2.588  14.240  20.557  0.00  0.00    +0.000 N 
ATOM     11  C   UNL     1       3.737  14.563  19.836  0.00  0.00    +0.000 A 
ATOM     12  C   UNL     1       3.775  14.551  18.444  0.00  0.00    +0.000 A 
ATOM     13  C   UNL     1       4.982  14.829  17.800  0.00  0.00    +0.000 A 
ATOM     14  C   UNL     1       6.112  15.078  18.566  0.00  0.00    +0.000 A 
ATOM     15 CL   UNL     1       7.635  15.346  17.823  0.00  0.00    +0.000 Cl
ATOM     16  C   UNL     1       5.976  15.096  19.944  0.00  0.00    +0.000 A 
ATOM     17  N   UNL     1       4.802  14.888  20.593  0.00  0.00    +0.000 NA
ATOM     18  H   UNL     1       2.655  14.487  21.542  0.00  0.00    +0.000 HD
ENDBRANCH   7   8
BRANCH   1  21
ATOM     19  C   UNL     1       0.505   9.730  19.899  0.00  0.00    +0.000 C 
ATOM     20  O   UNL     1      -0.538  10.008  19.307  0.00  0.00    +0.000 OA
ATOM     21  N   UNL     1       0.971  10.467  20.981  0.00  0.00    +0.000 N 
ATOM     22  H   UNL     1       1.965  10.373  21.166  0.00  0.00    +0.000 HD
BRANCH  19  26
ATOM     23  C   UNL     1       2.653   6.665  19.455  0.00  0.00    +0.000 A 
ATOM     24  C   UNL     1       2.884   7.167  18.189  0.00  0.00    +0.000 A 
ATOM     25  S   UNL     1       2.106   8.657  17.902  0.00  0.00    +0.000 S 
ATOM     26  C   UNL     1       1.389   8.659  19.457  0.00  0.00    +0.000 A 
ATOM     27  C   UNL     1       1.754   7.534  20.172  0.00  0.00    +0.000 A 
BRANCH  23  31
ATOM     28  C   UNL     1       4.444   3.381  19.347  0.00  0.00    +0.000 C 
ATOM     29  N   UNL     1       4.239   4.824  19.308  0.00  0.00    +0.000 N 
ATOM     30  C   UNL     1       5.429   5.618  19.000  0.00  0.00    +0.000 C 
ATOM     31  C   UNL     1       3.163   5.390  19.966  0.00  0.00    +0.000 C 
ATOM     32  N   UNL     1       2.533   4.894  20.974  0.00  0.00    +0.000 NA
ATOM     33  H   UNL     1       2.967   4.017  21.255  0.00  0.00    +0.000 HD
ENDBRANCH  23  31
ENDBRANCH  19  26
ENDBRANCH   1  21
TORSDOF 4
ENDMDL
MODEL 4
REMARK VINA RESULT:      -7.0      1.007      1.030
REMARK  Name = 
REMARK  6 active torsions:
REMARK  status: ('A' for Active; 'I' for Inactive)
REMARK    1  A    between atoms: C_1  and  N_2
REMARK    2  A    between atoms: N_2  and  C_3
REMARK    3  A    between atoms: C_4  and  C_6
REMARK    4  A    between atoms: C_9  and  C_10
REMARK    5  A    between atoms: N_12  and  C_13
REMARK    6  A    between atoms: C_19  and  C_20
REMARK                            x       y       z     vdW  Elec       q    Type
REMARK                         _______ _______ _______ _____ _____    ______ ____
ROOT
ATOM      1  C   UNL     1       0.218  10.944  21.142  0.00  0.00    +0.000 A 
ATOM      2  C   UNL     1      -0.749  10.549  22.076  0.00  0.00    +0.000 A 
ATOM      3  C   UNL     1      -1.373  11.492  22.898  0.00  0.00    +0.000 A 
ATOM      4  C   UNL     1      -1.057  12.841  22.767  0.00  0.00    +0.000 A 
ATOM      5 CL   UNL     1      -1.865  14.004  23.742  0.00  0.00    +0.000 Cl
ATOM      6  C   UNL     1      -0.087  13.250  21.855  0.00  0.00    +0.000 A 
ATOM      7  C   UNL     1       0.575  12.301  21.059  0.00  0.00    +0.000 A 
ENDROOT
BRANCH   7   8
ATOM      8  C   UNL     1       1.629  12.803  20.147  0.00  0.00    +0.000 C 
ATOM      9  O   UNL     1       1.812  12.211  19.081  0.00  0.00    +0.000 OA
ATOM     10  N   UNL     1       2.378  13.869  20.600  0.00  0.00    +0.000 N 
ATOM     11  C   UNL     1       3.489  14.367  19.920  0.00  0.00    +0.000 A 
ATOM     12  C   UNL     1       3.512  14.521  18.536  0.00  0.00    +0.000 A 
ATOM     13  C   UNL     1       4.685  14.971  17.927  0.00  0.00    +0.000 A 
ATOM     14  C   UNL     1       5.799  15.222  18.715  0.00  0.00    +0.000 A 
ATOM     15 CL   UNL     1       7.287  15.699  18.007  0.00  0.00    +0.000 Cl
ATOM     16  C   UNL     1       5.678  15.068  20.087  0.00  0.00    +0.000 A 
ATOM     17  N   UNL     1       4.532  14.688  20.709  0.00  0.00    +0.000 NA
ATOM     18  H   UNL     1       2.435  14.005  21.607  0.00  0.00    +0.000 HD
ENDBRANCH   7   8
BRANCH   1  21
ATOM     19  C   UNL     1       1.404   8.796  20.848  0.00  0.00    +0.000 C 
ATOM     20  O   UNL     1       1.335   8.487  22.038  0.00  0.00    +0.000 OA
ATOM     21  N   UNL     1       0.866   9.975  20.348  0.00  0.00    +0.000 N 
ATOM     22  H   UNL     1       0.678   9.970  19.350  0.00  0.00    +0.000 HD
BRANCH  19  26
ATOM     23  C   UNL     1       2.942   5.998  18.845  0.00  0.00    +0.000 A 
ATOM     24  C   UNL     1       2.811   6.863  17.777  0.00  0.00    +0.000 A 
ATOM     25  S   UNL     1       2.154   8.376  18.209  0.00  0.00    +0.000 S 
ATOM     26  C   UNL     1       1.975   7.905  19.846  0.00  0.00    +0.000 A 
ATOM     27  C   UNL     1       2.421   6.612  20.040  0.00  0.00    +0.000 A 
BRANCH  23  31
ATOM     28  C   UNL     1       3.014   2.316  19.510  0.00  0.00    +0.000 C 
ATOM     29  N   UNL     1       2.542   3.603  19.012  0.00  0.00    +0.000 N 
ATOM     30  C   UNL     1       1.238   3.577  18.349  0.00  0.00    +0.000 C 
ATOM     31  C   UNL     1       3.441   4.623  18.765  0.00  0.00    +0.000 C 
ATOM     32  N   UNL     1       4.695   4.492  18.499  0.00  0.00    +0.000 NA
ATOM     33  H   UNL     1       4.939   3.505  18.458  0.00  0.00    +0.000 HD
ENDBRANCH  23  31
ENDBRANCH  19  26
ENDBRANCH   1  21
TORSDOF 4
ENDMDL
MODEL 5
REMARK VINA RESULT:      -6.9      5.008      9.084
REMARK  Name = 
REMARK  6 active torsions:
REMARK  status: ('A' for Active; 'I' for Inactive)
REMARK    1  A    between atoms: C_1  and  N_2
REMARK    2  A    between atoms: N_2  and  C_3
REMARK    3  A    between atoms: C_4  and  C_6
REMARK    4  A    between atoms: C_9  and  C_10
REMARK    5  A    between atoms: N_12  and  C_13
REMARK    6  A    between atoms: C_19  and  C_20
REMARK                            x       y       z     vdW  Elec       q    Type
REMARK                         _______ _______ _______ _____ _____    ______ ____
ROOT
ATOM      1  C   UNL     1       0.066  10.054  20.513  0.00  0.00    +0.000 A 
ATOM      2  C   UNL     1       1.101   9.283  21.061  0.00  0.00    +0.000 A 
ATOM      3  C   UNL     1       1.923   8.507  20.239  0.00  0.00    +0.000 A 
ATOM      4  C   UNL     1       1.738   8.525  18.860  0.00  0.00    +0.000 A 
ATOM      5 CL   UNL     1       2.786   7.613  17.848  0.00  0.00    +0.000 Cl
ATOM      6  C   UNL     1       0.706   9.275  18.299  0.00  0.00    +0.000 A 
ATOM      7  C   UNL     1      -0.151  10.020  19.125  0.00  0.00    +0.000 A 
ENDROOT
BRANCH   7   8
ATOM      8  C   UNL     1      -1.257  10.752  18.464  0.00  0.00    +0.000 C 
ATOM      9  O   UNL     1      -1.013  11.851  17.962  0.00  0.00    +0.000 OA
ATOM     10  N   UNL     1      -2.504  10.165  18.521  0.00  0.00    +0.000 N 
ATOM     11  C   UNL     1      -3.664  10.791  18.065  0.00  0.00    +0.000 A 
ATOM     12  C   UNL     1      -3.704  11.522  16.881  0.00  0.00    +0.000 A 
ATOM     13  C   UNL     1      -4.891  12.167  16.526  0.00  0.00    +0.000 A 
ATOM     14  C   UNL     1      -5.983  12.084  17.379  0.00  0.00    +0.000 A 
ATOM     15 CL   UNL     1      -7.437  12.924  17.028  0.00  0.00    +0.000 Cl
ATOM     16  C   UNL     1      -5.862  11.312  18.523  0.00  0.00    +0.000 A 
ATOM     17  N   UNL     1      -4.738  10.628  18.860  0.00  0.00    +0.000 NA
ATOM     18  H   UNL     1      -2.678   9.511  19.280  0.00  0.00    +0.000 HD
ENDBRANCH   7   8
BRANCH   1  21
ATOM     19  C   UNL     1      -0.472  12.065  21.845  0.00  0.00    +0.000 C 
ATOM     20  O   UNL     1       0.567  12.654  21.549  0.00  0.00    +0.000 OA
ATOM     21  N   UNL     1      -0.780  10.800  21.360  0.00  0.00    +0.000 N 
ATOM     22  H   UNL     1      -1.766  10.562  21.381  0.00  0.00    +0.000 HD
BRANCH  19  26
ATOM     23  C   UNL     1      -3.585  13.056  23.725  0.00  0.00    +0.000 A 
ATOM     24  C   UNL     1      -2.834  14.136  24.144  0.00  0.00    +0.000 A 
ATOM     25  S   UNL     1      -1.259  14.157  23.491  0.00  0.00    +0.000 S 
ATOM     26  C   UNL     1      -1.513  12.684  22.656  0.00  0.00    +0.000 A 
ATOM     27  C   UNL     1      -2.789  12.202  22.880  0.00  0.00    +0.000 A 
BRANCH  23  31
ATOM     28  C   UNL     1      -7.264  13.617  24.120  0.00  0.00    +0.000 C 
ATOM     29  N   UNL     1      -5.984  13.380  23.464  0.00  0.00    +0.000 N 
ATOM     30  C   UNL     1      -6.024  13.363  22.001  0.00  0.00    +0.000 C 
ATOM     31  C   UNL     1      -4.956  12.762  24.151  0.00  0.00    +0.000 C 
ATOM     32  N   UNL     1      -5.076  11.968  25.158  0.00  0.00    +0.000 NA
ATOM     33  H   UNL     1      -6.060  11.822  25.368  0.00  0.00    +0.000 HD
ENDBRANCH  23  31
ENDBRANCH  19  26
ENDBRANCH   1  21
TORSDOF 4
ENDMDL
MODEL 6
REMARK VINA RESULT:      -6.9      3.072      7.283
REMARK  Name = 
REMARK  6 active torsions:
REMARK  status: ('A' for Active; 'I' for Inactive)
REMARK    1  A    between atoms: C_1  and  N_2
REMARK    2  A    between atoms: N_2  and  C_3
REMARK    3  A    between atoms: C_4  and  C_6
REMARK    4  A    between atoms: C_9  and  C_10
REMARK    5  A    between atoms: N_12  and  C_13
REMARK    6  A    between atoms: C_19  and  C_20
REMARK                            x       y       z     vdW  Elec       q    Type
REMARK                         _______ _______ _______ _____ _____    ______ ____
ROOT
ATOM      1  C   UNL     1      -0.549  13.311  22.263  0.00  0.00    +0.000 A 
ATOM      2  C   UNL     1      -1.428  14.309  22.708  0.00  0.00    +0.000 A 
ATOM      3  C   UNL     1      -2.608  13.974  23.378  0.00  0.00    +0.000 A 
ATOM      4  C   UNL     1      -2.900  12.638  23.636  0.00  0.00    +0.000 A 
ATOM      5 CL   UNL     1      -4.326  12.231  24.508  0.00  0.00    +0.000 Cl
ATOM      6  C   UNL     1      -2.047  11.632  23.189  0.00  0.00    +0.000 A 
ATOM      7  C   UNL     1      -0.882  11.962  22.476  0.00  0.00    +0.000 A 
ENDROOT
BRANCH   7   8
ATOM      8  C   UNL     1      -0.048  10.839  21.989  0.00  0.00    +0.000 C 
ATOM      9  O   UNL     1       0.741  10.312  22.775  0.00  0.00    +0.000 OA
ATOM     10  N   UNL     1      -0.177  10.512  20.655  0.00  0.00    +0.000 N 
ATOM     11  C   UNL     1       0.632   9.572  20.017  0.00  0.00    +0.000 A 
ATOM     12  C   UNL     1       0.991   8.365  20.614  0.00  0.00    +0.000 A 
ATOM     13  C   UNL     1       1.853   7.506  19.931  0.00  0.00    +0.000 A 
ATOM     14  C   UNL     1       2.350   7.893  18.694  0.00  0.00    +0.000 A 
ATOM     15 CL   UNL     1       3.475   6.909  17.852  0.00  0.00    +0.000 Cl
ATOM     16  C   UNL     1       1.918   9.098  18.165  0.00  0.00    +0.000 A 
ATOM     17  N   UNL     1       1.035   9.924  18.782  0.00  0.00    +0.000 NA
ATOM     18  H   UNL     1      -0.514  11.237  20.026  0.00  0.00    +0.000 HD
ENDBRANCH   7   8
BRANCH   1  21
ATOM     19  C   UNL     1       0.647  13.927  20.190  0.00  0.00    +0.000 C 
ATOM     20  O   UNL     1      -0.362  13.894  19.487  0.00  0.00    +0.000 OA
ATOM     21  N   UNL     1       0.617  13.666  21.555  0.00  0.00    +0.000 N 
ATOM     22  H   UNL     1       1.400  14.043  22.079  0.00  0.00    +0.000 HD
BRANCH  19  26
ATOM     23  C   UNL     1       3.991  15.489  19.427  0.00  0.00    +0.000 A 
ATOM     24  C   UNL     1       4.041  14.571  18.397  0.00  0.00    +0.000 A 
ATOM     25  S   UNL     1       2.649  13.591  18.297  0.00  0.00    +0.000 S 
ATOM     26  C   UNL     1       1.945  14.336  19.670  0.00  0.00    +0.000 A 
ATOM     27  C   UNL     1       2.773  15.318  20.178  0.00  0.00    +0.000 A 
BRANCH  23  31
ATOM     28  C   UNL     1       6.384  17.320  21.647  0.00  0.00    +0.000 C 
ATOM     29  N   UNL     1       5.752  16.208  20.946  0.00  0.00    +0.000 N 
ATOM     30  C   UNL     1       6.295  14.884  21.254  0.00  0.00    +0.000 C 
ATOM     31  C   UNL     1       5.058  16.433  19.772  0.00  0.00    +0.000 C 
ATOM     32  N   UNL     1       5.230  17.413  18.955  0.00  0.00    +0.000 NA
ATOM     33  H   UNL     1       5.994  18.002  19.278  0.00  0.00    +0.000 HD
ENDBRANCH  23  31
ENDBRANCH  19  26
ENDBRANCH   1  21
TORSDOF 4
ENDMDL
MODEL 7
REMARK VINA RESULT:      -6.8      4.128      5.800
REMARK  Name = 
REMARK  6 active torsions:
REMARK  status: ('A' for Active; 'I' for Inactive)
REMARK    1  A    between atoms: C_1  and  N_2
REMARK    2  A    between atoms: N_2  and  C_3
REMARK    3  A    between atoms: C_4  and  C_6
REMARK    4  A    between atoms: C_9  and  C_10
REMARK    5  A    between atoms: N_12  and  C_13
REMARK    6  A    between atoms: C_19  and  C_20
REMARK                            x       y       z     vdW  Elec       q    Type
REMARK                         _______ _______ _______ _____ _____    ______ ____
ROOT
ATOM      1  C   UNL     1       0.281  10.118  20.500  0.00  0.00    +0.000 A 
ATOM      2  C   UNL     1       0.533  10.513  21.821  0.00  0.00    +0.000 A 
ATOM      3  C   UNL     1      -0.301  11.432  22.463  0.00  0.00    +0.000 A 
ATOM      4  C   UNL     1      -1.415  11.937  21.798  0.00  0.00    +0.000 A 
ATOM      5 CL   UNL     1      -2.470  13.026  22.609  0.00  0.00    +0.000 Cl
ATOM      6  C   UNL     1      -1.673  11.567  20.480  0.00  0.00    +0.000 A 
ATOM      7  C   UNL     1      -0.812  10.679  19.816  0.00  0.00    +0.000 A 
ENDROOT
BRANCH   7   8
ATOM      8  C   UNL     1      -1.121  10.370  18.400  0.00  0.00    +0.000 C 
ATOM      9  O   UNL     1      -0.182  10.212  17.617  0.00  0.00    +0.000 OA
ATOM     10  N   UNL     1      -2.456  10.348  18.053  0.00  0.00    +0.000 N 
ATOM     11  C   UNL     1      -2.901  10.206  16.740  0.00  0.00    +0.000 A 
ATOM     12  C   UNL     1      -2.319   9.311  15.844  0.00  0.00    +0.000 A 
ATOM     13  C   UNL     1      -2.787   9.273  14.529  0.00  0.00    +0.000 A 
ATOM     14  C   UNL     1      -3.795  10.147  14.147  0.00  0.00    +0.000 A 
ATOM     15 CL   UNL     1      -4.348  10.195  12.524  0.00  0.00    +0.000 Cl
ATOM     16  C   UNL     1      -4.334  10.984  15.111  0.00  0.00    +0.000 A 
ATOM     17  N   UNL     1      -3.938  10.999  16.410  0.00  0.00    +0.000 NA
ATOM     18  H   UNL     1      -3.098  10.881  18.635  0.00  0.00    +0.000 HD
ENDBRANCH   7   8
BRANCH   1  21
ATOM     19  C   UNL     1       1.501   7.974  20.362  0.00  0.00    +0.000 C 
ATOM     20  O   UNL     1       1.045   7.538  21.419  0.00  0.00    +0.000 OA
ATOM     21  N   UNL     1       1.156   9.220  19.854  0.00  0.00    +0.000 N 
ATOM     22  H   UNL     1       1.306   9.332  18.857  0.00  0.00    +0.000 HD
BRANCH  19  26
ATOM     23  C   UNL     1       3.678   5.386  18.697  0.00  0.00    +0.000 A 
ATOM     24  C   UNL     1       3.796   6.321  17.688  0.00  0.00    +0.000 A 
ATOM     25  S   UNL     1       2.964   7.773  18.011  0.00  0.00    +0.000 S 
ATOM     26  C   UNL     1       2.372   7.180  19.505  0.00  0.00    +0.000 A 
ATOM     27  C   UNL     1       2.818   5.893  19.737  0.00  0.00    +0.000 A 
BRANCH  23  31
ATOM     28  C   UNL     1       3.732   1.657  19.012  0.00  0.00    +0.000 C 
ATOM     29  N   UNL     1       3.388   2.977  18.497  0.00  0.00    +0.000 N 
ATOM     30  C   UNL     1       2.402   2.990  17.416  0.00  0.00    +0.000 C 
ATOM     31  C   UNL     1       4.255   4.039  18.676  0.00  0.00    +0.000 C 
ATOM     32  N   UNL     1       5.527   3.968  18.860  0.00  0.00    +0.000 NA
ATOM     33  H   UNL     1       5.829   2.996  18.820  0.00  0.00    +0.000 HD
ENDBRANCH  23  31
ENDBRANCH  19  26
ENDBRANCH   1  21
TORSDOF 4
ENDMDL
MODEL 8
REMARK VINA RESULT:      -6.8      3.590      7.041
REMARK  Name = 
REMARK  6 active torsions:
REMARK  status: ('A' for Active; 'I' for Inactive)
REMARK    1  A    between atoms: C_1  and  N_2
REMARK    2  A    between atoms: N_2  and  C_3
REMARK    3  A    between atoms: C_4  and  C_6
REMARK    4  A    between atoms: C_9  and  C_10
REMARK    5  A    between atoms: N_12  and  C_13
REMARK    6  A    between atoms: C_19  and  C_20
REMARK                            x       y       z     vdW  Elec       q    Type
REMARK                         _______ _______ _______ _____ _____    ______ ____
ROOT
ATOM      1  C   UNL     1      -1.382  13.784  22.670  0.00  0.00    +0.000 A 
ATOM      2  C   UNL     1      -2.338  14.666  23.193  0.00  0.00    +0.000 A 
ATOM      3  C   UNL     1      -3.479  14.181  23.837  0.00  0.00    +0.000 A 
ATOM      4  C   UNL     1      -3.656  12.809  23.991  0.00  0.00    +0.000 A 
ATOM      5 CL   UNL     1      -5.035  12.217  24.831  0.00  0.00    +0.000 Cl
ATOM      6  C   UNL     1      -2.724  11.917  23.464  0.00  0.00    +0.000 A 
ATOM      7  C   UNL     1      -1.599  12.399  22.778  0.00  0.00    +0.000 A 
ENDROOT
BRANCH   7   8
ATOM      8  C   UNL     1      -0.677  11.392  22.202  0.00  0.00    +0.000 C 
ATOM      9  O   UNL     1       0.218  10.940  22.919  0.00  0.00    +0.000 OA
ATOM     10  N   UNL     1      -0.857  11.085  20.869  0.00  0.00    +0.000 N 
ATOM     11  C   UNL     1       0.010  10.261  20.151  0.00  0.00    +0.000 A 
ATOM     12  C   UNL     1       0.542   9.089  20.685  0.00  0.00    +0.000 A 
ATOM     13  C   UNL     1       1.449   8.352  19.920  0.00  0.00    +0.000 A 
ATOM     14  C   UNL     1       1.814   8.824  18.668  0.00  0.00    +0.000 A 
ATOM     15 CL   UNL     1       2.984   7.998  17.724  0.00  0.00    +0.000 Cl
ATOM     16  C   UNL     1       1.214   9.985  18.206  0.00  0.00    +0.000 A 
ATOM     17  N   UNL     1       0.286  10.688  18.905  0.00  0.00    +0.000 NA
ATOM     18  H   UNL     1      -1.315  11.783  20.287  0.00  0.00    +0.000 HD
ENDBRANCH   7   8
BRANCH   1  21
ATOM     19  C   UNL     1      -0.244  14.605  20.636  0.00  0.00    +0.000 C 
ATOM     20  O   UNL     1      -1.238  14.489  19.919  0.00  0.00    +0.000 OA
ATOM     21  N   UNL     1      -0.256  14.290  21.989  0.00  0.00    +0.000 N 
ATOM     22  H   UNL     1       0.477  14.730  22.536  0.00  0.00    +0.000 HD
BRANCH  19  26
ATOM     23  C   UNL     1       3.234  15.341  19.386  0.00  0.00    +0.000 A 
ATOM     24  C   UNL     1       2.797  16.649  19.322  0.00  0.00    +0.000 A 
ATOM     25  S   UNL     1       1.189  16.850  19.853  0.00  0.00    +0.000 S 
ATOM     26  C   UNL     1       1.005  15.172  20.146  0.00  0.00    +0.000 A 
ATOM     27  C   UNL     1       2.166  14.487  19.841  0.00  0.00    +0.000 A 
BRANCH  23  31
ATOM     28  C   UNL     1       6.973  15.185  19.300  0.00  0.00    +0.000 C 
ATOM     29  N   UNL     1       5.615  15.082  19.823  0.00  0.00    +0.000 N 
ATOM     30  C   UNL     1       5.515  14.723  21.238  0.00  0.00    +0.000 C 
ATOM     31  C   UNL     1       4.555  14.868  18.962  0.00  0.00    +0.000 C 
ATOM     32  N   UNL     1       4.610  14.318  17.799  0.00  0.00    +0.000 NA
ATOM     33  H   UNL     1       5.563  14.019  17.603  0.00  0.00    +0.000 HD
ENDBRANCH  23  31
ENDBRANCH  19  26
ENDBRANCH   1  21
TORSDOF 4
ENDMDL
MODEL 9
REMARK VINA RESULT:      -6.8      1.526      1.697
REMARK  Name = 
REMARK  6 active torsions:
REMARK  status: ('A' for Active; 'I' for Inactive)
REMARK    1  A    between atoms: C_1  and  N_2
REMARK    2  A    between atoms: N_2  and  C_3
REMARK    3  A    between atoms: C_4  and  C_6
REMARK    4  A    between atoms: C_9  and  C_10
REMARK    5  A    between atoms: N_12  and  C_13
REMARK    6  A    between atoms: C_19  and  C_20
REMARK                            x       y       z     vdW  Elec       q    Type
REMARK                         _______ _______ _______ _____ _____    ______ ____
ROOT
ATOM      1  C   UNL     1      -0.538  12.086  19.799  0.00  0.00    +0.000 A 
ATOM      2  C   UNL     1      -1.806  11.989  20.388  0.00  0.00    +0.000 A 
ATOM      3  C   UNL     1      -2.498  13.136  20.785  0.00  0.00    +0.000 A 
ATOM      4  C   UNL     1      -1.939  14.391  20.566  0.00  0.00    +0.000 A 
ATOM      5 CL   UNL     1      -2.816  15.803  21.007  0.00  0.00    +0.000 Cl
ATOM      6  C   UNL     1      -0.673  14.507  19.996  0.00  0.00    +0.000 A 
ATOM      7  C   UNL     1       0.044  13.355  19.636  0.00  0.00    +0.000 A 
ENDROOT
BRANCH   7   8
ATOM      8  C   UNL     1       1.404  13.553  19.081  0.00  0.00    +0.000 C 
ATOM      9  O   UNL     1       1.776  12.815  18.166  0.00  0.00    +0.000 OA
ATOM     10  N   UNL     1       2.181  14.518  19.687  0.00  0.00    +0.000 N 
ATOM     11  C   UNL     1       3.522  14.730  19.370  0.00  0.00    +0.000 A 
ATOM     12  C   UNL     1       3.993  14.711  18.059  0.00  0.00    +0.000 A 
ATOM     13  C   UNL     1       5.361  14.874  17.832  0.00  0.00    +0.000 A 
ATOM     14  C   UNL     1       6.212  15.018  18.918  0.00  0.00    +0.000 A 
ATOM     15 CL   UNL     1       7.908  15.140  18.696  0.00  0.00    +0.000 Cl
ATOM     16  C   UNL     1       5.653  15.052  20.186  0.00  0.00    +0.000 A 
ATOM     17  N   UNL     1       4.321  14.956  20.430  0.00  0.00    +0.000 NA
ATOM     18  H   UNL     1       1.957  14.761  20.650  0.00  0.00    +0.000 HD
ENDBRANCH   7   8
BRANCH   1  21
ATOM     19  C   UNL     1       0.925  10.166  20.327  0.00  0.00    +0.000 C 
ATOM     20  O   UNL     1       1.031  10.453  21.519  0.00  0.00    +0.000 OA
ATOM     21  N   UNL     1       0.163  10.916  19.440  0.00  0.00    +0.000 N 
ATOM     22  H   UNL     1      -0.127  10.423  18.602  0.00  0.00    +0.000 HD
BRANCH  19  26
ATOM     23  C   UNL     1       2.421   6.785  19.593  0.00  0.00    +0.000 A 
ATOM     24  C   UNL     1       2.458   7.227  18.285  0.00  0.00    +0.000 A 
ATOM     25  S   UNL     1       1.883   8.821  18.095  0.00  0.00    +0.000 S 
ATOM     26  C   UNL     1       1.516   8.959  19.762  0.00  0.00    +0.000 A 
ATOM     27  C   UNL     1       1.841   7.798  20.438  0.00  0.00    +0.000 A 
BRANCH  23  31
ATOM     28  C   UNL     1       3.899   3.357  19.330  0.00  0.00    +0.000 C 
ATOM     29  N   UNL     1       3.827   4.813  19.348  0.00  0.00    +0.000 N 
ATOM     30  C   UNL     1       5.081   5.505  19.047  0.00  0.00    +0.000 C 
ATOM     31  C   UNL     1       2.818   5.449  20.047  0.00  0.00    +0.000 C 
ATOM     32  N   UNL     1       2.161   4.975  21.047  0.00  0.00    +0.000 NA
ATOM     33  H   UNL     1       2.516   4.052  21.288  0.00  0.00    +0.000 HD
ENDBRANCH  23  31
ENDBRANCH  19  26
ENDBRANCH   1  21
TORSDOF 4
ENDMDL
