MODEL 1
REMARK VINA RESULT:      -7.5      0.000      0.000
REMARK  Name = 
REMARK  6 active torsions:
REMARK  status: ('A' for Active; 'I' for Inactive)
REMARK    1  A    between atoms: C_1  and  C_2
REMARK    2  A    between atoms: C_2  and  C_3
REMARK    3  A    between atoms: C_5  and  C_6
REMARK    4  A    between atoms: C_14  and  C_15
REMARK    5  A    between atoms: C_14  and  N_16
REMARK    6  A    between atoms: C_17  and  C_18
REMARK                            x       y       z     vdW  Elec       q    Type
REMARK                         _______ _______ _______ _____ _____    ______ ____
ROOT
ATOM      1  C   UNL     1       5.053   5.706  18.956  0.00  0.00    +0.000 C 
ATOM      2  N   UNL     1       4.153   5.303  20.035  0.00  0.00    +0.000 NA
ATOM      3  C   UNL     1       2.824   4.719  19.791  0.00  0.00    +0.000 C 
ATOM      4  C   UNL     1       1.912   5.401  20.829  0.00  0.00    +0.000 C 
ATOM      5  C   UNL     1       2.994   3.166  20.048  0.00  0.00    +0.000 C 
ATOM      6  C   UNL     1       3.700   2.373  18.844  0.00  0.00    +0.000 C 
ATOM      7  C   UNL     1       3.753   3.310  17.594  0.00  0.00    +0.000 C 
ATOM      8  C   UNL     1       2.296   3.738  17.474  0.00  0.00    +0.000 C 
ATOM      9  C   UNL     1       2.174   4.958  18.370  0.00  0.00    +0.000 C 
ATOM     10  C   UNL     1       2.907   6.049  17.614  0.00  0.00    +0.000 C 
ATOM     11  C   UNL     1       4.402   5.654  17.513  0.00  0.00    +0.000 C 
ATOM     12  C   UNL     1       4.621   4.285  16.506  0.00  0.00    +0.000 C 
ATOM     13  C   UNL     1       5.396   2.909  16.226  0.00  0.00    +0.000 C 
ATOM     14  H   UNL     1       4.185   5.961  20.814  0.00  0.00    +0.000 HD
ENDROOT
BRANCH  12  15
ATOM     15  N   UNL     1       5.986   4.913  16.137  0.00  0.00    +0.000 N 
ATOM     16  C   UNL     1       6.713   4.934  14.984  0.00  0.00    +0.000 C 
ATOM     17  C   UNL     1       6.281   4.154  13.761  0.00  0.00    +0.000 C 
ATOM     18  O   UNL     1       7.710   5.652  14.941  0.00  0.00    +0.000 OA
ATOM     19  H   UNL     1       6.443   5.510  16.815  0.00  0.00    +0.000 HD
ENDBRANCH  12  15
BRANCH   1  21
ATOM     20  C   UNL     1       7.634   5.817  19.238  0.00  0.00    +0.000 C 
ATOM     21  C   UNL     1       6.392   4.938  19.159  0.00  0.00    +0.000 C 
ENDBRANCH   1  21
TORSDOF 2
ENDMDL
MODEL 2
REMARK VINA RESULT:      -7.3      1.591      2.626
REMARK  Name = 
REMARK  6 active torsions:
REMARK  status: ('A' for Active; 'I' for Inactive)
REMARK    1  A    between atoms: C_1  and  C_2
REMARK    2  A    between atoms: C_2  and  C_3
REMARK    3  A    between atoms: C_5  and  C_6
REMARK    4  A    between atoms: C_14  and  C_15
REMARK    5  A    between atoms: C_14  and  N_16
REMARK    6  A    between atoms: C_17  and  C_18
REMARK                            x       y       z     vdW  Elec       q    Type
REMARK                         _______ _______ _______ _____ _____    ______ ____
ROOT
ATOM      1  C   UNL     1       2.297   5.223  18.140  0.00  0.00    +0.000 C 
ATOM      2  N   UNL     1       1.583   4.518  19.203  0.00  0.00    +0.000 NA
ATOM      3  C   UNL     1       1.796   3.092  19.497  0.00  0.00    +0.000 C 
ATOM      4  C   UNL     1       0.378   2.541  19.749  0.00  0.00    +0.000 C 
ATOM      5  C   UNL     1       2.705   3.060  20.793  0.00  0.00    +0.000 C 
ATOM      6  C   UNL     1       4.258   3.359  20.514  0.00  0.00    +0.000 C 
ATOM      7  C   UNL     1       4.508   3.297  18.972  0.00  0.00    +0.000 C 
ATOM      8  C   UNL     1       3.919   1.936  18.624  0.00  0.00    +0.000 C 
ATOM      9  C   UNL     1       2.448   2.203  18.364  0.00  0.00    +0.000 C 
ATOM     10  C   UNL     1       2.431   2.925  17.031  0.00  0.00    +0.000 C 
ATOM     11  C   UNL     1       3.159   4.283  17.201  0.00  0.00    +0.000 C 
ATOM     12  C   UNL     1       4.834   4.061  17.490  0.00  0.00    +0.000 C 
ATOM     13  C   UNL     1       6.157   4.528  18.268  0.00  0.00    +0.000 C 
ATOM     14  H   UNL     1       0.611   4.818  19.264  0.00  0.00    +0.000 HD
ENDROOT
BRANCH  12  15
ATOM     15  N   UNL     1       5.027   5.400  16.740  0.00  0.00    +0.000 N 
ATOM     16  C   UNL     1       5.470   5.703  15.486  0.00  0.00    +0.000 C 
ATOM     17  C   UNL     1       6.007   4.636  14.557  0.00  0.00    +0.000 C 
ATOM     18  O   UNL     1       5.373   6.867  15.102  0.00  0.00    +0.000 OA
ATOM     19  H   UNL     1       4.700   6.252  17.178  0.00  0.00    +0.000 HD
ENDBRANCH  12  15
BRANCH   1  21
ATOM     20  C   UNL     1       2.709   7.788  18.174  0.00  0.00    +0.000 C 
ATOM     21  C   UNL     1       3.025   6.433  18.794  0.00  0.00    +0.000 C 
ENDBRANCH   1  21
TORSDOF 2
ENDMDL
MODEL 3
REMARK VINA RESULT:      -7.1      1.703      2.842
REMARK  Name = 
REMARK  6 active torsions:
REMARK  status: ('A' for Active; 'I' for Inactive)
REMARK    1  A    between atoms: C_1  and  C_2
REMARK    2  A    between atoms: C_2  and  C_3
REMARK    3  A    between atoms: C_5  and  C_6
REMARK    4  A    between atoms: C_14  and  C_15
REMARK    5  A    between atoms: C_14  and  N_16
REMARK    6  A    between atoms: C_17  and  C_18
REMARK                            x       y       z     vdW  Elec       q    Type
REMARK                         _______ _______ _______ _____ _____    ______ ____
ROOT
ATOM      1  C   UNL     1       4.230   3.265  19.858  0.00  0.00    +0.000 C 
ATOM      2  N   UNL     1       2.799   3.048  20.065  0.00  0.00    +0.000 NA
ATOM      3  C   UNL     1       1.772   3.994  19.601  0.00  0.00    +0.000 C 
ATOM      4  C   UNL     1       0.765   4.062  20.766  0.00  0.00    +0.000 C 
ATOM      5  C   UNL     1       1.157   3.342  18.296  0.00  0.00    +0.000 C 
ATOM      6  C   UNL     1       2.073   3.503  16.987  0.00  0.00    +0.000 C 
ATOM      7  C   UNL     1       3.198   4.544  17.291  0.00  0.00    +0.000 C 
ATOM      8  C   UNL     1       2.387   5.727  17.805  0.00  0.00    +0.000 C 
ATOM      9  C   UNL     1       2.232   5.475  19.294  0.00  0.00    +0.000 C 
ATOM     10  C   UNL     1       3.611   5.743  19.862  0.00  0.00    +0.000 C 
ATOM     11  C   UNL     1       4.592   4.694  19.281  0.00  0.00    +0.000 C 
ATOM     12  C   UNL     1       4.826   4.922  17.598  0.00  0.00    +0.000 C 
ATOM     13  C   UNL     1       5.027   4.265  16.149  0.00  0.00    +0.000 C 
ATOM     14  H   UNL     1       2.612   2.641  20.981  0.00  0.00    +0.000 HD
ENDROOT
BRANCH  12  15
ATOM     15  N   UNL     1       6.256   4.383  17.836  0.00  0.00    +0.000 N 
ATOM     16  C   UNL     1       7.463   4.999  17.989  0.00  0.00    +0.000 C 
ATOM     17  C   UNL     1       7.616   6.495  17.822  0.00  0.00    +0.000 C 
ATOM     18  O   UNL     1       8.427   4.312  18.321  0.00  0.00    +0.000 OA
ATOM     19  H   UNL     1       6.378   3.392  18.006  0.00  0.00    +0.000 HD
ENDBRANCH  12  15
BRANCH   1  21
ATOM     20  C   UNL     1       3.726   1.022  18.648  0.00  0.00    +0.000 C 
ATOM     21  C   UNL     1       4.780   2.028  19.090  0.00  0.00    +0.000 C 
ENDBRANCH   1  21
TORSDOF 2
ENDMDL
MODEL 4
REMARK VINA RESULT:      -7.1      2.616      5.052
REMARK  Name = 
REMARK  6 active torsions:
REMARK  status: ('A' for Active; 'I' for Inactive)
REMARK    1  A    between atoms: C_1  and  C_2
REMARK    2  A    between atoms: C_2  and  C_3
REMARK    3  A    between atoms: C_5  and  C_6
REMARK    4  A    between atoms: C_14  and  C_15
REMARK    5  A    between atoms: C_14  and  N_16
REMARK    6  A    between atoms: C_17  and  C_18
REMARK                            x       y       z     vdW  Elec       q    Type
REMARK                         _______ _______ _______ _____ _____    ______ ____
ROOT
ATOM      1  C   UNL     1       3.985   6.760  18.496  0.00  0.00    +0.000 C 
ATOM      2  N   UNL     1       5.056   7.274  17.644  0.00  0.00    +0.000 NA
ATOM      3  C   UNL     1       6.209   6.458  17.232  0.00  0.00    +0.000 C 
ATOM      4  C   UNL     1       7.415   7.409  17.365  0.00  0.00    +0.000 C 
ATOM      5  C   UNL     1       5.917   6.044  15.732  0.00  0.00    +0.000 C 
ATOM      6  C   UNL     1       4.858   4.847  15.575  0.00  0.00    +0.000 C 
ATOM      7  C   UNL     1       4.629   4.197  16.978  0.00  0.00    +0.000 C 
ATOM      8  C   UNL     1       6.058   3.898  17.411  0.00  0.00    +0.000 C 
ATOM      9  C   UNL     1       6.534   5.170  18.090  0.00  0.00    +0.000 C 
ATOM     10  C   UNL     1       5.783   5.191  19.406  0.00  0.00    +0.000 C 
ATOM     11  C   UNL     1       4.269   5.326  19.104  0.00  0.00    +0.000 C 
ATOM     12  C   UNL     1       3.656   3.918  18.342  0.00  0.00    +0.000 C 
ATOM     13  C   UNL     1       2.676   3.278  17.246  0.00  0.00    +0.000 C 
ATOM     14  H   UNL     1       5.287   8.239  17.876  0.00  0.00    +0.000 HD
ENDROOT
BRANCH  12  15
ATOM     15  N   UNL     1       2.329   4.235  19.072  0.00  0.00    +0.000 N 
ATOM     16  C   UNL     1       1.795   3.803  20.250  0.00  0.00    +0.000 C 
ATOM     17  C   UNL     1       2.465   2.726  21.075  0.00  0.00    +0.000 C 
ATOM     18  O   UNL     1       0.773   4.351  20.659  0.00  0.00    +0.000 OA
ATOM     19  H   UNL     1       1.733   4.963  18.698  0.00  0.00    +0.000 HD
ENDBRANCH  12  15
BRANCH   1  21
ATOM     20  C   UNL     1       2.080   8.364  17.753  0.00  0.00    +0.000 C 
ATOM     21  C   UNL     1       2.647   6.951  17.723  0.00  0.00    +0.000 C 
ENDBRANCH   1  21
TORSDOF 2
ENDMDL
MODEL 5
REMARK VINA RESULT:      -7.1      1.435      3.484
REMARK  Name = 
REMARK  6 active torsions:
REMARK  status: ('A' for Active; 'I' for Inactive)
REMARK    1  A    between atoms: C_1  and  C_2
REMARK    2  A    between atoms: C_2  and  C_3
REMARK    3  A    between atoms: C_5  and  C_6
REMARK    4  A    between atoms: C_14  and  C_15
REMARK    5  A    between atoms: C_14  and  N_16
REMARK    6  A    between atoms: C_17  and  C_18
REMARK                            x       y       z     vdW  Elec       q    Type
REMARK                         _______ _______ _______ _____ _____    ______ ____
ROOT
ATOM      1  C   UNL     1       5.148   3.646  16.924  0.00  0.00    +0.000 C 
ATOM      2  N   UNL     1       4.085   2.675  17.178  0.00  0.00    +0.000 NA
ATOM      3  C   UNL     1       3.249   2.705  18.388  0.00  0.00    +0.000 C 
ATOM      4  C   UNL     1       3.132   1.225  18.805  0.00  0.00    +0.000 C 
ATOM      5  C   UNL     1       1.867   3.325  17.929  0.00  0.00    +0.000 C 
ATOM      6  C   UNL     1       1.887   4.921  17.756  0.00  0.00    +0.000 C 
ATOM      7  C   UNL     1       3.202   5.474  18.393  0.00  0.00    +0.000 C 
ATOM      8  C   UNL     1       3.147   4.860  19.786  0.00  0.00    +0.000 C 
ATOM      9  C   UNL     1       3.804   3.499  19.637  0.00  0.00    +0.000 C 
ATOM     10  C   UNL     1       5.277   3.814  19.469  0.00  0.00    +0.000 C 
ATOM     11  C   UNL     1       5.461   4.602  18.147  0.00  0.00    +0.000 C 
ATOM     12  C   UNL     1       4.750   6.158  18.242  0.00  0.00    +0.000 C 
ATOM     13  C   UNL     1       3.928   7.328  17.516  0.00  0.00    +0.000 C 
ATOM     14  H   UNL     1       4.355   1.739  16.877  0.00  0.00    +0.000 HD
ENDROOT
BRANCH  12  15
ATOM     15  N   UNL     1       5.877   6.610  17.284  0.00  0.00    +0.000 N 
ATOM     16  C   UNL     1       7.221   6.776  17.448  0.00  0.00    +0.000 C 
ATOM     17  C   UNL     1       7.877   6.622  18.803  0.00  0.00    +0.000 C 
ATOM     18  O   UNL     1       7.903   7.004  16.452  0.00  0.00    +0.000 OA
ATOM     19  H   UNL     1       5.656   6.742  16.304  0.00  0.00    +0.000 HD
ENDBRANCH  12  15
BRANCH   1  21
ATOM     20  C   UNL     1       5.970   4.255  14.535  0.00  0.00    +0.000 C 
ATOM     21  C   UNL     1       4.841   4.322  15.555  0.00  0.00    +0.000 C 
ENDBRANCH   1  21
TORSDOF 2
ENDMDL
MODEL 6
REMARK VINA RESULT:      -6.6      9.443     11.749
REMARK  Name = 
REMARK  6 active torsions:
REMARK  status: ('A' for Active; 'I' for Inactive)
REMARK    1  A    between atoms: C_1  and  C_2
REMARK    2  A    between atoms: C_2  and  C_3
REMARK    3  A    between atoms: C_5  and  C_6
REMARK    4  A    between atoms: C_14  and  C_15
REMARK    5  A    between atoms: C_14  and  N_16
REMARK    6  A    between atoms: C_17  and  C_18
REMARK                            x       y       z     vdW  Elec       q    Type
REMARK                         _______ _______ _______ _____ _____    ______ ____
ROOT
ATOM      1  C   UNL     1       9.444  14.556  18.563  0.00  0.00    +0.000 C 
ATOM      2  N   UNL     1      10.115  13.810  17.500  0.00  0.00    +0.000 NA
ATOM      3  C   UNL     1      11.285  12.951  17.744  0.00  0.00    +0.000 C 
ATOM      4  C   UNL     1      12.228  13.249  16.562  0.00  0.00    +0.000 C 
ATOM      5  C   UNL     1      10.730  11.468  17.727  0.00  0.00    +0.000 C 
ATOM      6  C   UNL     1       9.975  11.033  19.076  0.00  0.00    +0.000 C 
ATOM      7  C   UNL     1      10.266  12.105  20.177  0.00  0.00    +0.000 C 
ATOM      8  C   UNL     1      11.787  12.171  20.142  0.00  0.00    +0.000 C 
ATOM      9  C   UNL     1      12.107  13.199  19.072  0.00  0.00    +0.000 C 
ATOM     10  C   UNL     1      11.729  14.524  19.704  0.00  0.00    +0.000 C 
ATOM     11  C   UNL     1      10.199  14.528  19.954  0.00  0.00    +0.000 C 
ATOM     12  C   UNL     1       9.761  13.394  21.162  0.00  0.00    +0.000 C 
ATOM     13  C   UNL     1       8.714  12.299  21.688  0.00  0.00    +0.000 C 
ATOM     14  H   UNL     1      10.165  14.350  16.637  0.00  0.00    +0.000 HD
ENDROOT
BRANCH  12  15
ATOM     15  N   UNL     1       8.625  14.381  21.520  0.00  0.00    +0.000 N 
ATOM     16  C   UNL     1       8.465  15.280  22.532  0.00  0.00    +0.000 C 
ATOM     17  C   UNL     1       9.465  15.384  23.664  0.00  0.00    +0.000 C 
ATOM     18  O   UNL     1       7.509  16.051  22.478  0.00  0.00    +0.000 OA
ATOM     19  H   UNL     1       7.857  14.492  20.869  0.00  0.00    +0.000 HD
ENDBRANCH  12  15
BRANCH   1  21
ATOM     20  C   UNL     1       7.526  13.271  17.368  0.00  0.00    +0.000 C 
ATOM     21  C   UNL     1       7.948  14.123  18.558  0.00  0.00    +0.000 C 
ENDBRANCH   1  21
TORSDOF 2
ENDMDL
MODEL 7
REMARK VINA RESULT:      -6.5      2.348      4.137
REMARK  Name = 
REMARK  6 active torsions:
REMARK  status: ('A' for Active; 'I' for Inactive)
REMARK    1  A    between atoms: C_1  and  C_2
REMARK    2  A    between atoms: C_2  and  C_3
REMARK    3  A    between atoms: C_5  and  C_6
REMARK    4  A    between atoms: C_14  and  C_15
REMARK    5  A    between atoms: C_14  and  N_16
REMARK    6  A    between atoms: C_17  and  C_18
REMARK                            x       y       z     vdW  Elec       q    Type
REMARK                         _______ _______ _______ _____ _____    ______ ____
ROOT
ATOM      1  C   UNL     1       4.731   4.610  18.939  0.00  0.00    +0.000 C 
ATOM      2  N   UNL     1       5.093   3.211  19.160  0.00  0.00    +0.000 NA
ATOM      3  C   UNL     1       4.182   2.240  19.789  0.00  0.00    +0.000 C 
ATOM      4  C   UNL     1       5.087   1.433  20.741  0.00  0.00    +0.000 C 
ATOM      5  C   UNL     1       3.611   1.367  18.599  0.00  0.00    +0.000 C 
ATOM      6  C   UNL     1       2.453   2.089  17.751  0.00  0.00    +0.000 C 
ATOM      7  C   UNL     1       1.982   3.358  18.531  0.00  0.00    +0.000 C 
ATOM      8  C   UNL     1       1.670   2.773  19.902  0.00  0.00    +0.000 C 
ATOM      9  C   UNL     1       2.989   2.815  20.653  0.00  0.00    +0.000 C 
ATOM     10  C   UNL     1       3.198   4.285  20.956  0.00  0.00    +0.000 C 
ATOM     11  C   UNL     1       3.366   5.042  19.614  0.00  0.00    +0.000 C 
ATOM     12  C   UNL     1       1.908   5.046  18.712  0.00  0.00    +0.000 C 
ATOM     13  C   UNL     1       1.191   4.952  17.281  0.00  0.00    +0.000 C 
ATOM     14  H   UNL     1       6.067   3.117  19.445  0.00  0.00    +0.000 HD
ENDROOT
BRANCH  12  15
ATOM     15  N   UNL     1       2.368   6.425  18.184  0.00  0.00    +0.000 N 
ATOM     16  C   UNL     1       2.319   7.681  18.711  0.00  0.00    +0.000 C 
ATOM     17  C   UNL     1       1.617   7.962  20.022  0.00  0.00    +0.000 C 
ATOM     18  O   UNL     1       2.908   8.583  18.118  0.00  0.00    +0.000 OA
ATOM     19  H   UNL     1       2.895   6.461  17.319  0.00  0.00    +0.000 HD
ENDBRANCH  12  15
BRANCH   1  21
ATOM     20  C   UNL     1       5.608   3.805  16.628  0.00  0.00    +0.000 C 
ATOM     21  C   UNL     1       4.891   4.894  17.416  0.00  0.00    +0.000 C 
ENDBRANCH   1  21
TORSDOF 2
ENDMDL
MODEL 8
REMARK VINA RESULT:      -6.5      1.601      3.561
REMARK  Name = 
REMARK  6 active torsions:
REMARK  status: ('A' for Active; 'I' for Inactive)
REMARK    1  A    between atoms: C_1  and  C_2
REMARK    2  A    between atoms: C_2  and  C_3
REMARK    3  A    between atoms: C_5  and  C_6
REMARK    4  A    between atoms: C_14  and  C_15
REMARK    5  A    between atoms: C_14  and  N_16
REMARK    6  A    between atoms: C_17  and  C_18
REMARK                            x       y       z     vdW  Elec       q    Type
REMARK                         _______ _______ _______ _____ _____    ______ ____
ROOT
ATOM      1  C   UNL     1       4.008   3.004  17.290  0.00  0.00    +0.000 C 
ATOM      2  N   UNL     1       2.548   2.942  17.345  0.00  0.00    +0.000 NA
ATOM      3  C   UNL     1       1.769   3.481  18.471  0.00  0.00    +0.000 C 
ATOM      4  C   UNL     1       0.681   2.418  18.723  0.00  0.00    +0.000 C 
ATOM      5  C   UNL     1       1.176   4.855  17.953  0.00  0.00    +0.000 C 
ATOM      6  C   UNL     1       2.232   6.065  17.944  0.00  0.00    +0.000 C 
ATOM      7  C   UNL     1       3.496   5.628  18.752  0.00  0.00    +0.000 C 
ATOM      8  C   UNL     1       2.875   5.168  20.064  0.00  0.00    +0.000 C 
ATOM      9  C   UNL     1       2.527   3.707  19.840  0.00  0.00    +0.000 C 
ATOM     10  C   UNL     1       3.868   3.002  19.840  0.00  0.00    +0.000 C 
ATOM     11  C   UNL     1       4.688   3.509  18.627  0.00  0.00    +0.000 C 
ATOM     12  C   UNL     1       5.127   5.156  18.814  0.00  0.00    +0.000 C 
ATOM     13  C   UNL     1       5.346   6.593  18.138  0.00  0.00    +0.000 C 
ATOM     14  H   UNL     1       2.197   2.059  16.977  0.00  0.00    +0.000 HD
ENDROOT
BRANCH  12  15
ATOM     15  N   UNL     1       6.400   4.792  18.013  0.00  0.00    +0.000 N 
ATOM     16  C   UNL     1       7.729   4.861  18.307  0.00  0.00    +0.000 C 
ATOM     17  C   UNL     1       8.224   5.485  19.594  0.00  0.00    +0.000 C 
ATOM     18  O   UNL     1       8.525   4.353  17.520  0.00  0.00    +0.000 OA
ATOM     19  H   UNL     1       6.293   4.327  17.120  0.00  0.00    +0.000 HD
ENDBRANCH  12  15
BRANCH   1  21
ATOM     20  C   UNL     1       5.775   3.419  15.430  0.00  0.00    +0.000 C 
ATOM     21  C   UNL     1       4.390   3.744  15.974  0.00  0.00    +0.000 C 
ENDBRANCH   1  21
TORSDOF 2
ENDMDL
MODEL 9
REMARK VINA RESULT:      -6.2      1.645      3.237
REMARK  Name = 
REMARK  6 active torsions:
REMARK  status: ('A' for Active; 'I' for Inactive)
REMARK    1  A    between atoms: C_1  and  C_2
REMARK    2  A    between atoms: C_2  and  C_3
REMARK    3  A    between atoms: C_5  and  C_6
REMARK    4  A    between atoms: C_14  and  C_15
REMARK    5  A    between atoms: C_14  and  N_16
REMARK    6  A    between atoms: C_17  and  C_18
REMARK                            x       y       z     vdW  Elec       q    Type
REMARK                         _______ _______ _______ _____ _____    ______ ____
ROOT
ATOM      1  C   UNL     1       2.731   4.585  17.268  0.00  0.00    +0.000 C 
ATOM      2  N   UNL     1       1.539   4.207  18.025  0.00  0.00    +0.000 NA
ATOM      3  C   UNL     1       1.550   3.164  19.064  0.00  0.00    +0.000 C 
ATOM      4  C   UNL     1       0.248   2.374  18.822  0.00  0.00    +0.000 C 
ATOM      5  C   UNL     1       1.549   3.943  20.442  0.00  0.00    +0.000 C 
ATOM      6  C   UNL     1       2.978   4.544  20.859  0.00  0.00    +0.000 C 
ATOM      7  C   UNL     1       4.069   3.926  19.926  0.00  0.00    +0.000 C 
ATOM      8  C   UNL     1       3.795   2.437  20.083  0.00  0.00    +0.000 C 
ATOM      9  C   UNL     1       2.739   2.123  19.038  0.00  0.00    +0.000 C 
ATOM     10  C   UNL     1       3.489   2.188  17.722  0.00  0.00    +0.000 C 
ATOM     11  C   UNL     1       3.981   3.643  17.510  0.00  0.00    +0.000 C 
ATOM     12  C   UNL     1       5.186   4.068  18.653  0.00  0.00    +0.000 C 
ATOM     13  C   UNL     1       5.817   5.183  19.616  0.00  0.00    +0.000 C 
ATOM     14  H   UNL     1       0.707   4.203  17.436  0.00  0.00    +0.000 HD
ENDROOT
BRANCH  12  15
ATOM     15  N   UNL     1       5.769   4.967  17.537  0.00  0.00    +0.000 N 
ATOM     16  C   UNL     1       7.031   5.134  17.049  0.00  0.00    +0.000 C 
ATOM     17  C   UNL     1       8.222   4.449  17.683  0.00  0.00    +0.000 C 
ATOM     18  O   UNL     1       7.176   5.820  16.039  0.00  0.00    +0.000 OA
ATOM     19  H   UNL     1       5.129   5.497  16.960  0.00  0.00    +0.000 HD
ENDBRANCH  12  15
BRANCH   1  21
ATOM     20  C   UNL     1       1.887   6.805  18.323  0.00  0.00    +0.000 C 
ATOM     21  C   UNL     1       2.945   6.113  17.473  0.00  0.00    +0.000 C 
ENDBRANCH   1  21
TORSDOF 2
ENDMDL
