MODEL 1
REMARK VINA RESULT:      -8.4      0.000      0.000
REMARK  Name = 
REMARK  3 active torsions:
REMARK  status: ('A' for Active; 'I' for Inactive)
REMARK    1  A    between atoms: C_2  and  C_3
REMARK    2  A    between atoms: C_8  and  O_9
REMARK    3  A    between atoms: C_10  and  O_11
REMARK                            x       y       z     vdW  Elec       q    Type
REMARK                         _______ _______ _______ _____ _____    ______ ____
ROOT
ATOM      1  C   UNL     1       1.908   7.739  19.666  0.00  0.00    +0.000 A 
ATOM      2  C   UNL     1       1.790   8.460  18.482  0.00  0.00    +0.000 A 
ATOM      3  C   UNL     1       1.104   9.678  18.487  0.00  0.00    +0.000 A 
ATOM      4  C   UNL     1       0.603  10.223  19.663  0.00  0.00    +0.000 A 
ATOM      5  N   UNL     1      -0.075  11.384  19.625  0.00  0.00    +0.000 NA
ATOM      6  C   UNL     1      -0.492  11.837  20.817  0.00  0.00    +0.000 A 
ATOM      7  C   UNL     1      -0.239  11.188  22.018  0.00  0.00    +0.000 A 
ATOM      8  N   UNL     1       0.421  10.026  22.071  0.00  0.00    +0.000 NA
ATOM      9  C   UNL     1       0.836   9.531  20.888  0.00  0.00    +0.000 A 
ATOM     10  C   UNL     1       1.474   8.307  20.867  0.00  0.00    +0.000 A 
ENDROOT
BRANCH   1  12
ATOM     11  O   UNL     1       2.032   5.655  20.676  0.00  0.00    +0.000 OA
ATOM     12  C   UNL     1       2.454   6.365  19.753  0.00  0.00    +0.000 C 
ATOM     13  N   UNL     1       3.290   5.893  18.748  0.00  0.00    +0.000 N 
ATOM     14  C   UNL     1       3.444   4.426  18.614  0.00  0.00    +0.000 C 
ATOM     15  C   UNL     1       3.470   3.999  17.123  0.00  0.00    +0.000 C 
ATOM     16  C   UNL     1       4.723   4.631  16.553  0.00  0.00    +0.000 A 
ATOM     17  C   UNL     1       5.685   3.879  15.884  0.00  0.00    +0.000 A 
ATOM     18  C   UNL     1       7.006   4.308  15.928  0.00  0.00    +0.000 A 
ATOM     19  C   UNL     1       7.350   5.478  16.610  0.00  0.00    +0.000 A 
ATOM     20  C   UNL     1       6.352   6.309  17.130  0.00  0.00    +0.000 A 
ATOM     21  C   UNL     1       5.021   5.917  17.042  0.00  0.00    +0.000 A 
ATOM     22  C   UNL     1       3.886   6.679  17.669  0.00  0.00    +0.000 C 
ENDBRANCH   1  12
BRANCH   6  23
ATOM     23  O   UNL     1      -1.207  12.992  20.778  0.00  0.00    +0.000 OA
ATOM     24  H   UNL     1      -1.751  12.885  21.581  0.00  0.00    +0.000 HD
ENDBRANCH   6  23
BRANCH   7  25
ATOM     25  O   UNL     1      -0.663  11.697  23.207  0.00  0.00    +0.000 OA
ATOM     26  H   UNL     1      -1.603  11.447  23.273  0.00  0.00    +0.000 HD
ENDBRANCH   7  25
TORSDOF 3
ENDMDL
MODEL 2
REMARK VINA RESULT:      -8.4      2.205      3.558
REMARK  Name = 
REMARK  3 active torsions:
REMARK  status: ('A' for Active; 'I' for Inactive)
REMARK    1  A    between atoms: C_2  and  C_3
REMARK    2  A    between atoms: C_8  and  O_9
REMARK    3  A    between atoms: C_10  and  O_11
REMARK                            x       y       z     vdW  Elec       q    Type
REMARK                         _______ _______ _______ _____ _____    ______ ____
ROOT
ATOM      1  C   UNL     1       1.265   8.780  20.221  0.00  0.00    +0.000 A 
ATOM      2  C   UNL     1       1.425   8.508  21.576  0.00  0.00    +0.000 A 
ATOM      3  C   UNL     1       0.788   9.321  22.518  0.00  0.00    +0.000 A 
ATOM      4  C   UNL     1      -0.064  10.348  22.131  0.00  0.00    +0.000 A 
ATOM      5  N   UNL     1      -0.638  11.127  23.066  0.00  0.00    +0.000 NA
ATOM      6  C   UNL     1      -1.462  12.072  22.589  0.00  0.00    +0.000 A 
ATOM      7  C   UNL     1      -1.737  12.243  21.239  0.00  0.00    +0.000 A 
ATOM      8  N   UNL     1      -1.163  11.487  20.297  0.00  0.00    +0.000 NA
ATOM      9  C   UNL     1      -0.312  10.540  20.741  0.00  0.00    +0.000 A 
ATOM     10  C   UNL     1       0.357   9.763  19.816  0.00  0.00    +0.000 A 
ENDROOT
BRANCH   1  12
ATOM     11  O   UNL     1       2.429   8.821  18.216  0.00  0.00    +0.000 OA
ATOM     12  C   UNL     1       2.022   8.106  19.141  0.00  0.00    +0.000 C 
ATOM     13  N   UNL     1       2.354   6.763  19.270  0.00  0.00    +0.000 N 
ATOM     14  C   UNL     1       3.464   6.246  18.438  0.00  0.00    +0.000 C 
ATOM     15  C   UNL     1       4.355   5.261  19.241  0.00  0.00    +0.000 C 
ATOM     16  C   UNL     1       3.455   4.085  19.561  0.00  0.00    +0.000 A 
ATOM     17  C   UNL     1       3.812   2.779  19.239  0.00  0.00    +0.000 A 
ATOM     18  C   UNL     1       2.799   1.865  18.973  0.00  0.00    +0.000 A 
ATOM     19  C   UNL     1       1.457   2.249  19.054  0.00  0.00    +0.000 A 
ATOM     20  C   UNL     1       1.116   3.513  19.544  0.00  0.00    +0.000 A 
ATOM     21  C   UNL     1       2.121   4.417  19.866  0.00  0.00    +0.000 A 
ATOM     22  C   UNL     1       1.860   5.837  20.289  0.00  0.00    +0.000 C 
ENDBRANCH   1  12
BRANCH   6  23
ATOM     23  O   UNL     1      -2.017  12.882  23.529  0.00  0.00    +0.000 OA
ATOM     24  H   UNL     1      -2.813  12.365  23.753  0.00  0.00    +0.000 HD
ENDBRANCH   6  23
BRANCH   7  25
ATOM     25  O   UNL     1      -2.599  13.203  20.802  0.00  0.00    +0.000 OA
ATOM     26  H   UNL     1      -2.445  13.970  21.384  0.00  0.00    +0.000 HD
ENDBRANCH   7  25
TORSDOF 3
ENDMDL
MODEL 3
REMARK VINA RESULT:      -8.4      2.049      3.153
REMARK  Name = 
REMARK  3 active torsions:
REMARK  status: ('A' for Active; 'I' for Inactive)
REMARK    1  A    between atoms: C_2  and  C_3
REMARK    2  A    between atoms: C_8  and  O_9
REMARK    3  A    between atoms: C_10  and  O_11
REMARK                            x       y       z     vdW  Elec       q    Type
REMARK                         _______ _______ _______ _____ _____    ______ ____
ROOT
ATOM      1  C   UNL     1       1.747   8.750  18.696  0.00  0.00    +0.000 A 
ATOM      2  C   UNL     1       0.910   9.731  18.171  0.00  0.00    +0.000 A 
ATOM      3  C   UNL     1       0.016  10.393  19.018  0.00  0.00    +0.000 A 
ATOM      4  C   UNL     1      -0.001  10.150  20.386  0.00  0.00    +0.000 A 
ATOM      5  N   UNL     1      -0.895  10.788  21.165  0.00  0.00    +0.000 NA
ATOM      6  C   UNL     1      -0.811  10.503  22.473  0.00  0.00    +0.000 A 
ATOM      7  C   UNL     1       0.130   9.636  23.012  0.00  0.00    +0.000 A 
ATOM      8  N   UNL     1       1.014   8.984  22.250  0.00  0.00    +0.000 NA
ATOM      9  C   UNL     1       0.944   9.231  20.927  0.00  0.00    +0.000 A 
ATOM     10  C   UNL     1       1.791   8.546  20.078  0.00  0.00    +0.000 A 
ENDROOT
BRANCH   1  12
ATOM     11  O   UNL     1       3.200   8.386  16.926  0.00  0.00    +0.000 OA
ATOM     12  C   UNL     1       2.605   7.863  17.878  0.00  0.00    +0.000 C 
ATOM     13  N   UNL     1       2.812   6.548  18.277  0.00  0.00    +0.000 N 
ATOM     14  C   UNL     1       3.993   5.841  17.731  0.00  0.00    +0.000 C 
ATOM     15  C   UNL     1       4.675   4.968  18.818  0.00  0.00    +0.000 C 
ATOM     16  C   UNL     1       3.652   3.911  19.176  0.00  0.00    +0.000 A 
ATOM     17  C   UNL     1       3.953   2.553  19.133  0.00  0.00    +0.000 A 
ATOM     18  C   UNL     1       2.926   1.657  18.860  0.00  0.00    +0.000 A 
ATOM     19  C   UNL     1       1.621   2.114  18.659  0.00  0.00    +0.000 A 
ATOM     20  C   UNL     1       1.305   3.459  18.874  0.00  0.00    +0.000 A 
ATOM     21  C   UNL     1       2.316   4.355  19.202  0.00  0.00    +0.000 A 
ATOM     22  C   UNL     1       2.101   5.838  19.339  0.00  0.00    +0.000 C 
ENDBRANCH   1  12
BRANCH   6  23
ATOM     23  O   UNL     1      -1.733  11.119  23.258  0.00  0.00    +0.000 OA
ATOM     24  H   UNL     1      -2.368  10.389  23.383  0.00  0.00    +0.000 HD
ENDBRANCH   6  23
BRANCH   7  25
ATOM     25  O   UNL     1       0.191   9.394  24.351  0.00  0.00    +0.000 OA
ATOM     26  H   UNL     1       1.054   8.962  24.495  0.00  0.00    +0.000 HD
ENDBRANCH   7  25
TORSDOF 3
ENDMDL
MODEL 4
REMARK VINA RESULT:      -8.3      2.773      7.830
REMARK  Name = 
REMARK  3 active torsions:
REMARK  status: ('A' for Active; 'I' for Inactive)
REMARK    1  A    between atoms: C_2  and  C_3
REMARK    2  A    between atoms: C_8  and  O_9
REMARK    3  A    between atoms: C_10  and  O_11
REMARK                            x       y       z     vdW  Elec       q    Type
REMARK                         _______ _______ _______ _____ _____    ______ ____
ROOT
ATOM      1  C   UNL     1       2.666   5.470  19.292  0.00  0.00    +0.000 A 
ATOM      2  C   UNL     1       2.375   5.043  18.000  0.00  0.00    +0.000 A 
ATOM      3  C   UNL     1       3.424   4.754  17.121  0.00  0.00    +0.000 A 
ATOM      4  C   UNL     1       4.750   4.811  17.532  0.00  0.00    +0.000 A 
ATOM      5  N   UNL     1       5.733   4.553  16.651  0.00  0.00    +0.000 NA
ATOM      6  C   UNL     1       6.975   4.608  17.155  0.00  0.00    +0.000 A 
ATOM      7  C   UNL     1       7.254   4.887  18.486  0.00  0.00    +0.000 A 
ATOM      8  N   UNL     1       6.289   5.160  19.371  0.00  0.00    +0.000 NA
ATOM      9  C   UNL     1       5.029   5.134  18.892  0.00  0.00    +0.000 A 
ATOM     10  C   UNL     1       3.990   5.462  19.741  0.00  0.00    +0.000 A 
ENDROOT
BRANCH   1  12
ATOM     11  O   UNL     1       1.200   5.148  21.059  0.00  0.00    +0.000 OA
ATOM     12  C   UNL     1       1.654   5.969  20.251  0.00  0.00    +0.000 C 
ATOM     13  N   UNL     1       1.362   7.327  20.297  0.00  0.00    +0.000 N 
ATOM     14  C   UNL     1       0.722   7.852  21.525  0.00  0.00    +0.000 C 
ATOM     15  C   UNL     1       1.310   9.234  21.917  0.00  0.00    +0.000 C 
ATOM     16  C   UNL     1       0.925  10.162  20.784  0.00  0.00    +0.000 A 
ATOM     17  C   UNL     1       0.250  11.358  21.013  0.00  0.00    +0.000 A 
ATOM     18  C   UNL     1      -0.590  11.842  20.017  0.00  0.00    +0.000 A 
ATOM     19  C   UNL     1      -0.730  11.152  18.809  0.00  0.00    +0.000 A 
ATOM     20  C   UNL     1       0.083  10.050  18.531  0.00  0.00    +0.000 A 
ATOM     21  C   UNL     1       0.967   9.589  19.499  0.00  0.00    +0.000 A 
ATOM     22  C   UNL     1       1.799   8.345  19.342  0.00  0.00    +0.000 C 
ENDBRANCH   1  12
BRANCH   6  23
ATOM     23  O   UNL     1       7.973   4.382  16.259  0.00  0.00    +0.000 OA
ATOM     24  H   UNL     1       8.542   5.154  16.437  0.00  0.00    +0.000 HD
ENDBRANCH   6  23
BRANCH   7  25
ATOM     25  O   UNL     1       8.531   4.911  18.958  0.00  0.00    +0.000 OA
ATOM     26  H   UNL     1       8.615   5.760  19.430  0.00  0.00    +0.000 HD
ENDBRANCH   7  25
TORSDOF 3
ENDMDL
MODEL 5
REMARK VINA RESULT:      -8.3      2.372      3.703
REMARK  Name = 
REMARK  3 active torsions:
REMARK  status: ('A' for Active; 'I' for Inactive)
REMARK    1  A    between atoms: C_2  and  C_3
REMARK    2  A    between atoms: C_8  and  O_9
REMARK    3  A    between atoms: C_10  and  O_11
REMARK                            x       y       z     vdW  Elec       q    Type
REMARK                         _______ _______ _______ _____ _____    ______ ____
ROOT
ATOM      1  C   UNL     1       1.459   8.845  18.623  0.00  0.00    +0.000 A 
ATOM      2  C   UNL     1       1.414   9.125  19.986  0.00  0.00    +0.000 A 
ATOM      3  C   UNL     1       0.446  10.011  20.471  0.00  0.00    +0.000 A 
ATOM      4  C   UNL     1      -0.520  10.557  19.635  0.00  0.00    +0.000 A 
ATOM      5  N   UNL     1      -1.419  11.426  20.133  0.00  0.00    +0.000 NA
ATOM      6  C   UNL     1      -2.324  11.874  19.250  0.00  0.00    +0.000 A 
ATOM      7  C   UNL     1      -2.367  11.472  17.922  0.00  0.00    +0.000 A 
ATOM      8  N   UNL     1      -1.473  10.620  17.408  0.00  0.00    +0.000 NA
ATOM      9  C   UNL     1      -0.535  10.167  18.264  0.00  0.00    +0.000 A 
ATOM     10  C   UNL     1       0.452   9.329  17.783  0.00  0.00    +0.000 A 
ENDROOT
BRANCH   1  12
ATOM     11  O   UNL     1       3.265   8.682  17.179  0.00  0.00    +0.000 OA
ATOM     12  C   UNL     1       2.537   8.068  17.969  0.00  0.00    +0.000 C 
ATOM     13  N   UNL     1       2.769   6.754  18.357  0.00  0.00    +0.000 N 
ATOM     14  C   UNL     1       4.092   6.167  18.042  0.00  0.00    +0.000 C 
ATOM     15  C   UNL     1       4.612   5.294  19.214  0.00  0.00    +0.000 C 
ATOM     16  C   UNL     1       3.630   4.146  19.318  0.00  0.00    +0.000 A 
ATOM     17  C   UNL     1       4.048   2.818  19.292  0.00  0.00    +0.000 A 
ATOM     18  C   UNL     1       3.176   1.862  18.783  0.00  0.00    +0.000 A 
ATOM     19  C   UNL     1       1.905   2.229  18.334  0.00  0.00    +0.000 A 
ATOM     20  C   UNL     1       1.439   3.533  18.525  0.00  0.00    +0.000 A 
ATOM     21  C   UNL     1       2.283   4.485  19.084  0.00  0.00    +0.000 A 
ATOM     22  C   UNL     1       1.921   5.939  19.226  0.00  0.00    +0.000 C 
ENDBRANCH   1  12
BRANCH   6  23
ATOM     23  O   UNL     1      -3.212  12.778  19.741  0.00  0.00    +0.000 OA
ATOM     24  H   UNL     1      -3.424  12.363  20.598  0.00  0.00    +0.000 HD
ENDBRANCH   6  23
BRANCH   7  25
ATOM     25  O   UNL     1      -3.319  11.937  17.066  0.00  0.00    +0.000 OA
ATOM     26  H   UNL     1      -2.827  12.295  16.304  0.00  0.00    +0.000 HD
ENDBRANCH   7  25
TORSDOF 3
ENDMDL
MODEL 6
REMARK VINA RESULT:      -8.3      2.615      8.086
REMARK  Name = 
REMARK  3 active torsions:
REMARK  status: ('A' for Active; 'I' for Inactive)
REMARK    1  A    between atoms: C_2  and  C_3
REMARK    2  A    between atoms: C_8  and  O_9
REMARK    3  A    between atoms: C_10  and  O_11
REMARK                            x       y       z     vdW  Elec       q    Type
REMARK                         _______ _______ _______ _____ _____    ______ ____
ROOT
ATOM      1  C   UNL     1       2.110   7.846  19.347  0.00  0.00    +0.000 A 
ATOM      2  C   UNL     1       2.573   8.325  18.125  0.00  0.00    +0.000 A 
ATOM      3  C   UNL     1       3.554   7.605  17.434  0.00  0.00    +0.000 A 
ATOM      4  C   UNL     1       4.020   6.383  17.903  0.00  0.00    +0.000 A 
ATOM      5  N   UNL     1       4.983   5.732  17.225  0.00  0.00    +0.000 NA
ATOM      6  C   UNL     1       5.343   4.550  17.747  0.00  0.00    +0.000 A 
ATOM      7  C   UNL     1       4.768   4.005  18.887  0.00  0.00    +0.000 A 
ATOM      8  N   UNL     1       3.821   4.646  19.579  0.00  0.00    +0.000 NA
ATOM      9  C   UNL     1       3.450   5.847  19.094  0.00  0.00    +0.000 A 
ATOM     10  C   UNL     1       2.516   6.586  19.794  0.00  0.00    +0.000 A 
ENDROOT
BRANCH   1  12
ATOM     11  O   UNL     1       1.441   8.519  21.462  0.00  0.00    +0.000 OA
ATOM     12  C   UNL     1       1.210   8.601  20.248  0.00  0.00    +0.000 C 
ATOM     13  N   UNL     1       0.254   9.454  19.710  0.00  0.00    +0.000 N 
ATOM     14  C   UNL     1      -0.300  10.509  20.588  0.00  0.00    +0.000 C 
ATOM     15  C   UNL     1      -0.476  11.845  19.818  0.00  0.00    +0.000 C 
ATOM     16  C   UNL     1      -1.520  11.555  18.759  0.00  0.00    +0.000 A 
ATOM     17  C   UNL     1      -2.665  12.334  18.626  0.00  0.00    +0.000 A 
ATOM     18  C   UNL     1      -3.817  11.735  18.129  0.00  0.00    +0.000 A 
ATOM     19  C   UNL     1      -3.810  10.389  17.753  0.00  0.00    +0.000 A 
ATOM     20  C   UNL     1      -2.612   9.670  17.732  0.00  0.00    +0.000 A 
ATOM     21  C   UNL     1      -1.442  10.277  18.174  0.00  0.00    +0.000 A 
ATOM     22  C   UNL     1      -0.127   9.556  18.301  0.00  0.00    +0.000 C 
ENDBRANCH   1  12
BRANCH   6  23
ATOM     23  O   UNL     1       6.340   3.906  17.084  0.00  0.00    +0.000 OA
ATOM     24  H   UNL     1       5.889   3.712  16.241  0.00  0.00    +0.000 HD
ENDBRANCH   6  23
BRANCH   7  25
ATOM     25  O   UNL     1       5.151   2.789  19.368  0.00  0.00    +0.000 OA
ATOM     26  H   UNL     1       5.681   2.983  20.163  0.00  0.00    +0.000 HD
ENDBRANCH   7  25
TORSDOF 3
ENDMDL
MODEL 7
REMARK VINA RESULT:      -8.1      2.624      8.031
REMARK  Name = 
REMARK  3 active torsions:
REMARK  status: ('A' for Active; 'I' for Inactive)
REMARK    1  A    between atoms: C_2  and  C_3
REMARK    2  A    between atoms: C_8  and  O_9
REMARK    3  A    between atoms: C_10  and  O_11
REMARK                            x       y       z     vdW  Elec       q    Type
REMARK                         _______ _______ _______ _____ _____    ______ ____
ROOT
ATOM      1  C   UNL     1       2.744   6.700  19.047  0.00  0.00    +0.000 A 
ATOM      2  C   UNL     1       2.605   7.385  17.843  0.00  0.00    +0.000 A 
ATOM      3  C   UNL     1       3.626   7.311  16.890  0.00  0.00    +0.000 A 
ATOM      4  C   UNL     1       4.743   6.507  17.086  0.00  0.00    +0.000 A 
ATOM      5  N   UNL     1       5.718   6.483  16.159  0.00  0.00    +0.000 NA
ATOM      6  C   UNL     1       6.738   5.655  16.431  0.00  0.00    +0.000 A 
ATOM      7  C   UNL     1       6.800   4.858  17.566  0.00  0.00    +0.000 A 
ATOM      8  N   UNL     1       5.846   4.882  18.503  0.00  0.00    +0.000 NA
ATOM      9  C   UNL     1       4.815   5.719  18.271  0.00  0.00    +0.000 A 
ATOM     10  C   UNL     1       3.826   5.833  19.228  0.00  0.00    +0.000 A 
ENDROOT
BRANCH   1  12
ATOM     11  O   UNL     1       1.670   5.843  20.914  0.00  0.00    +0.000 OA
ATOM     12  C   UNL     1       1.821   6.840  20.195  0.00  0.00    +0.000 C 
ATOM     13  N   UNL     1       1.279   8.085  20.495  0.00  0.00    +0.000 N 
ATOM     14  C   UNL     1       0.753   8.295  21.863  0.00  0.00    +0.000 C 
ATOM     15  C   UNL     1       1.113   9.710  22.390  0.00  0.00    +0.000 C 
ATOM     16  C   UNL     1       0.379  10.670  21.479  0.00  0.00    +0.000 A 
ATOM     17  C   UNL     1      -0.472  11.651  21.980  0.00  0.00    +0.000 A 
ATOM     18  C   UNL     1      -1.539  12.066  21.191  0.00  0.00    +0.000 A 
ATOM     19  C   UNL     1      -1.732  11.523  19.917  0.00  0.00    +0.000 A 
ATOM     20  C   UNL     1      -0.774  10.669  19.364  0.00  0.00    +0.000 A 
ATOM     21  C   UNL     1       0.326  10.291  20.124  0.00  0.00    +0.000 A 
ATOM     22  C   UNL     1       1.350   9.288  19.666  0.00  0.00    +0.000 C 
ENDBRANCH   1  12
BRANCH   6  23
ATOM     23  O   UNL     1       7.741   5.654  15.514  0.00  0.00    +0.000 OA
ATOM     24  H   UNL     1       8.075   4.744  15.626  0.00  0.00    +0.000 HD
ENDBRANCH   6  23
BRANCH   7  25
ATOM     25  O   UNL     1       7.847   4.016  17.789  0.00  0.00    +0.000 OA
ATOM     26  H   UNL     1       8.167   4.236  18.684  0.00  0.00    +0.000 HD
ENDBRANCH   7  25
TORSDOF 3
ENDMDL
MODEL 8
REMARK VINA RESULT:      -8.0      2.786      7.717
REMARK  Name = 
REMARK  3 active torsions:
REMARK  status: ('A' for Active; 'I' for Inactive)
REMARK    1  A    between atoms: C_2  and  C_3
REMARK    2  A    between atoms: C_8  and  O_9
REMARK    3  A    between atoms: C_10  and  O_11
REMARK                            x       y       z     vdW  Elec       q    Type
REMARK                         _______ _______ _______ _____ _____    ______ ____
ROOT
ATOM      1  C   UNL     1       2.862   5.251  19.026  0.00  0.00    +0.000 A 
ATOM      2  C   UNL     1       2.697   4.094  18.271  0.00  0.00    +0.000 A 
ATOM      3  C   UNL     1       3.605   3.810  17.246  0.00  0.00    +0.000 A 
ATOM      4  C   UNL     1       4.712   4.618  17.014  0.00  0.00    +0.000 A 
ATOM      5  N   UNL     1       5.548   4.328  16.000  0.00  0.00    +0.000 NA
ATOM      6  C   UNL     1       6.598   5.153  15.879  0.00  0.00    +0.000 A 
ATOM      7  C   UNL     1       6.840   6.221  16.732  0.00  0.00    +0.000 A 
ATOM      8  N   UNL     1       6.011   6.531  17.734  0.00  0.00    +0.000 NA
ATOM      9  C   UNL     1       4.933   5.734  17.872  0.00  0.00    +0.000 A 
ATOM     10  C   UNL     1       4.007   6.034  18.852  0.00  0.00    +0.000 A 
ENDROOT
BRANCH   1  12
ATOM     11  O   UNL     1       1.470   4.932  20.853  0.00  0.00    +0.000 OA
ATOM     12  C   UNL     1       1.877   5.747  20.014  0.00  0.00    +0.000 C 
ATOM     13  N   UNL     1       1.559   7.100  20.048  0.00  0.00    +0.000 N 
ATOM     14  C   UNL     1       0.955   7.634  21.291  0.00  0.00    +0.000 C 
ATOM     15  C   UNL     1       1.528   9.034  21.636  0.00  0.00    +0.000 C 
ATOM     16  C   UNL     1       1.082   9.934  20.503  0.00  0.00    +0.000 A 
ATOM     17  C   UNL     1       0.391  11.120  20.736  0.00  0.00    +0.000 A 
ATOM     18  C   UNL     1      -0.496  11.569  19.765  0.00  0.00    +0.000 A 
ATOM     19  C   UNL     1      -0.667  10.855  18.576  0.00  0.00    +0.000 A 
ATOM     20  C   UNL     1       0.157   9.764  18.285  0.00  0.00    +0.000 A 
ATOM     21  C   UNL     1       1.087   9.339  19.227  0.00  0.00    +0.000 A 
ATOM     22  C   UNL     1       1.938   8.109  19.060  0.00  0.00    +0.000 C 
ENDBRANCH   1  12
BRANCH   6  23
ATOM     23  O   UNL     1       7.427   4.884  14.835  0.00  0.00    +0.000 OA
ATOM     24  H   UNL     1       6.774   4.618  14.161  0.00  0.00    +0.000 HD
ENDBRANCH   6  23
BRANCH   7  25
ATOM     25  O   UNL     1       7.933   7.020  16.582  0.00  0.00    +0.000 OA
ATOM     26  H   UNL     1       8.700   6.434  16.716  0.00  0.00    +0.000 HD
ENDBRANCH   7  25
TORSDOF 3
ENDMDL
MODEL 9
REMARK VINA RESULT:      -7.9      3.272      8.198
REMARK  Name = 
REMARK  3 active torsions:
REMARK  status: ('A' for Active; 'I' for Inactive)
REMARK    1  A    between atoms: C_2  and  C_3
REMARK    2  A    between atoms: C_8  and  O_9
REMARK    3  A    between atoms: C_10  and  O_11
REMARK                            x       y       z     vdW  Elec       q    Type
REMARK                         _______ _______ _______ _____ _____    ______ ____
ROOT
ATOM      1  C   UNL     1       2.420   6.397  18.477  0.00  0.00    +0.000 A 
ATOM      2  C   UNL     1       1.535   5.709  17.653  0.00  0.00    +0.000 A 
ATOM      3  C   UNL     1       1.673   4.326  17.502  0.00  0.00    +0.000 A 
ATOM      4  C   UNL     1       2.627   3.611  18.217  0.00  0.00    +0.000 A 
ATOM      5  N   UNL     1       2.748   2.285  18.024  0.00  0.00    +0.000 NA
ATOM      6  C   UNL     1       3.679   1.685  18.782  0.00  0.00    +0.000 A 
ATOM      7  C   UNL     1       4.458   2.354  19.716  0.00  0.00    +0.000 A 
ATOM      8  N   UNL     1       4.360   3.674  19.907  0.00  0.00    +0.000 NA
ATOM      9  C   UNL     1       3.448   4.312  19.147  0.00  0.00    +0.000 A 
ATOM     10  C   UNL     1       3.336   5.684  19.256  0.00  0.00    +0.000 A 
ENDROOT
BRANCH   1  12
ATOM     11  O   UNL     1       3.323   8.445  17.870  0.00  0.00    +0.000 OA
ATOM     12  C   UNL     1       2.485   7.873  18.580  0.00  0.00    +0.000 C 
ATOM     13  N   UNL     1       1.542   8.551  19.343  0.00  0.00    +0.000 N 
ATOM     14  C   UNL     1       1.345   9.993  19.071  0.00  0.00    +0.000 C 
ATOM     15  C   UNL     1      -0.158  10.374  19.132  0.00  0.00    +0.000 C 
ATOM     16  C   UNL     1      -0.569  10.134  20.570  0.00  0.00    +0.000 A 
ATOM     17  C   UNL     1      -1.181  11.123  21.333  0.00  0.00    +0.000 A 
ATOM     18  C   UNL     1      -0.986  11.111  22.710  0.00  0.00    +0.000 A 
ATOM     19  C   UNL     1      -0.211  10.112  23.307  0.00  0.00    +0.000 A 
ATOM     20  C   UNL     1       0.253   9.034  22.549  0.00  0.00    +0.000 A 
ATOM     21  C   UNL     1       0.015   9.007  21.180  0.00  0.00    +0.000 A 
ATOM     22  C   UNL     1       0.570   7.954  20.259  0.00  0.00    +0.000 C 
ENDBRANCH   1  12
BRANCH   6  23
ATOM     23  O   UNL     1       3.828   0.351  18.566  0.00  0.00    +0.000 OA
ATOM     24  H   UNL     1       3.698   0.318  17.600  0.00  0.00    +0.000 HD
ENDBRANCH   6  23
BRANCH   7  25
ATOM     25  O   UNL     1       5.377   1.699  20.479  0.00  0.00    +0.000 OA
ATOM     26  H   UNL     1       5.232   0.752  20.299  0.00  0.00    +0.000 HD
ENDBRANCH   7  25
TORSDOF 3
ENDMDL
