MODEL 1
REMARK VINA RESULT:      -6.2      0.000      0.000
REMARK  Name = 
REMARK  14 active torsions:
REMARK  status: ('A' for Active; 'I' for Inactive)
REMARK    1  A    between atoms: C_1  and  C_2
REMARK    2  A    between atoms: C_2  and  C_3
REMARK    3  A    between atoms: C_3  and  N_4
REMARK    4  A    between atoms: N_4  and  C_5
REMARK    5  A    between atoms: N_4  and  C_9
REMARK    6  A    between atoms: C_5  and  C_6
REMARK    7  A    between atoms: C_11  and  C_12
REMARK    8  A    between atoms: C_14  and  C_15
REMARK    9  A    between atoms: C_15  and  C_17
REMARK   10  A    between atoms: C_18  and  C_19
REMARK   11  A    between atoms: C_21  and  C_22
REMARK   12  A    between atoms: C_24  and  C_25
REMARK   13  A    between atoms: C_26  and  C_27
REMARK   14  A    between atoms: C_27  and  C_28
REMARK                            x       y       z     vdW  Elec       q    Type
REMARK                         _______ _______ _______ _____ _____    ______ ____
ROOT
ATOM      1  C   UNL     1       2.251   6.695  19.884  0.00  0.00    +0.000 A 
ATOM      2  N   UNL     1       1.633   5.711  20.574  0.00  0.00    +0.000 NA
ATOM      3  C   UNL     1       2.241   4.533  20.727  0.00  0.00    +0.000 A 
ATOM      4  C   UNL     1       1.492   3.450  21.437  0.00  0.00    +0.000 C 
ATOM      5  N   UNL     1       3.432   4.239  20.215  0.00  0.00    +0.000 NA
ATOM      6  C   UNL     1       3.995   5.188  19.440  0.00  0.00    +0.000 A 
ATOM      7  C   UNL     1       3.464   6.471  19.226  0.00  0.00    +0.000 A 
ENDROOT
BRANCH   6   8
ATOM      8  C   UNL     1       5.259   4.724  18.775  0.00  0.00    +0.000 C 
ATOM      9  O   UNL     1       6.211   4.365  19.469  0.00  0.00    +0.000 OA
BRANCH   8  10
ATOM     10  C   UNL     1       5.416   4.722  17.278  0.00  0.00    +0.000 A 
ATOM     11  C   UNL     1       4.583   3.861  16.515  0.00  0.00    +0.000 A 
ATOM     12  C   UNL     1       3.403   3.099  17.068  0.00  0.00    +0.000 C 
ATOM     13  C   UNL     1       4.869   3.641  15.151  0.00  0.00    +0.000 A 
ATOM     14  C   UNL     1       5.941   4.274  14.525  0.00  0.00    +0.000 A 
ATOM     15  C   UNL     1       6.317   3.966  13.107  0.00  0.00    +0.000 C 
ATOM     16  C   UNL     1       6.690   5.196  15.252  0.00  0.00    +0.000 A 
ATOM     17  C   UNL     1       6.465   5.422  16.624  0.00  0.00    +0.000 A 
ATOM     18  C   UNL     1       7.413   6.386  17.284  0.00  0.00    +0.000 C 
ENDBRANCH   8  10
ENDBRANCH   6   8
BRANCH   7  19
ATOM     19  C   UNL     1       4.163   7.509  18.392  0.00  0.00    +0.000 C 
ATOM     20  C   UNL     1       3.624   7.657  16.974  0.00  0.00    +0.000 C 
ENDBRANCH   7  19
BRANCH   1  21
ATOM     21  N   UNL     1       1.688   7.968  20.007  0.00  0.00    +0.000 N 
BRANCH  21  22
ATOM     22  C   UNL     1       1.405   8.333  21.419  0.00  0.00    +0.000 C 
BRANCH  22  24
ATOM     23  C   UNL     1      -0.466   9.777  22.436  0.00  0.00    +0.000 C 
ATOM     24  C   UNL     1      -0.110   8.570  21.586  0.00  0.00    +0.000 C 
ENDBRANCH  22  24
ENDBRANCH  21  22
BRANCH  21  25
ATOM     25  C   UNL     1       0.744   8.447  18.991  0.00  0.00    +0.000 C 
BRANCH  25  26
ATOM     26  C   UNL     1       1.051   9.789  18.387  0.00  0.00    +0.000 C 
ATOM     27  C   UNL     1      -0.058  10.824  18.404  0.00  0.00    +0.000 C 
ATOM     28  C   UNL     1       1.192  11.064  19.196  0.00  0.00    +0.000 C 
ENDBRANCH  25  26
ENDBRANCH  21  25
ENDBRANCH   1  21
TORSDOF 8
ENDMDL
MODEL 2
REMARK VINA RESULT:      -6.1      3.128      8.277
REMARK  Name = 
REMARK  14 active torsions:
REMARK  status: ('A' for Active; 'I' for Inactive)
REMARK    1  A    between atoms: C_1  and  C_2
REMARK    2  A    between atoms: C_2  and  C_3
REMARK    3  A    between atoms: C_3  and  N_4
REMARK    4  A    between atoms: N_4  and  C_5
REMARK    5  A    between atoms: N_4  and  C_9
REMARK    6  A    between atoms: C_5  and  C_6
REMARK    7  A    between atoms: C_11  and  C_12
REMARK    8  A    between atoms: C_14  and  C_15
REMARK    9  A    between atoms: C_15  and  C_17
REMARK   10  A    between atoms: C_18  and  C_19
REMARK   11  A    between atoms: C_21  and  C_22
REMARK   12  A    between atoms: C_24  and  C_25
REMARK   13  A    between atoms: C_26  and  C_27
REMARK   14  A    between atoms: C_27  and  C_28
REMARK                            x       y       z     vdW  Elec       q    Type
REMARK                         _______ _______ _______ _____ _____    ______ ____
ROOT
ATOM      1  C   UNL     1       1.267   8.214  20.371  0.00  0.00    +0.000 A 
ATOM      2  N   UNL     1       0.994   8.350  21.688  0.00  0.00    +0.000 NA
ATOM      3  C   UNL     1       0.213   9.352  22.097  0.00  0.00    +0.000 A 
ATOM      4  C   UNL     1      -0.007   9.507  23.568  0.00  0.00    +0.000 C 
ATOM      5  N   UNL     1      -0.310  10.267  21.286  0.00  0.00    +0.000 NA
ATOM      6  C   UNL     1       0.053  10.186  19.990  0.00  0.00    +0.000 A 
ATOM      7  C   UNL     1       0.847   9.165  19.438  0.00  0.00    +0.000 A 
ENDROOT
BRANCH   6   8
ATOM      8  C   UNL     1      -0.450  11.339  19.171  0.00  0.00    +0.000 C 
ATOM      9  O   UNL     1       0.344  12.190  18.771  0.00  0.00    +0.000 OA
BRANCH   8  10
ATOM     10  C   UNL     1      -1.913  11.513  18.857  0.00  0.00    +0.000 A 
ATOM     11  C   UNL     1      -2.688  12.349  19.703  0.00  0.00    +0.000 A 
ATOM     12  C   UNL     1      -2.118  13.249  20.773  0.00  0.00    +0.000 C 
ATOM     13  C   UNL     1      -4.095  12.337  19.598  0.00  0.00    +0.000 A 
ATOM     14  C   UNL     1      -4.744  11.537  18.660  0.00  0.00    +0.000 A 
ATOM     15  C   UNL     1      -6.238  11.435  18.612  0.00  0.00    +0.000 C 
ATOM     16  C   UNL     1      -3.974  10.799  17.765  0.00  0.00    +0.000 A 
ATOM     17  C   UNL     1      -2.569  10.751  17.852  0.00  0.00    +0.000 A 
ATOM     18  C   UNL     1      -1.889   9.842  16.864  0.00  0.00    +0.000 C 
ENDBRANCH   8  10
ENDBRANCH   6   8
BRANCH   7  19
ATOM     19  C   UNL     1       1.178   9.098  17.972  0.00  0.00    +0.000 C 
ATOM     20  C   UNL     1       2.418   9.882  17.562  0.00  0.00    +0.000 C 
ENDBRANCH   7  19
BRANCH   1  21
ATOM     21  N   UNL     1       1.847   6.999  19.995  0.00  0.00    +0.000 N 
BRANCH  21  22
ATOM     22  C   UNL     1       1.569   5.909  20.967  0.00  0.00    +0.000 C 
BRANCH  22  24
ATOM     23  C   UNL     1       1.661   3.361  20.619  0.00  0.00    +0.000 C 
ATOM     24  C   UNL     1       1.030   4.681  20.206  0.00  0.00    +0.000 C 
ENDBRANCH  22  24
ENDBRANCH  21  22
BRANCH  21  25
ATOM     25  C   UNL     1       3.158   6.990  19.338  0.00  0.00    +0.000 C 
BRANCH  25  26
ATOM     26  C   UNL     1       3.233   6.263  18.025  0.00  0.00    +0.000 C 
ATOM     27  C   UNL     1       4.445   6.533  17.154  0.00  0.00    +0.000 C 
ATOM     28  C   UNL     1       4.233   5.164  17.727  0.00  0.00    +0.000 C 
ENDBRANCH  25  26
ENDBRANCH  21  25
ENDBRANCH   1  21
TORSDOF 8
ENDMDL
MODEL 3
REMARK VINA RESULT:      -6.1      3.132      8.224
REMARK  Name = 
REMARK  14 active torsions:
REMARK  status: ('A' for Active; 'I' for Inactive)
REMARK    1  A    between atoms: C_1  and  C_2
REMARK    2  A    between atoms: C_2  and  C_3
REMARK    3  A    between atoms: C_3  and  N_4
REMARK    4  A    between atoms: N_4  and  C_5
REMARK    5  A    between atoms: N_4  and  C_9
REMARK    6  A    between atoms: C_5  and  C_6
REMARK    7  A    between atoms: C_11  and  C_12
REMARK    8  A    between atoms: C_14  and  C_15
REMARK    9  A    between atoms: C_15  and  C_17
REMARK   10  A    between atoms: C_18  and  C_19
REMARK   11  A    between atoms: C_21  and  C_22
REMARK   12  A    between atoms: C_24  and  C_25
REMARK   13  A    between atoms: C_26  and  C_27
REMARK   14  A    between atoms: C_27  and  C_28
REMARK                            x       y       z     vdW  Elec       q    Type
REMARK                         _______ _______ _______ _____ _____    ______ ____
ROOT
ATOM      1  C   UNL     1       1.334   8.159  20.372  0.00  0.00    +0.000 A 
ATOM      2  N   UNL     1       1.105   8.291  21.698  0.00  0.00    +0.000 NA
ATOM      3  C   UNL     1       0.303   9.265  22.133  0.00  0.00    +0.000 A 
ATOM      4  C   UNL     1       0.133   9.419  23.611  0.00  0.00    +0.000 C 
ATOM      5  N   UNL     1      -0.284  10.156  21.338  0.00  0.00    +0.000 NA
ATOM      6  C   UNL     1       0.033  10.082  20.030  0.00  0.00    +0.000 A 
ATOM      7  C   UNL     1       0.843   9.090  19.453  0.00  0.00    +0.000 A 
ENDROOT
BRANCH   6   8
ATOM      8  C   UNL     1      -0.544  11.211  19.226  0.00  0.00    +0.000 C 
ATOM      9  O   UNL     1       0.207  12.064  18.754  0.00  0.00    +0.000 OA
BRANCH   8  10
ATOM     10  C   UNL     1      -2.028  11.359  19.014  0.00  0.00    +0.000 A 
ATOM     11  C   UNL     1      -2.605  10.768  17.859  0.00  0.00    +0.000 A 
ATOM     12  C   UNL     1      -1.884   9.820  16.931  0.00  0.00    +0.000 C 
ATOM     13  C   UNL     1      -3.927  11.095  17.493  0.00  0.00    +0.000 A 
ATOM     14  C   UNL     1      -4.694  11.972  18.258  0.00  0.00    +0.000 A 
ATOM     15  C   UNL     1      -6.059  12.409  17.822  0.00  0.00    +0.000 C 
ATOM     16  C   UNL     1      -4.159  12.466  19.445  0.00  0.00    +0.000 A 
ATOM     17  C   UNL     1      -2.833  12.196  19.834  0.00  0.00    +0.000 A 
ATOM     18  C   UNL     1      -2.379  12.872  21.099  0.00  0.00    +0.000 C 
ENDBRANCH   8  10
ENDBRANCH   6   8
BRANCH   7  19
ATOM     19  C   UNL     1       1.121   9.028  17.976  0.00  0.00    +0.000 C 
ATOM     20  C   UNL     1       2.352   9.805  17.525  0.00  0.00    +0.000 C 
ENDBRANCH   7  19
BRANCH   1  21
ATOM     21  N   UNL     1       1.945   6.965  19.979  0.00  0.00    +0.000 N 
BRANCH  21  22
ATOM     22  C   UNL     1       1.713   5.860  20.945  0.00  0.00    +0.000 C 
BRANCH  22  24
ATOM     23  C   UNL     1       1.293   3.322  20.873  0.00  0.00    +0.000 C 
ATOM     24  C   UNL     1       1.072   4.669  20.205  0.00  0.00    +0.000 C 
ENDBRANCH  22  24
ENDBRANCH  21  22
BRANCH  21  25
ATOM     25  C   UNL     1       3.247   7.001  19.305  0.00  0.00    +0.000 C 
BRANCH  25  26
ATOM     26  C   UNL     1       3.327   6.285  17.986  0.00  0.00    +0.000 C 
ATOM     27  C   UNL     1       4.534   6.576  17.114  0.00  0.00    +0.000 C 
ATOM     28  C   UNL     1       4.339   5.200  17.677  0.00  0.00    +0.000 C 
ENDBRANCH  25  26
ENDBRANCH  21  25
ENDBRANCH   1  21
TORSDOF 8
ENDMDL
MODEL 4
REMARK VINA RESULT:      -6.0      1.943      6.711
REMARK  Name = 
REMARK  14 active torsions:
REMARK  status: ('A' for Active; 'I' for Inactive)
REMARK    1  A    between atoms: C_1  and  C_2
REMARK    2  A    between atoms: C_2  and  C_3
REMARK    3  A    between atoms: C_3  and  N_4
REMARK    4  A    between atoms: N_4  and  C_5
REMARK    5  A    between atoms: N_4  and  C_9
REMARK    6  A    between atoms: C_5  and  C_6
REMARK    7  A    between atoms: C_11  and  C_12
REMARK    8  A    between atoms: C_14  and  C_15
REMARK    9  A    between atoms: C_15  and  C_17
REMARK   10  A    between atoms: C_18  and  C_19
REMARK   11  A    between atoms: C_21  and  C_22
REMARK   12  A    between atoms: C_24  and  C_25
REMARK   13  A    between atoms: C_26  and  C_27
REMARK   14  A    between atoms: C_27  and  C_28
REMARK                            x       y       z     vdW  Elec       q    Type
REMARK                         _______ _______ _______ _____ _____    ______ ____
ROOT
ATOM      1  C   UNL     1       5.950   5.135  18.285  0.00  0.00    +0.000 A 
ATOM      2  N   UNL     1       5.888   3.960  18.951  0.00  0.00    +0.000 NA
ATOM      3  C   UNL     1       4.699   3.466  19.302  0.00  0.00    +0.000 A 
ATOM      4  C   UNL     1       4.679   2.200  20.099  0.00  0.00    +0.000 C 
ATOM      5  N   UNL     1       3.540   4.072  19.060  0.00  0.00    +0.000 NA
ATOM      6  C   UNL     1       3.617   5.291  18.490  0.00  0.00    +0.000 A 
ATOM      7  C   UNL     1       4.805   5.902  18.055  0.00  0.00    +0.000 A 
ENDROOT
BRANCH   6   8
ATOM      8  C   UNL     1       2.284   5.973  18.392  0.00  0.00    +0.000 C 
ATOM      9  O   UNL     1       1.517   5.675  17.476  0.00  0.00    +0.000 OA
BRANCH   8  10
ATOM     10  C   UNL     1       1.867   7.049  19.359  0.00  0.00    +0.000 A 
ATOM     11  C   UNL     1       1.506   6.666  20.678  0.00  0.00    +0.000 A 
ATOM     12  C   UNL     1       1.708   5.284  21.254  0.00  0.00    +0.000 C 
ATOM     13  C   UNL     1       0.873   7.597  21.528  0.00  0.00    +0.000 A 
ATOM     14  C   UNL     1       0.616   8.901  21.109  0.00  0.00    +0.000 A 
ATOM     15  C   UNL     1      -0.150   9.865  21.963  0.00  0.00    +0.000 C 
ATOM     16  C   UNL     1       1.066   9.300  19.853  0.00  0.00    +0.000 A 
ATOM     17  C   UNL     1       1.671   8.398  18.957  0.00  0.00    +0.000 A 
ATOM     18  C   UNL     1       2.025   8.965  17.608  0.00  0.00    +0.000 C 
ENDBRANCH   8  10
ENDBRANCH   6   8
BRANCH   7  19
ATOM     19  C   UNL     1       4.825   7.245  17.376  0.00  0.00    +0.000 C 
ATOM     20  C   UNL     1       4.617   7.201  15.868  0.00  0.00    +0.000 C 
ENDBRANCH   7  19
BRANCH   1  21
ATOM     21  N   UNL     1       7.187   5.441  17.712  0.00  0.00    +0.000 N 
BRANCH  21  22
ATOM     22  C   UNL     1       7.931   6.475  18.477  0.00  0.00    +0.000 C 
BRANCH  22  24
ATOM     23  C   UNL     1       8.567   8.967  18.399  0.00  0.00    +0.000 C 
ATOM     24  C   UNL     1       7.931   7.793  17.676  0.00  0.00    +0.000 C 
ENDBRANCH  22  24
ENDBRANCH  21  22
BRANCH  21  25
ATOM     25  C   UNL     1       7.329   5.459  16.252  0.00  0.00    +0.000 C 
BRANCH  25  26
ATOM     26  C   UNL     1       6.986   4.180  15.540  0.00  0.00    +0.000 C 
ATOM     27  C   UNL     1       5.532   3.972  15.157  0.00  0.00    +0.000 C 
ATOM     28  C   UNL     1       6.570   4.112  14.084  0.00  0.00    +0.000 C 
ENDBRANCH  25  26
ENDBRANCH  21  25
ENDBRANCH   1  21
TORSDOF 8
ENDMDL
MODEL 5
REMARK VINA RESULT:      -5.9      5.608      9.140
REMARK  Name = 
REMARK  14 active torsions:
REMARK  status: ('A' for Active; 'I' for Inactive)
REMARK    1  A    between atoms: C_1  and  C_2
REMARK    2  A    between atoms: C_2  and  C_3
REMARK    3  A    between atoms: C_3  and  N_4
REMARK    4  A    between atoms: N_4  and  C_5
REMARK    5  A    between atoms: N_4  and  C_9
REMARK    6  A    between atoms: C_5  and  C_6
REMARK    7  A    between atoms: C_11  and  C_12
REMARK    8  A    between atoms: C_14  and  C_15
REMARK    9  A    between atoms: C_15  and  C_17
REMARK   10  A    between atoms: C_18  and  C_19
REMARK   11  A    between atoms: C_21  and  C_22
REMARK   12  A    between atoms: C_24  and  C_25
REMARK   13  A    between atoms: C_26  and  C_27
REMARK   14  A    between atoms: C_27  and  C_28
REMARK                            x       y       z     vdW  Elec       q    Type
REMARK                         _______ _______ _______ _____ _____    ______ ____
ROOT
ATOM      1  C   UNL     1      -4.192  12.255  20.001  0.00  0.00    +0.000 A 
ATOM      2  N   UNL     1      -4.699  12.506  21.229  0.00  0.00    +0.000 NA
ATOM      3  C   UNL     1      -3.871  12.786  22.237  0.00  0.00    +0.000 A 
ATOM      4  C   UNL     1      -4.469  12.988  23.593  0.00  0.00    +0.000 C 
ATOM      5  N   UNL     1      -2.546  12.813  22.127  0.00  0.00    +0.000 NA
ATOM      6  C   UNL     1      -2.045  12.458  20.926  0.00  0.00    +0.000 A 
ATOM      7  C   UNL     1      -2.814  12.168  19.787  0.00  0.00    +0.000 A 
ENDROOT
BRANCH   6   8
ATOM      8  C   UNL     1      -0.546  12.363  20.926  0.00  0.00    +0.000 C 
ATOM      9  O   UNL     1       0.126  13.393  20.869  0.00  0.00    +0.000 OA
BRANCH   8  10
ATOM     10  C   UNL     1       0.166  11.037  20.952  0.00  0.00    +0.000 A 
ATOM     11  C   UNL     1       0.948  10.672  19.824  0.00  0.00    +0.000 A 
ATOM     12  C   UNL     1       1.293  11.599  18.684  0.00  0.00    +0.000 C 
ATOM     13  C   UNL     1       1.417   9.347  19.699  0.00  0.00    +0.000 A 
ATOM     14  C   UNL     1       1.152   8.390  20.676  0.00  0.00    +0.000 A 
ATOM     15  C   UNL     1       1.554   6.956  20.503  0.00  0.00    +0.000 C 
ATOM     16  C   UNL     1       0.476   8.781  21.828  0.00  0.00    +0.000 A 
ATOM     17  C   UNL     1      -0.043  10.081  21.983  0.00  0.00    +0.000 A 
ATOM     18  C   UNL     1      -0.822  10.322  23.248  0.00  0.00    +0.000 C 
ENDBRANCH   8  10
ENDBRANCH   6   8
BRANCH   7  19
ATOM     19  C   UNL     1      -2.198  11.828  18.457  0.00  0.00    +0.000 C 
ATOM     20  C   UNL     1      -2.174  10.341  18.127  0.00  0.00    +0.000 C 
ENDBRANCH   7  19
BRANCH   1  21
ATOM     21  N   UNL     1      -5.117  12.250  18.953  0.00  0.00    +0.000 N 
BRANCH  21  22
ATOM     22  C   UNL     1      -6.051  13.404  19.011  0.00  0.00    +0.000 C 
BRANCH  22  24
ATOM     23  C   UNL     1      -7.914  13.990  17.336  0.00  0.00    +0.000 C 
ATOM     24  C   UNL     1      -6.423  13.825  17.575  0.00  0.00    +0.000 C 
ENDBRANCH  22  24
ENDBRANCH  21  22
BRANCH  21  25
ATOM     25  C   UNL     1      -5.658  10.977  18.465  0.00  0.00    +0.000 C 
BRANCH  25  26
ATOM     26  C   UNL     1      -7.029  10.610  18.960  0.00  0.00    +0.000 C 
ATOM     27  C   UNL     1      -7.177   9.267  19.651  0.00  0.00    +0.000 C 
ATOM     28  C   UNL     1      -7.400  10.530  20.428  0.00  0.00    +0.000 C 
ENDBRANCH  25  26
ENDBRANCH  21  25
ENDBRANCH   1  21
TORSDOF 8
ENDMDL
MODEL 6
REMARK VINA RESULT:      -5.8      7.413     11.880
REMARK  Name = 
REMARK  14 active torsions:
REMARK  status: ('A' for Active; 'I' for Inactive)
REMARK    1  A    between atoms: C_1  and  C_2
REMARK    2  A    between atoms: C_2  and  C_3
REMARK    3  A    between atoms: C_3  and  N_4
REMARK    4  A    between atoms: N_4  and  C_5
REMARK    5  A    between atoms: N_4  and  C_9
REMARK    6  A    between atoms: C_5  and  C_6
REMARK    7  A    between atoms: C_11  and  C_12
REMARK    8  A    between atoms: C_14  and  C_15
REMARK    9  A    between atoms: C_15  and  C_17
REMARK   10  A    between atoms: C_18  and  C_19
REMARK   11  A    between atoms: C_21  and  C_22
REMARK   12  A    between atoms: C_24  and  C_25
REMARK   13  A    between atoms: C_26  and  C_27
REMARK   14  A    between atoms: C_27  and  C_28
REMARK                            x       y       z     vdW  Elec       q    Type
REMARK                         _______ _______ _______ _____ _____    ______ ____
ROOT
ATOM      1  C   UNL     1      -2.453  11.615  18.229  0.00  0.00    +0.000 A 
ATOM      2  N   UNL     1      -2.358  11.182  16.952  0.00  0.00    +0.000 NA
ATOM      3  C   UNL     1      -3.468  11.021  16.228  0.00  0.00    +0.000 A 
ATOM      4  C   UNL     1      -3.322  10.474  14.843  0.00  0.00    +0.000 C 
ATOM      5  N   UNL     1      -4.695  11.238  16.690  0.00  0.00    +0.000 NA
ATOM      6  C   UNL     1      -4.788  11.567  17.995  0.00  0.00    +0.000 A 
ATOM      7  C   UNL     1      -3.693  11.789  18.848  0.00  0.00    +0.000 A 
ENDROOT
BRANCH   6   8
ATOM      8  C   UNL     1      -6.207  11.641  18.477  0.00  0.00    +0.000 C 
ATOM      9  O   UNL     1      -6.922  10.641  18.412  0.00  0.00    +0.000 OA
BRANCH   8  10
ATOM     10  C   UNL     1      -6.802  12.920  19.004  0.00  0.00    +0.000 A 
ATOM     11  C   UNL     1      -6.878  14.037  18.129  0.00  0.00    +0.000 A 
ATOM     12  C   UNL     1      -6.602  13.984  16.646  0.00  0.00    +0.000 C 
ATOM     13  C   UNL     1      -7.187  15.311  18.649  0.00  0.00    +0.000 A 
ATOM     14  C   UNL     1      -7.447  15.496  20.006  0.00  0.00    +0.000 A 
ATOM     15  C   UNL     1      -7.671  16.860  20.585  0.00  0.00    +0.000 C 
ATOM     16  C   UNL     1      -7.474  14.381  20.839  0.00  0.00    +0.000 A 
ATOM     17  C   UNL     1      -7.138  13.095  20.374  0.00  0.00    +0.000 A 
ATOM     18  C   UNL     1      -7.133  12.010  21.416  0.00  0.00    +0.000 C 
ENDBRANCH   8  10
ENDBRANCH   6   8
BRANCH   7  19
ATOM     19  C   UNL     1      -3.856  12.205  20.284  0.00  0.00    +0.000 C 
ATOM     20  C   UNL     1      -3.604  13.684  20.552  0.00  0.00    +0.000 C 
ENDBRANCH   7  19
BRANCH   1  21
ATOM     21  N   UNL     1      -1.254  12.024  18.820  0.00  0.00    +0.000 N 
BRANCH  21  22
ATOM     22  C   UNL     1      -0.695  13.248  18.190  0.00  0.00    +0.000 C 
BRANCH  22  24
ATOM     23  C   UNL     1      -0.008  14.593  20.273  0.00  0.00    +0.000 C 
ATOM     24  C   UNL     1       0.451  13.789  19.068  0.00  0.00    +0.000 C 
ENDBRANCH  22  24
ENDBRANCH  21  22
BRANCH  21  25
ATOM     25  C   UNL     1      -0.296  11.019  19.294  0.00  0.00    +0.000 C 
BRANCH  25  26
ATOM     26  C   UNL     1      -0.580  10.424  20.645  0.00  0.00    +0.000 C 
ATOM     27  C   UNL     1       0.583  10.325  21.614  0.00  0.00    +0.000 C 
ATOM     28  C   UNL     1      -0.575  11.222  21.934  0.00  0.00    +0.000 C 
ENDBRANCH  25  26
ENDBRANCH  21  25
ENDBRANCH   1  21
TORSDOF 8
ENDMDL
MODEL 7
REMARK VINA RESULT:      -5.8      4.995      8.674
REMARK  Name = 
REMARK  14 active torsions:
REMARK  status: ('A' for Active; 'I' for Inactive)
REMARK    1  A    between atoms: C_1  and  C_2
REMARK    2  A    between atoms: C_2  and  C_3
REMARK    3  A    between atoms: C_3  and  N_4
REMARK    4  A    between atoms: N_4  and  C_5
REMARK    5  A    between atoms: N_4  and  C_9
REMARK    6  A    between atoms: C_5  and  C_6
REMARK    7  A    between atoms: C_11  and  C_12
REMARK    8  A    between atoms: C_14  and  C_15
REMARK    9  A    between atoms: C_15  and  C_17
REMARK   10  A    between atoms: C_18  and  C_19
REMARK   11  A    between atoms: C_21  and  C_22
REMARK   12  A    between atoms: C_24  and  C_25
REMARK   13  A    between atoms: C_26  and  C_27
REMARK   14  A    between atoms: C_27  and  C_28
REMARK                            x       y       z     vdW  Elec       q    Type
REMARK                         _______ _______ _______ _____ _____    ______ ____
ROOT
ATOM      1  C   UNL     1      -3.266  13.155  21.407  0.00  0.00    +0.000 A 
ATOM      2  N   UNL     1      -3.796  12.843  20.203  0.00  0.00    +0.000 NA
ATOM      3  C   UNL     1      -3.104  12.073  19.360  0.00  0.00    +0.000 A 
ATOM      4  C   UNL     1      -3.697  11.810  18.013  0.00  0.00    +0.000 C 
ATOM      5  N   UNL     1      -1.889  11.598  19.614  0.00  0.00    +0.000 NA
ATOM      6  C   UNL     1      -1.324  12.001  20.771  0.00  0.00    +0.000 A 
ATOM      7  C   UNL     1      -1.961  12.787  21.745  0.00  0.00    +0.000 A 
ENDROOT
BRANCH   6   8
ATOM      8  C   UNL     1       0.101  11.550  20.911  0.00  0.00    +0.000 C 
ATOM      9  O   UNL     1       0.957  12.355  21.278  0.00  0.00    +0.000 OA
BRANCH   8  10
ATOM     10  C   UNL     1       0.528  10.146  20.574  0.00  0.00    +0.000 A 
ATOM     11  C   UNL     1       0.452   9.158  21.591  0.00  0.00    +0.000 A 
ATOM     12  C   UNL     1      -0.222   9.353  22.927  0.00  0.00    +0.000 C 
ATOM     13  C   UNL     1       1.075   7.907  21.397  0.00  0.00    +0.000 A 
ATOM     14  C   UNL     1       1.745   7.608  20.212  0.00  0.00    +0.000 A 
ATOM     15  C   UNL     1       2.500   6.325  20.037  0.00  0.00    +0.000 C 
ATOM     16  C   UNL     1       1.726   8.542  19.179  0.00  0.00    +0.000 A 
ATOM     17  C   UNL     1       1.149   9.817  19.338  0.00  0.00    +0.000 A 
ATOM     18  C   UNL     1       1.284  10.741  18.158  0.00  0.00    +0.000 C 
ENDBRANCH   8  10
ENDBRANCH   6   8
BRANCH   7  19
ATOM     19  C   UNL     1      -1.299  13.163  23.043  0.00  0.00    +0.000 C 
ATOM     20  C   UNL     1      -0.697  14.563  23.069  0.00  0.00    +0.000 C 
ENDBRANCH   7  19
BRANCH   1  21
ATOM     21  N   UNL     1      -4.151  13.718  22.330  0.00  0.00    +0.000 N 
BRANCH  21  22
ATOM     22  C   UNL     1      -5.382  12.906  22.510  0.00  0.00    +0.000 C 
BRANCH  22  24
ATOM     23  C   UNL     1      -4.464  12.355  24.850  0.00  0.00    +0.000 C 
ATOM     24  C   UNL     1      -5.671  12.753  24.017  0.00  0.00    +0.000 C 
ENDBRANCH  22  24
ENDBRANCH  21  22
BRANCH  21  25
ATOM     25  C   UNL     1      -4.296  15.176  22.405  0.00  0.00    +0.000 C 
BRANCH  25  26
ATOM     26  C   UNL     1      -3.952  15.806  23.726  0.00  0.00    +0.000 C 
ATOM     27  C   UNL     1      -3.655  17.294  23.724  0.00  0.00    +0.000 C 
ATOM     28  C   UNL     1      -4.858  16.778  24.456  0.00  0.00    +0.000 C 
ENDBRANCH  25  26
ENDBRANCH  21  25
ENDBRANCH   1  21
TORSDOF 8
ENDMDL
MODEL 8
REMARK VINA RESULT:      -5.7      0.398      1.836
REMARK  Name = 
REMARK  14 active torsions:
REMARK  status: ('A' for Active; 'I' for Inactive)
REMARK    1  A    between atoms: C_1  and  C_2
REMARK    2  A    between atoms: C_2  and  C_3
REMARK    3  A    between atoms: C_3  and  N_4
REMARK    4  A    between atoms: N_4  and  C_5
REMARK    5  A    between atoms: N_4  and  C_9
REMARK    6  A    between atoms: C_5  and  C_6
REMARK    7  A    between atoms: C_11  and  C_12
REMARK    8  A    between atoms: C_14  and  C_15
REMARK    9  A    between atoms: C_15  and  C_17
REMARK   10  A    between atoms: C_18  and  C_19
REMARK   11  A    between atoms: C_21  and  C_22
REMARK   12  A    between atoms: C_24  and  C_25
REMARK   13  A    between atoms: C_26  and  C_27
REMARK   14  A    between atoms: C_27  and  C_28
REMARK                            x       y       z     vdW  Elec       q    Type
REMARK                         _______ _______ _______ _____ _____    ______ ____
ROOT
ATOM      1  C   UNL     1       2.086   6.573  19.873  0.00  0.00    +0.000 A 
ATOM      2  N   UNL     1       1.563   5.555  20.592  0.00  0.00    +0.000 NA
ATOM      3  C   UNL     1       2.298   4.464  20.818  0.00  0.00    +0.000 A 
ATOM      4  C   UNL     1       1.656   3.333  21.558  0.00  0.00    +0.000 C 
ATOM      5  N   UNL     1       3.532   4.288  20.354  0.00  0.00    +0.000 NA
ATOM      6  C   UNL     1       4.006   5.262  19.550  0.00  0.00    +0.000 A 
ATOM      7  C   UNL     1       3.338   6.463  19.261  0.00  0.00    +0.000 A 
ENDROOT
BRANCH   6   8
ATOM      8  C   UNL     1       5.336   4.919  18.944  0.00  0.00    +0.000 C 
ATOM      9  O   UNL     1       6.300   4.707  19.680  0.00  0.00    +0.000 OA
BRANCH   8  10
ATOM     10  C   UNL     1       5.542   4.868  17.453  0.00  0.00    +0.000 A 
ATOM     11  C   UNL     1       4.785   3.931  16.702  0.00  0.00    +0.000 A 
ATOM     12  C   UNL     1       3.634   3.122  17.250  0.00  0.00    +0.000 C 
ATOM     13  C   UNL     1       5.128   3.675  15.357  0.00  0.00    +0.000 A 
ATOM     14  C   UNL     1       6.181   4.345  14.738  0.00  0.00    +0.000 A 
ATOM     15  C   UNL     1       6.621   4.005  13.346  0.00  0.00    +0.000 C 
ATOM     16  C   UNL     1       6.852   5.337  15.449  0.00  0.00    +0.000 A 
ATOM     17  C   UNL     1       6.570   5.603  16.803  0.00  0.00    +0.000 A 
ATOM     18  C   UNL     1       7.439   6.647  17.452  0.00  0.00    +0.000 C 
ENDBRANCH   8  10
ENDBRANCH   6   8
BRANCH   7  19
ATOM     19  C   UNL     1       3.939   7.538  18.397  0.00  0.00    +0.000 C 
ATOM     20  C   UNL     1       3.578   7.446  16.920  0.00  0.00    +0.000 C 
ENDBRANCH   7  19
BRANCH   1  21
ATOM     21  N   UNL     1       1.375   7.775  19.919  0.00  0.00    +0.000 N 
BRANCH  21  22
ATOM     22  C   UNL     1       1.361   8.480  18.612  0.00  0.00    +0.000 C 
BRANCH  22  24
ATOM     23  C   UNL     1      -0.315  10.420  18.382  0.00  0.00    +0.000 C 
ATOM     24  C   UNL     1       1.061   9.974  18.848  0.00  0.00    +0.000 C 
ENDBRANCH  22  24
ENDBRANCH  21  22
BRANCH  21  25
ATOM     25  C   UNL     1       1.429   8.606  21.127  0.00  0.00    +0.000 C 
BRANCH  25  26
ATOM     26  C   UNL     1       0.133   8.774  21.870  0.00  0.00    +0.000 C 
ATOM     27  C   UNL     1       0.207   9.390  23.255  0.00  0.00    +0.000 C 
ATOM     28  C   UNL     1      -0.504  10.120  22.155  0.00  0.00    +0.000 C 
ENDBRANCH  25  26
ENDBRANCH  21  25
ENDBRANCH   1  21
TORSDOF 8
ENDMDL
MODEL 9
REMARK VINA RESULT:      -5.6      0.432      1.714
REMARK  Name = 
REMARK  14 active torsions:
REMARK  status: ('A' for Active; 'I' for Inactive)
REMARK    1  A    between atoms: C_1  and  C_2
REMARK    2  A    between atoms: C_2  and  C_3
REMARK    3  A    between atoms: C_3  and  N_4
REMARK    4  A    between atoms: N_4  and  C_5
REMARK    5  A    between atoms: N_4  and  C_9
REMARK    6  A    between atoms: C_5  and  C_6
REMARK    7  A    between atoms: C_11  and  C_12
REMARK    8  A    between atoms: C_14  and  C_15
REMARK    9  A    between atoms: C_15  and  C_17
REMARK   10  A    between atoms: C_18  and  C_19
REMARK   11  A    between atoms: C_21  and  C_22
REMARK   12  A    between atoms: C_24  and  C_25
REMARK   13  A    between atoms: C_26  and  C_27
REMARK   14  A    between atoms: C_27  and  C_28
REMARK                            x       y       z     vdW  Elec       q    Type
REMARK                         _______ _______ _______ _____ _____    ______ ____
ROOT
ATOM      1  C   UNL     1       2.293   6.664  19.795  0.00  0.00    +0.000 A 
ATOM      2  N   UNL     1       1.647   5.693  20.478  0.00  0.00    +0.000 NA
ATOM      3  C   UNL     1       2.272   4.541  20.733  0.00  0.00    +0.000 A 
ATOM      4  C   UNL     1       1.497   3.468  21.430  0.00  0.00    +0.000 C 
ATOM      5  N   UNL     1       3.509   4.261  20.333  0.00  0.00    +0.000 NA
ATOM      6  C   UNL     1       4.107   5.193  19.562  0.00  0.00    +0.000 A 
ATOM      7  C   UNL     1       3.561   6.449  19.249  0.00  0.00    +0.000 A 
ENDROOT
BRANCH   6   8
ATOM      8  C   UNL     1       5.433   4.739  19.024  0.00  0.00    +0.000 C 
ATOM      9  O   UNL     1       6.402   4.671  19.780  0.00  0.00    +0.000 OA
BRANCH   8  10
ATOM     10  C   UNL     1       5.628   4.402  17.570  0.00  0.00    +0.000 A 
ATOM     11  C   UNL     1       6.570   5.159  16.824  0.00  0.00    +0.000 A 
ATOM     12  C   UNL     1       7.548   6.140  17.424  0.00  0.00    +0.000 C 
ATOM     13  C   UNL     1       6.598   5.050  15.418  0.00  0.00    +0.000 A 
ATOM     14  C   UNL     1       5.735   4.191  14.741  0.00  0.00    +0.000 A 
ATOM     15  C   UNL     1       5.682   4.146  13.244  0.00  0.00    +0.000 C 
ATOM     16  C   UNL     1       4.886   3.374  15.485  0.00  0.00    +0.000 A 
ATOM     17  C   UNL     1       4.797   3.473  16.887  0.00  0.00    +0.000 A 
ATOM     18  C   UNL     1       3.772   2.581  17.535  0.00  0.00    +0.000 C 
ENDBRANCH   8  10
ENDBRANCH   6   8
BRANCH   7  19
ATOM     19  C   UNL     1       4.297   7.470  18.426  0.00  0.00    +0.000 C 
ATOM     20  C   UNL     1       3.920   7.494  16.950  0.00  0.00    +0.000 C 
ENDBRANCH   7  19
BRANCH   1  21
ATOM     21  N   UNL     1       1.687   7.923  19.814  0.00  0.00    +0.000 N 
BRANCH  21  22
ATOM     22  C   UNL     1       1.417   8.406  21.193  0.00  0.00    +0.000 C 
BRANCH  22  24
ATOM     23  C   UNL     1      -0.488   9.330  22.655  0.00  0.00    +0.000 C 
ATOM     24  C   UNL     1      -0.097   8.646  21.357  0.00  0.00    +0.000 C 
ENDBRANCH  22  24
ENDBRANCH  21  22
BRANCH  21  25
ATOM     25  C   UNL     1       0.709   8.275  18.779  0.00  0.00    +0.000 C 
BRANCH  25  26
ATOM     26  C   UNL     1       1.032   9.488  17.952  0.00  0.00    +0.000 C 
ATOM     27  C   UNL     1       0.483  10.818  18.434  0.00  0.00    +0.000 C 
ATOM     28  C   UNL     1       1.965  10.593  18.408  0.00  0.00    +0.000 C 
ENDBRANCH  25  26
ENDBRANCH  21  25
ENDBRANCH   1  21
TORSDOF 8
ENDMDL
