MODEL 1
REMARK VINA RESULT:      -8.8      0.000      0.000
REMARK  Name = 
REMARK  5 active torsions:
REMARK  status: ('A' for Active; 'I' for Inactive)
REMARK    1  A    between atoms: C_1  and  O_2
REMARK    2  A    between atoms: O_2  and  C_3
REMARK    3  A    between atoms: C_8  and  N_9
REMARK    4  A    between atoms: C_14  and  C_15
REMARK    5  A    between atoms: C_19  and  C_20
REMARK                            x       y       z     vdW  Elec       q    Type
REMARK                         _______ _______ _______ _____ _____    ______ ____
ROOT
ATOM      1  N   UNL     1       4.765   3.747  19.597  0.00  0.00    +0.000 N 
ATOM      2  C   UNL     1       5.437   4.379  18.552  0.00  0.00    +0.000 A 
ATOM      3  C   UNL     1       4.759   4.689  17.367  0.00  0.00    +0.000 A 
ATOM      4  C   UNL     1       5.580   4.871  16.263  0.00  0.00    +0.000 A 
ATOM      5  N   UNL     1       5.364   5.170  14.959  0.00  0.00    +0.000 N 
ATOM      6  C   UNL     1       6.333   4.487  14.276  0.00  0.00    +0.000 A 
ATOM      7  N   UNL     1       7.437   4.558  15.008  0.00  0.00    +0.000 NA
ATOM      8  C   UNL     1       6.961   4.743  16.298  0.00  0.00    +0.000 A 
ATOM      9  C   UNL     1       7.553   4.757  17.555  0.00  0.00    +0.000 A 
ATOM     10  N   UNL     1       6.782   4.525  18.666  0.00  0.00    +0.000 NA
ATOM     11  H   UNL     1       5.369   3.489  20.362  0.00  0.00    +0.000 HD
ATOM     12  H   UNL     1       4.657   5.776  14.560  0.00  0.00    +0.000 HD
ENDROOT
BRANCH   1  18
ATOM     13  C   UNL     1       2.583   4.709  20.143  0.00  0.00    +0.000 A 
ATOM     14  C   UNL     1       1.225   4.488  20.403  0.00  0.00    +0.000 A 
ATOM     15  C   UNL     1       0.713   3.197  20.372  0.00  0.00    +0.000 A 
ATOM     16  C   UNL     1       1.574   2.160  20.081  0.00  0.00    +0.000 A 
ATOM     17  N   UNL     1       2.882   2.333  19.819  0.00  0.00    +0.000 NA
ATOM     18  C   UNL     1       3.387   3.594  19.829  0.00  0.00    +0.000 A 
BRANCH  13  20
ATOM     19  C   UNL     1       2.465   6.994  19.510  0.00  0.00    +0.000 C 
ATOM     20  O   UNL     1       3.172   5.949  20.183  0.00  0.00    +0.000 OA
ENDBRANCH  13  20
ENDBRANCH   1  18
BRANCH   6  21
ATOM     21  C   UNL     1       6.045   3.747  13.037  0.00  0.00    +0.000 A 
ATOM     22  C   UNL     1       6.993   2.830  12.533  0.00  0.00    +0.000 A 
ATOM     23  C   UNL     1       6.740   2.079  11.386  0.00  0.00    +0.000 A 
ATOM     24  C   UNL     1       5.532   2.245  10.712  0.00  0.00    +0.000 A 
ATOM     25  C   UNL     1       4.589   3.175  11.163  0.00  0.00    +0.000 A 
ATOM     26  C   UNL     1       4.865   3.949  12.301  0.00  0.00    +0.000 A 
BRANCH  25  27
ATOM     27  C   UNL     1       3.272   3.366  10.429  0.00  0.00    +0.000 C 
ATOM     28  F   UNL     1       3.277   2.830   9.183  0.00  0.00    +0.000 F 
ATOM     29  F   UNL     1       2.246   2.772  11.092  0.00  0.00    +0.000 F 
ATOM     30  F   UNL     1       2.935   4.673  10.282  0.00  0.00    +0.000 F 
ENDBRANCH  25  27
ENDBRANCH   6  21
TORSDOF 4
ENDMDL
MODEL 2
REMARK VINA RESULT:      -8.8      1.183      1.848
REMARK  Name = 
REMARK  5 active torsions:
REMARK  status: ('A' for Active; 'I' for Inactive)
REMARK    1  A    between atoms: C_1  and  O_2
REMARK    2  A    between atoms: O_2  and  C_3
REMARK    3  A    between atoms: C_8  and  N_9
REMARK    4  A    between atoms: C_14  and  C_15
REMARK    5  A    between atoms: C_19  and  C_20
REMARK                            x       y       z     vdW  Elec       q    Type
REMARK                         _______ _______ _______ _____ _____    ______ ____
ROOT
ATOM      1  N   UNL     1       4.800   4.038  19.742  0.00  0.00    +0.000 N 
ATOM      2  C   UNL     1       5.498   4.636  18.694  0.00  0.00    +0.000 A 
ATOM      3  C   UNL     1       4.841   4.936  17.494  0.00  0.00    +0.000 A 
ATOM      4  C   UNL     1       5.680   5.080  16.398  0.00  0.00    +0.000 A 
ATOM      5  N   UNL     1       5.486   5.357  15.086  0.00  0.00    +0.000 N 
ATOM      6  C   UNL     1       6.450   4.642  14.428  0.00  0.00    +0.000 A 
ATOM      7  N   UNL     1       7.545   4.705  15.173  0.00  0.00    +0.000 NA
ATOM      8  C   UNL     1       7.058   4.925  16.453  0.00  0.00    +0.000 A 
ATOM      9  C   UNL     1       7.633   4.951  17.718  0.00  0.00    +0.000 A 
ATOM     10  N   UNL     1       6.845   4.757  18.823  0.00  0.00    +0.000 NA
ATOM     11  H   UNL     1       5.389   3.783  20.519  0.00  0.00    +0.000 HD
ATOM     12  H   UNL     1       4.797   5.970  14.666  0.00  0.00    +0.000 HD
ENDROOT
BRANCH   1  18
ATOM     13  C   UNL     1       2.742   2.719  19.644  0.00  0.00    +0.000 A 
ATOM     14  C   UNL     1       1.358   2.671  19.844  0.00  0.00    +0.000 A 
ATOM     15  C   UNL     1       0.685   3.792  20.316  0.00  0.00    +0.000 A 
ATOM     16  C   UNL     1       1.418   4.932  20.574  0.00  0.00    +0.000 A 
ATOM     17  N   UNL     1       2.749   5.013  20.400  0.00  0.00    +0.000 NA
ATOM     18  C   UNL     1       3.417   3.917  19.959  0.00  0.00    +0.000 A 
BRANCH  13  20
ATOM     19  C   UNL     1       3.469   1.512  17.733  0.00  0.00    +0.000 C 
ATOM     20  O   UNL     1       3.475   1.665  19.154  0.00  0.00    +0.000 OA
ENDBRANCH  13  20
ENDBRANCH   1  18
BRANCH   6  21
ATOM     21  C   UNL     1       6.162   3.883  13.201  0.00  0.00    +0.000 A 
ATOM     22  C   UNL     1       7.173   3.089  12.616  0.00  0.00    +0.000 A 
ATOM     23  C   UNL     1       6.928   2.323  11.477  0.00  0.00    +0.000 A 
ATOM     24  C   UNL     1       5.664   2.351  10.893  0.00  0.00    +0.000 A 
ATOM     25  C   UNL     1       4.654   3.160  11.424  0.00  0.00    +0.000 A 
ATOM     26  C   UNL     1       4.917   3.951  12.552  0.00  0.00    +0.000 A 
BRANCH  25  27
ATOM     27  C   UNL     1       3.274   3.200  10.788  0.00  0.00    +0.000 C 
ATOM     28  F   UNL     1       2.282   2.868  11.652  0.00  0.00    +0.000 F 
ATOM     29  F   UNL     1       2.976   4.444  10.330  0.00  0.00    +0.000 F 
ATOM     30  F   UNL     1       3.156   2.358   9.729  0.00  0.00    +0.000 F 
ENDBRANCH  25  27
ENDBRANCH   6  21
TORSDOF 4
ENDMDL
MODEL 3
REMARK VINA RESULT:      -8.0      5.893      8.011
REMARK  Name = 
REMARK  5 active torsions:
REMARK  status: ('A' for Active; 'I' for Inactive)
REMARK    1  A    between atoms: C_1  and  O_2
REMARK    2  A    between atoms: O_2  and  C_3
REMARK    3  A    between atoms: C_8  and  N_9
REMARK    4  A    between atoms: C_14  and  C_15
REMARK    5  A    between atoms: C_19  and  C_20
REMARK                            x       y       z     vdW  Elec       q    Type
REMARK                         _______ _______ _______ _____ _____    ______ ____
ROOT
ATOM      1  N   UNL     1      -2.017  10.299  18.790  0.00  0.00    +0.000 N 
ATOM      2  C   UNL     1      -0.681  10.022  19.076  0.00  0.00    +0.000 A 
ATOM      3  C   UNL     1       0.186   9.617  18.054  0.00  0.00    +0.000 A 
ATOM      4  C   UNL     1       1.314   8.936  18.490  0.00  0.00    +0.000 A 
ATOM      5  N   UNL     1       2.383   8.377  17.872  0.00  0.00    +0.000 N 
ATOM      6  C   UNL     1       2.692   7.279  18.627  0.00  0.00    +0.000 A 
ATOM      7  N   UNL     1       2.509   7.625  19.894  0.00  0.00    +0.000 NA
ATOM      8  C   UNL     1       1.577   8.649  19.822  0.00  0.00    +0.000 A 
ATOM      9  C   UNL     1       0.843   9.360  20.764  0.00  0.00    +0.000 A 
ATOM     10  N   UNL     1      -0.308   9.999  20.382  0.00  0.00    +0.000 NA
ATOM     11  H   UNL     1      -2.569  10.491  19.612  0.00  0.00    +0.000 HD
ATOM     12  H   UNL     1       2.870   8.697  17.043  0.00  0.00    +0.000 HD
ENDROOT
BRANCH   1  18
ATOM     13  C   UNL     1      -3.780  11.380  17.484  0.00  0.00    +0.000 A 
ATOM     14  C   UNL     1      -4.393  11.549  16.237  0.00  0.00    +0.000 A 
ATOM     15  C   UNL     1      -3.902  10.877  15.125  0.00  0.00    +0.000 A 
ATOM     16  C   UNL     1      -2.809  10.052  15.291  0.00  0.00    +0.000 A 
ATOM     17  N   UNL     1      -2.189   9.870  16.471  0.00  0.00    +0.000 NA
ATOM     18  C   UNL     1      -2.651  10.538  17.559  0.00  0.00    +0.000 A 
BRANCH  13  20
ATOM     19  C   UNL     1      -5.516  11.585  19.090  0.00  0.00    +0.000 C 
ATOM     20  O   UNL     1      -4.222  11.986  18.635  0.00  0.00    +0.000 OA
ENDBRANCH  13  20
ENDBRANCH   1  18
BRANCH   6  21
ATOM     21  C   UNL     1       3.025   5.980  18.021  0.00  0.00    +0.000 A 
ATOM     22  C   UNL     1       2.101   4.915  18.098  0.00  0.00    +0.000 A 
ATOM     23  C   UNL     1       2.361   3.682  17.501  0.00  0.00    +0.000 A 
ATOM     24  C   UNL     1       3.564   3.488  16.827  0.00  0.00    +0.000 A 
ATOM     25  C   UNL     1       4.518   4.510  16.769  0.00  0.00    +0.000 A 
ATOM     26  C   UNL     1       4.261   5.738  17.398  0.00  0.00    +0.000 A 
BRANCH  25  27
ATOM     27  C   UNL     1       5.836   4.304  16.040  0.00  0.00    +0.000 C 
ATOM     28  F   UNL     1       6.009   5.164  15.005  0.00  0.00    +0.000 F 
ATOM     29  F   UNL     1       6.895   4.493  16.870  0.00  0.00    +0.000 F 
ATOM     30  F   UNL     1       5.964   3.055  15.524  0.00  0.00    +0.000 F 
ENDBRANCH  25  27
ENDBRANCH   6  21
TORSDOF 4
ENDMDL
MODEL 4
REMARK VINA RESULT:      -7.9      1.999      2.758
REMARK  Name = 
REMARK  5 active torsions:
REMARK  status: ('A' for Active; 'I' for Inactive)
REMARK    1  A    between atoms: C_1  and  O_2
REMARK    2  A    between atoms: O_2  and  C_3
REMARK    3  A    between atoms: C_8  and  N_9
REMARK    4  A    between atoms: C_14  and  C_15
REMARK    5  A    between atoms: C_19  and  C_20
REMARK                            x       y       z     vdW  Elec       q    Type
REMARK                         _______ _______ _______ _____ _____    ______ ____
ROOT
ATOM      1  N   UNL     1       4.900   4.135  19.800  0.00  0.00    +0.000 N 
ATOM      2  C   UNL     1       5.549   4.682  18.694  0.00  0.00    +0.000 A 
ATOM      3  C   UNL     1       4.817   5.025  17.550  0.00  0.00    +0.000 A 
ATOM      4  C   UNL     1       5.569   5.108  16.387  0.00  0.00    +0.000 A 
ATOM      5  N   UNL     1       5.286   5.397  15.094  0.00  0.00    +0.000 N 
ATOM      6  C   UNL     1       6.139   4.615  14.363  0.00  0.00    +0.000 A 
ATOM      7  N   UNL     1       7.295   4.602  15.014  0.00  0.00    +0.000 NA
ATOM      8  C   UNL     1       6.932   4.857  16.329  0.00  0.00    +0.000 A 
ATOM      9  C   UNL     1       7.612   4.845  17.541  0.00  0.00    +0.000 A 
ATOM     10  N   UNL     1       6.906   4.708  18.709  0.00  0.00    +0.000 NA
ATOM     11  H   UNL     1       5.534   3.841  20.528  0.00  0.00    +0.000 HD
ATOM     12  H   UNL     1       4.608   6.056  14.728  0.00  0.00    +0.000 HD
ENDROOT
BRANCH   1  18
ATOM     13  C   UNL     1       2.776   2.934  19.969  0.00  0.00    +0.000 A 
ATOM     14  C   UNL     1       1.412   2.982  20.279  0.00  0.00    +0.000 A 
ATOM     15  C   UNL     1       0.839   4.173  20.708  0.00  0.00    +0.000 A 
ATOM     16  C   UNL     1       1.648   5.285  20.815  0.00  0.00    +0.000 A 
ATOM     17  N   UNL     1       2.963   5.276  20.533  0.00  0.00    +0.000 NA
ATOM     18  C   UNL     1       3.535   4.111  20.132  0.00  0.00    +0.000 A 
BRANCH  13  20
ATOM     19  C   UNL     1       3.317   1.565  18.106  0.00  0.00    +0.000 C 
ATOM     20  O   UNL     1       3.412   1.804  19.512  0.00  0.00    +0.000 OA
ENDBRANCH  13  20
ENDBRANCH   1  18
BRANCH   6  21
ATOM     21  C   UNL     1       5.698   3.877  13.170  0.00  0.00    +0.000 A 
ATOM     22  C   UNL     1       4.476   4.214  12.550  0.00  0.00    +0.000 A 
ATOM     23  C   UNL     1       4.043   3.566  11.393  0.00  0.00    +0.000 A 
ATOM     24  C   UNL     1       4.825   2.553  10.844  0.00  0.00    +0.000 A 
ATOM     25  C   UNL     1       6.021   2.166  11.458  0.00  0.00    +0.000 A 
ATOM     26  C   UNL     1       6.434   2.803  12.638  0.00  0.00    +0.000 A 
BRANCH  25  27
ATOM     27  C   UNL     1       6.876   1.057  10.868  0.00  0.00    +0.000 C 
ATOM     28  F   UNL     1       6.193  -0.102  10.692  0.00  0.00    +0.000 F 
ATOM     29  F   UNL     1       7.358   1.401   9.646  0.00  0.00    +0.000 F 
ATOM     30  F   UNL     1       7.951   0.753  11.639  0.00  0.00    +0.000 F 
ENDBRANCH  25  27
ENDBRANCH   6  21
TORSDOF 4
ENDMDL
MODEL 5
REMARK VINA RESULT:      -7.9      6.297      8.656
REMARK  Name = 
REMARK  5 active torsions:
REMARK  status: ('A' for Active; 'I' for Inactive)
REMARK    1  A    between atoms: C_1  and  O_2
REMARK    2  A    between atoms: O_2  and  C_3
REMARK    3  A    between atoms: C_8  and  N_9
REMARK    4  A    between atoms: C_14  and  C_15
REMARK    5  A    between atoms: C_19  and  C_20
REMARK                            x       y       z     vdW  Elec       q    Type
REMARK                         _______ _______ _______ _____ _____    ______ ____
ROOT
ATOM      1  N   UNL     1      -2.035  10.685  19.017  0.00  0.00    +0.000 N 
ATOM      2  C   UNL     1      -0.714  10.332  19.290  0.00  0.00    +0.000 A 
ATOM      3  C   UNL     1       0.077   9.750  18.292  0.00  0.00    +0.000 A 
ATOM      4  C   UNL     1       1.165   9.030  18.764  0.00  0.00    +0.000 A 
ATOM      5  N   UNL     1       2.162   8.323  18.178  0.00  0.00    +0.000 N 
ATOM      6  C   UNL     1       2.414   7.290  19.038  0.00  0.00    +0.000 A 
ATOM      7  N   UNL     1       2.309   7.782  20.265  0.00  0.00    +0.000 NA
ATOM      8  C   UNL     1       1.457   8.866  20.110  0.00  0.00    +0.000 A 
ATOM      9  C   UNL     1       0.819   9.730  20.992  0.00  0.00    +0.000 A 
ATOM     10  N   UNL     1      -0.293  10.418  20.578  0.00  0.00    +0.000 NA
ATOM     11  H   UNL     1      -2.537  11.008  19.830  0.00  0.00    +0.000 HD
ATOM     12  H   UNL     1       2.639   8.512  17.304  0.00  0.00    +0.000 HD
ENDROOT
BRANCH   1  18
ATOM     13  C   UNL     1      -3.941  11.503  17.721  0.00  0.00    +0.000 A 
ATOM     14  C   UNL     1      -4.572  11.595  16.475  0.00  0.00    +0.000 A 
ATOM     15  C   UNL     1      -3.982  11.023  15.354  0.00  0.00    +0.000 A 
ATOM     16  C   UNL     1      -2.775  10.374  15.512  0.00  0.00    +0.000 A 
ATOM     17  N   UNL     1      -2.137  10.271  16.691  0.00  0.00    +0.000 NA
ATOM     18  C   UNL     1      -2.696  10.843  17.788  0.00  0.00    +0.000 A 
BRANCH  13  20
ATOM     19  C   UNL     1      -5.884  12.240  18.870  0.00  0.00    +0.000 C 
ATOM     20  O   UNL     1      -4.472  12.016  18.880  0.00  0.00    +0.000 OA
ENDBRANCH  13  20
ENDBRANCH   1  18
BRANCH   6  21
ATOM     21  C   UNL     1       2.620   5.911  18.568  0.00  0.00    +0.000 A 
ATOM     22  C   UNL     1       3.602   5.644  17.590  0.00  0.00    +0.000 A 
ATOM     23  C   UNL     1       3.855   4.346  17.148  0.00  0.00    +0.000 A 
ATOM     24  C   UNL     1       3.115   3.289  17.672  0.00  0.00    +0.000 A 
ATOM     25  C   UNL     1       2.107   3.525  18.612  0.00  0.00    +0.000 A 
ATOM     26  C   UNL     1       1.838   4.837  19.028  0.00  0.00    +0.000 A 
BRANCH  25  27
ATOM     27  C   UNL     1       1.291   2.377  19.184  0.00  0.00    +0.000 C 
ATOM     28  F   UNL     1       1.997   1.222  19.283  0.00  0.00    +0.000 F 
ATOM     29  F   UNL     1       0.850   2.659  20.437  0.00  0.00    +0.000 F 
ATOM     30  F   UNL     1       0.192   2.089  18.440  0.00  0.00    +0.000 F 
ENDBRANCH  25  27
ENDBRANCH   6  21
TORSDOF 4
ENDMDL
MODEL 6
REMARK VINA RESULT:      -7.9      1.701      2.341
REMARK  Name = 
REMARK  5 active torsions:
REMARK  status: ('A' for Active; 'I' for Inactive)
REMARK    1  A    between atoms: C_1  and  O_2
REMARK    2  A    between atoms: O_2  and  C_3
REMARK    3  A    between atoms: C_8  and  N_9
REMARK    4  A    between atoms: C_14  and  C_15
REMARK    5  A    between atoms: C_19  and  C_20
REMARK                            x       y       z     vdW  Elec       q    Type
REMARK                         _______ _______ _______ _____ _____    ______ ____
ROOT
ATOM      1  N   UNL     1       4.426   4.064  20.137  0.00  0.00    +0.000 N 
ATOM      2  C   UNL     1       5.155   4.912  19.306  0.00  0.00    +0.000 A 
ATOM      3  C   UNL     1       4.637   5.290  18.061  0.00  0.00    +0.000 A 
ATOM      4  C   UNL     1       5.588   5.723  17.147  0.00  0.00    +0.000 A 
ATOM      5  N   UNL     1       5.540   6.165  15.867  0.00  0.00    +0.000 N 
ATOM      6  C   UNL     1       6.697   5.710  15.294  0.00  0.00    +0.000 A 
ATOM      7  N   UNL     1       7.646   5.821  16.214  0.00  0.00    +0.000 NA
ATOM      8  C   UNL     1       6.948   5.768  17.411  0.00  0.00    +0.000 A 
ATOM      9  C   UNL     1       7.323   5.687  18.747  0.00  0.00    +0.000 A 
ATOM     10  N   UNL     1       6.428   5.212  19.672  0.00  0.00    +0.000 NA
ATOM     11  H   UNL     1       4.932   3.785  20.964  0.00  0.00    +0.000 HD
ATOM     12  H   UNL     1       4.824   6.724  15.419  0.00  0.00    +0.000 HD
ENDROOT
BRANCH   1  18
ATOM     13  C   UNL     1       2.656   2.504  19.492  0.00  0.00    +0.000 A 
ATOM     14  C   UNL     1       1.286   2.220  19.454  0.00  0.00    +0.000 A 
ATOM     15  C   UNL     1       0.374   3.125  19.985  0.00  0.00    +0.000 A 
ATOM     16  C   UNL     1       0.860   4.290  20.541  0.00  0.00    +0.000 A 
ATOM     17  N   UNL     1       2.169   4.594  20.603  0.00  0.00    +0.000 NA
ATOM     18  C   UNL     1       3.067   3.707  20.103  0.00  0.00    +0.000 A 
BRANCH  13  20
ATOM     19  C   UNL     1       3.782   1.743  17.546  0.00  0.00    +0.000 C 
ATOM     20  O   UNL     1       3.617   1.676  18.964  0.00  0.00    +0.000 OA
ENDBRANCH  13  20
ENDBRANCH   1  18
BRANCH   6  21
ATOM     21  C   UNL     1       6.723   5.113  13.950  0.00  0.00    +0.000 A 
ATOM     22  C   UNL     1       7.880   5.238  13.151  0.00  0.00    +0.000 A 
ATOM     23  C   UNL     1       7.960   4.651  11.888  0.00  0.00    +0.000 A 
ATOM     24  C   UNL     1       6.870   3.937  11.396  0.00  0.00    +0.000 A 
ATOM     25  C   UNL     1       5.694   3.830  12.146  0.00  0.00    +0.000 A 
ATOM     26  C   UNL     1       5.611   4.450  13.402  0.00  0.00    +0.000 A 
BRANCH  25  27
ATOM     27  C   UNL     1       4.498   3.059  11.612  0.00  0.00    +0.000 C 
ATOM     28  F   UNL     1       3.470   2.997  12.496  0.00  0.00    +0.000 F 
ATOM     29  F   UNL     1       3.997   3.636  10.490  0.00  0.00    +0.000 F 
ATOM     30  F   UNL     1       4.800   1.775  11.288  0.00  0.00    +0.000 F 
ENDBRANCH  25  27
ENDBRANCH   6  21
TORSDOF 4
ENDMDL
MODEL 7
REMARK VINA RESULT:      -7.9      2.439      3.770
REMARK  Name = 
REMARK  5 active torsions:
REMARK  status: ('A' for Active; 'I' for Inactive)
REMARK    1  A    between atoms: C_1  and  O_2
REMARK    2  A    between atoms: O_2  and  C_3
REMARK    3  A    between atoms: C_8  and  N_9
REMARK    4  A    between atoms: C_14  and  C_15
REMARK    5  A    between atoms: C_19  and  C_20
REMARK                            x       y       z     vdW  Elec       q    Type
REMARK                         _______ _______ _______ _____ _____    ______ ____
ROOT
ATOM      1  N   UNL     1       2.236   6.724  19.437  0.00  0.00    +0.000 N 
ATOM      2  C   UNL     1       3.408   6.019  19.169  0.00  0.00    +0.000 A 
ATOM      3  C   UNL     1       4.360   6.550  18.289  0.00  0.00    +0.000 A 
ATOM      4  C   UNL     1       5.223   5.613  17.739  0.00  0.00    +0.000 A 
ATOM      5  N   UNL     1       6.259   5.674  16.868  0.00  0.00    +0.000 N 
ATOM      6  C   UNL     1       6.191   4.508  16.156  0.00  0.00    +0.000 A 
ATOM      7  N   UNL     1       5.835   3.559  17.012  0.00  0.00    +0.000 NA
ATOM      8  C   UNL     1       5.158   4.253  18.004  0.00  0.00    +0.000 A 
ATOM      9  C   UNL     1       4.410   3.873  19.113  0.00  0.00    +0.000 A 
ATOM     10  N   UNL     1       3.506   4.753  19.651  0.00  0.00    +0.000 NA
ATOM     11  H   UNL     1       1.583   6.209  20.009  0.00  0.00    +0.000 HD
ATOM     12  H   UNL     1       6.952   6.406  16.763  0.00  0.00    +0.000 HD
ENDROOT
BRANCH   1  18
ATOM     13  C   UNL     1       1.230   8.824  20.186  0.00  0.00    +0.000 A 
ATOM     14  C   UNL     1       0.902  10.151  19.885  0.00  0.00    +0.000 A 
ATOM     15  C   UNL     1       1.229  10.684  18.645  0.00  0.00    +0.000 A 
ATOM     16  C   UNL     1       1.877   9.872  17.736  0.00  0.00    +0.000 A 
ATOM     17  N   UNL     1       2.214   8.595  17.991  0.00  0.00    +0.000 NA
ATOM     18  C   UNL     1       1.915   8.073  19.209  0.00  0.00    +0.000 A 
BRANCH  13  20
ATOM     19  C   UNL     1      -0.292   8.658  22.001  0.00  0.00    +0.000 C 
ATOM     20  O   UNL     1       0.916   8.216  21.377  0.00  0.00    +0.000 OA
ENDBRANCH  13  20
ENDBRANCH   1  18
BRANCH   6  21
ATOM     21  C   UNL     1       6.370   4.469  14.696  0.00  0.00    +0.000 A 
ATOM     22  C   UNL     1       7.523   5.042  14.117  0.00  0.00    +0.000 A 
ATOM     23  C   UNL     1       7.750   4.989  12.741  0.00  0.00    +0.000 A 
ATOM     24  C   UNL     1       6.813   4.370  11.918  0.00  0.00    +0.000 A 
ATOM     25  C   UNL     1       5.640   3.830  12.456  0.00  0.00    +0.000 A 
ATOM     26  C   UNL     1       5.405   3.914  13.836  0.00  0.00    +0.000 A 
BRANCH  25  27
ATOM     27  C   UNL     1       4.610   3.159  11.561  0.00  0.00    +0.000 C 
ATOM     28  F   UNL     1       5.027   1.961  11.079  0.00  0.00    +0.000 F 
ATOM     29  F   UNL     1       3.456   2.915  12.234  0.00  0.00    +0.000 F 
ATOM     30  F   UNL     1       4.280   3.911  10.481  0.00  0.00    +0.000 F 
ENDBRANCH  25  27
ENDBRANCH   6  21
TORSDOF 4
ENDMDL
MODEL 8
REMARK VINA RESULT:      -7.8      6.125      8.352
REMARK  Name = 
REMARK  5 active torsions:
REMARK  status: ('A' for Active; 'I' for Inactive)
REMARK    1  A    between atoms: C_1  and  O_2
REMARK    2  A    between atoms: O_2  and  C_3
REMARK    3  A    between atoms: C_8  and  N_9
REMARK    4  A    between atoms: C_14  and  C_15
REMARK    5  A    between atoms: C_19  and  C_20
REMARK                            x       y       z     vdW  Elec       q    Type
REMARK                         _______ _______ _______ _____ _____    ______ ____
ROOT
ATOM      1  N   UNL     1      -2.173  10.370  18.728  0.00  0.00    +0.000 N 
ATOM      2  C   UNL     1      -0.837  10.144  19.052  0.00  0.00    +0.000 A 
ATOM      3  C   UNL     1       0.069   9.753  18.058  0.00  0.00    +0.000 A 
ATOM      4  C   UNL     1       1.209   9.119  18.533  0.00  0.00    +0.000 A 
ATOM      5  N   UNL     1       2.311   8.589  17.950  0.00  0.00    +0.000 N 
ATOM      6  C   UNL     1       2.639   7.513  18.730  0.00  0.00    +0.000 A 
ATOM      7  N   UNL     1       2.412   7.871  19.987  0.00  0.00    +0.000 NA
ATOM      8  C   UNL     1       1.447   8.862  19.875  0.00  0.00    +0.000 A 
ATOM      9  C   UNL     1       0.666   9.561  20.787  0.00  0.00    +0.000 A 
ATOM     10  N   UNL     1      -0.497  10.154  20.366  0.00  0.00    +0.000 NA
ATOM     11  H   UNL     1      -2.752  10.555  19.533  0.00  0.00    +0.000 HD
ATOM     12  H   UNL     1       2.808   8.912  17.128  0.00  0.00    +0.000 HD
ENDROOT
BRANCH   1  18
ATOM     13  C   UNL     1      -3.908  11.411  17.353  0.00  0.00    +0.000 A 
ATOM     14  C   UNL     1      -4.498  11.538  16.090  0.00  0.00    +0.000 A 
ATOM     15  C   UNL     1      -3.989  10.826  15.011  0.00  0.00    +0.000 A 
ATOM     16  C   UNL     1      -2.902  10.004  15.226  0.00  0.00    +0.000 A 
ATOM     17  N   UNL     1      -2.305   9.861  16.422  0.00  0.00    +0.000 NA
ATOM     18  C   UNL     1      -2.784  10.568  17.478  0.00  0.00    +0.000 A 
BRANCH  13  20
ATOM     19  C   UNL     1      -5.648  11.638  18.952  0.00  0.00    +0.000 C 
ATOM     20  O   UNL     1      -4.368  12.058  18.474  0.00  0.00    +0.000 OA
ENDBRANCH  13  20
ENDBRANCH   1  18
BRANCH   6  21
ATOM     21  C   UNL     1       3.031   6.217  18.154  0.00  0.00    +0.000 A 
ATOM     22  C   UNL     1       4.118   6.150  17.256  0.00  0.00    +0.000 A 
ATOM     23  C   UNL     1       4.547   4.936  16.721  0.00  0.00    +0.000 A 
ATOM     24  C   UNL     1       3.880   3.763  17.067  0.00  0.00    +0.000 A 
ATOM     25  C   UNL     1       2.773   3.801  17.921  0.00  0.00    +0.000 A 
ATOM     26  C   UNL     1       2.330   5.031  18.431  0.00  0.00    +0.000 A 
BRANCH  25  27
ATOM     27  C   UNL     1       2.036   2.526  18.298  0.00  0.00    +0.000 C 
ATOM     28  F   UNL     1       0.687   2.669  18.280  0.00  0.00    +0.000 F 
ATOM     29  F   UNL     1       2.321   1.517  17.435  0.00  0.00    +0.000 F 
ATOM     30  F   UNL     1       2.357   2.079  19.539  0.00  0.00    +0.000 F 
ENDBRANCH  25  27
ENDBRANCH   6  21
TORSDOF 4
ENDMDL
MODEL 9
REMARK VINA RESULT:      -7.7      1.361      1.652
REMARK  Name = 
REMARK  5 active torsions:
REMARK  status: ('A' for Active; 'I' for Inactive)
REMARK    1  A    between atoms: C_1  and  O_2
REMARK    2  A    between atoms: O_2  and  C_3
REMARK    3  A    between atoms: C_8  and  N_9
REMARK    4  A    between atoms: C_14  and  C_15
REMARK    5  A    between atoms: C_19  and  C_20
REMARK                            x       y       z     vdW  Elec       q    Type
REMARK                         _______ _______ _______ _____ _____    ______ ____
ROOT
ATOM      1  N   UNL     1       4.358   3.852  19.984  0.00  0.00    +0.000 N 
ATOM      2  C   UNL     1       5.093   4.733  19.193  0.00  0.00    +0.000 A 
ATOM      3  C   UNL     1       4.599   5.134  17.946  0.00  0.00    +0.000 A 
ATOM      4  C   UNL     1       5.565   5.605  17.067  0.00  0.00    +0.000 A 
ATOM      5  N   UNL     1       5.541   6.080  15.798  0.00  0.00    +0.000 N 
ATOM      6  C   UNL     1       6.719   5.658  15.242  0.00  0.00    +0.000 A 
ATOM      7  N   UNL     1       7.643   5.761  16.188  0.00  0.00    +0.000 NA
ATOM      8  C   UNL     1       6.918   5.666  17.366  0.00  0.00    +0.000 A 
ATOM      9  C   UNL     1       7.261   5.556  18.708  0.00  0.00    +0.000 A 
ATOM     10  N   UNL     1       6.352   5.043  19.598  0.00  0.00    +0.000 NA
ATOM     11  H   UNL     1       4.849   3.559  20.816  0.00  0.00    +0.000 HD
ATOM     12  H   UNL     1       4.827   6.639  15.347  0.00  0.00    +0.000 HD
ENDROOT
BRANCH   1  18
ATOM     13  C   UNL     1       2.001   4.282  20.476  0.00  0.00    +0.000 A 
ATOM     14  C   UNL     1       0.677   3.834  20.403  0.00  0.00    +0.000 A 
ATOM     15  C   UNL     1       0.389   2.612  19.807  0.00  0.00    +0.000 A 
ATOM     16  C   UNL     1       1.436   1.871  19.298  0.00  0.00    +0.000 A 
ATOM     17  N   UNL     1       2.719   2.272  19.344  0.00  0.00    +0.000 NA
ATOM     18  C   UNL     1       3.007   3.473  19.908  0.00  0.00    +0.000 A 
BRANCH  13  20
ATOM     19  C   UNL     1       1.881   6.653  20.453  0.00  0.00    +0.000 C 
ATOM     20  O   UNL     1       2.371   5.463  21.074  0.00  0.00    +0.000 OA
ENDBRANCH  13  20
ENDBRANCH   1  18
BRANCH   6  21
ATOM     21  C   UNL     1       6.788   5.096  13.885  0.00  0.00    +0.000 A 
ATOM     22  C   UNL     1       7.907   5.371  13.069  0.00  0.00    +0.000 A 
ATOM     23  C   UNL     1       8.029   4.824  11.792  0.00  0.00    +0.000 A 
ATOM     24  C   UNL     1       7.020   3.999  11.302  0.00  0.00    +0.000 A 
ATOM     25  C   UNL     1       5.879   3.741  12.069  0.00  0.00    +0.000 A 
ATOM     26  C   UNL     1       5.749   4.320  13.340  0.00  0.00    +0.000 A 
BRANCH  25  27
ATOM     27  C   UNL     1       4.770   2.847  11.538  0.00  0.00    +0.000 C 
ATOM     28  F   UNL     1       4.331   3.220  10.309  0.00  0.00    +0.000 F 
ATOM     29  F   UNL     1       5.186   1.561  11.417  0.00  0.00    +0.000 F 
ATOM     30  F   UNL     1       3.677   2.828  12.343  0.00  0.00    +0.000 F 
ENDBRANCH  25  27
ENDBRANCH   6  21
TORSDOF 4
ENDMDL
