MODEL 1
REMARK VINA RESULT:      -6.5      0.000      0.000
REMARK  Name = 
REMARK  15 active torsions:
REMARK  status: ('A' for Active; 'I' for Inactive)
REMARK    1  A    between atoms: C_1  and  O_2
REMARK    2  A    between atoms: O_2  and  C_3
REMARK    3  A    between atoms: C_3  and  C_5
REMARK    4  A    between atoms: C_5  and  C_6
REMARK    5  A    between atoms: C_10  and  C_11
REMARK    6  A    between atoms: C_14  and  C_15
REMARK    7  A    between atoms: C_15  and  O_17
REMARK    8  A    between atoms: O_17  and  N_18
REMARK    9  A    between atoms: N_18  and  C_19
REMARK   10  A    between atoms: N_18  and  C_20
REMARK   11  A    between atoms: C_21  and  C_22
REMARK   12  A    between atoms: C_22  and  O_24
REMARK   13  A    between atoms: O_24  and  N_25
REMARK   14  A    between atoms: N_25  and  C_26
REMARK   15  A    between atoms: N_25  and  C_27
REMARK                            x       y       z     vdW  Elec       q    Type
REMARK                         _______ _______ _______ _____ _____    ______ ____
ROOT
ATOM      1  C   UNL     1       6.329   5.485  18.021  0.00  0.00    +0.000 C 
ATOM      2  C   UNL     1       6.950   5.516  19.457  0.00  0.00    +0.000 C 
ATOM      3  C   UNL     1       6.554   6.851  17.360  0.00  0.00    +0.000 C 
ATOM      4  C   UNL     1       5.416   7.384  16.489  0.00  0.00    +0.000 C 
ATOM      5  C   UNL     1       3.935   7.000  16.493  0.00  0.00    +0.000 C 
ATOM      6  C   UNL     1       3.497   6.030  17.597  0.00  0.00    +0.000 C 
ATOM      7  C   UNL     1       2.396   5.100  16.974  0.00  0.00    +0.000 C 
ATOM      8  C   UNL     1       2.693   6.830  18.686  0.00  0.00    +0.000 A 
ATOM      9  C   UNL     1       1.869   7.944  18.355  0.00  0.00    +0.000 A 
ATOM     10  C   UNL     1       1.168   8.731  19.294  0.00  0.00    +0.000 A 
ATOM     11  C   UNL     1       1.117   8.276  20.614  0.00  0.00    +0.000 A 
ATOM     12  C   UNL     1       1.870   7.105  20.950  0.00  0.00    +0.000 A 
ATOM     13  C   UNL     1       2.684   6.405  20.010  0.00  0.00    +0.000 A 
ATOM     14  C   UNL     1       3.422   5.182  20.359  0.00  0.00    +0.000 C 
ATOM     15  C   UNL     1       4.307   4.576  19.524  0.00  0.00    +0.000 C 
ATOM     16  C   UNL     1       4.723   5.054  18.121  0.00  0.00    +0.000 C 
ENDROOT
BRANCH   1  17
ATOM     17  C   UNL     1       7.475   4.644  17.288  0.00  0.00    +0.000 C 
ATOM     18  O   UNL     1       8.358   4.100  17.950  0.00  0.00    +0.000 OA
BRANCH  17  20
ATOM     19  C   UNL     1       6.499   3.853  15.327  0.00  0.00    +0.000 C 
ATOM     20  O   UNL     1       7.550   4.668  15.934  0.00  0.00    +0.000 OA
ENDBRANCH  17  20
ENDBRANCH   1  17
BRANCH  10  21
ATOM     21  C   UNL     1       0.626  10.016  18.746  0.00  0.00    +0.000 C 
ATOM     22  O   UNL     1       1.365  10.994  18.456  0.00  0.00    +0.000 OA
BRANCH  21  23
ATOM     23  O   UNL     1      -0.742  10.025  18.756  0.00  0.00    +0.000 OA
BRANCH  23  24
ATOM     24  N   UNL     1      -1.289  11.044  17.824  0.00  0.00    +0.000 NA
ATOM     25  C   UNL     1      -2.064  10.349  16.787  0.00  0.00    +0.000 C 
ATOM     26  C   UNL     1      -2.202  11.815  18.672  0.00  0.00    +0.000 C 
ENDBRANCH  23  24
ENDBRANCH  21  23
ENDBRANCH  10  21
BRANCH  11  27
ATOM     27  C   UNL     1       0.237   8.844  21.691  0.00  0.00    +0.000 C 
ATOM     28  O   UNL     1      -0.742   8.243  22.109  0.00  0.00    +0.000 OA
BRANCH  27  29
ATOM     29  O   UNL     1       0.618  10.118  22.051  0.00  0.00    +0.000 OA
BRANCH  29  30
ATOM     30  N   UNL     1      -0.462  11.094  21.846  0.00  0.00    +0.000 NA
ATOM     31  C   UNL     1      -1.197  11.242  23.107  0.00  0.00    +0.000 C 
ATOM     32  C   UNL     1       0.244  12.339  21.539  0.00  0.00    +0.000 C 
ENDBRANCH  29  30
ENDBRANCH  27  29
ENDBRANCH  11  27
TORSDOF 8
ENDMDL
MODEL 2
REMARK VINA RESULT:      -6.1      4.253      8.218
REMARK  Name = 
REMARK  15 active torsions:
REMARK  status: ('A' for Active; 'I' for Inactive)
REMARK    1  A    between atoms: C_1  and  O_2
REMARK    2  A    between atoms: O_2  and  C_3
REMARK    3  A    between atoms: C_3  and  C_5
REMARK    4  A    between atoms: C_5  and  C_6
REMARK    5  A    between atoms: C_10  and  C_11
REMARK    6  A    between atoms: C_14  and  C_15
REMARK    7  A    between atoms: C_15  and  O_17
REMARK    8  A    between atoms: O_17  and  N_18
REMARK    9  A    between atoms: N_18  and  C_19
REMARK   10  A    between atoms: N_18  and  C_20
REMARK   11  A    between atoms: C_21  and  C_22
REMARK   12  A    between atoms: C_22  and  O_24
REMARK   13  A    between atoms: O_24  and  N_25
REMARK   14  A    between atoms: N_25  and  C_26
REMARK   15  A    between atoms: N_25  and  C_27
REMARK                            x       y       z     vdW  Elec       q    Type
REMARK                         _______ _______ _______ _____ _____    ______ ____
ROOT
ATOM      1  C   UNL     1       0.291  10.484  18.731  0.00  0.00    +0.000 C 
ATOM      2  C   UNL     1      -0.556   9.392  17.997  0.00  0.00    +0.000 C 
ATOM      3  C   UNL     1       0.602   9.991  20.150  0.00  0.00    +0.000 C 
ATOM      4  C   UNL     1       0.578  11.042  21.260  0.00  0.00    +0.000 C 
ATOM      5  C   UNL     1      -0.109  12.410  21.280  0.00  0.00    +0.000 C 
ATOM      6  C   UNL     1      -0.992  12.735  20.069  0.00  0.00    +0.000 C 
ATOM      7  C   UNL     1      -0.831  14.271  19.788  0.00  0.00    +0.000 C 
ATOM      8  C   UNL     1      -2.501  12.620  20.495  0.00  0.00    +0.000 A 
ATOM      9  C   UNL     1      -2.946  12.957  21.807  0.00  0.00    +0.000 A 
ATOM     10  C   UNL     1      -4.275  12.825  22.261  0.00  0.00    +0.000 A 
ATOM     11  C   UNL     1      -5.260  12.532  21.315  0.00  0.00    +0.000 A 
ATOM     12  C   UNL     1      -4.842  12.275  19.969  0.00  0.00    +0.000 A 
ATOM     13  C   UNL     1      -3.474  12.279  19.564  0.00  0.00    +0.000 A 
ATOM     14  C   UNL     1      -3.061  12.052  18.170  0.00  0.00    +0.000 C 
ATOM     15  C   UNL     1      -1.765  11.916  17.785  0.00  0.00    +0.000 C 
ATOM     16  C   UNL     1      -0.526  11.935  18.700  0.00  0.00    +0.000 C 
ENDROOT
BRANCH   1  17
ATOM     17  C   UNL     1       1.701  10.195  18.034  0.00  0.00    +0.000 C 
ATOM     18  O   UNL     1       2.562  11.072  18.000  0.00  0.00    +0.000 OA
BRANCH  17  20
ATOM     19  C   UNL     1       2.993   8.262  17.888  0.00  0.00    +0.000 C 
ATOM     20  O   UNL     1       1.875   9.037  17.350  0.00  0.00    +0.000 OA
ENDBRANCH  17  20
ENDBRANCH   1  17
BRANCH  10  21
ATOM     21  C   UNL     1      -4.439  12.946  23.746  0.00  0.00    +0.000 C 
ATOM     22  O   UNL     1      -4.338  11.958  24.522  0.00  0.00    +0.000 OA
BRANCH  21  23
ATOM     23  O   UNL     1      -4.851  14.201  24.103  0.00  0.00    +0.000 OA
BRANCH  23  24
ATOM     24  N   UNL     1      -3.786  15.211  23.880  0.00  0.00    +0.000 NA
ATOM     25  C   UNL     1      -4.428  16.500  23.587  0.00  0.00    +0.000 C 
ATOM     26  C   UNL     1      -3.123  15.289  25.185  0.00  0.00    +0.000 C 
ENDBRANCH  23  24
ENDBRANCH  21  23
ENDBRANCH  10  21
BRANCH  11  27
ATOM     27  C   UNL     1      -6.741  12.582  21.563  0.00  0.00    +0.000 C 
ATOM     28  O   UNL     1      -7.318  11.717  22.206  0.00  0.00    +0.000 OA
BRANCH  27  29
ATOM     29  O   UNL     1      -7.339  13.637  20.908  0.00  0.00    +0.000 OA
BRANCH  29  30
ATOM     30  N   UNL     1      -6.855  14.935  21.399  0.00  0.00    +0.000 NA
ATOM     31  C   UNL     1      -6.797  15.865  20.267  0.00  0.00    +0.000 C 
ATOM     32  C   UNL     1      -7.894  15.364  22.337  0.00  0.00    +0.000 C 
ENDBRANCH  29  30
ENDBRANCH  27  29
ENDBRANCH  11  27
TORSDOF 8
ENDMDL
MODEL 3
REMARK VINA RESULT:      -6.0      3.893      7.836
REMARK  Name = 
REMARK  15 active torsions:
REMARK  status: ('A' for Active; 'I' for Inactive)
REMARK    1  A    between atoms: C_1  and  O_2
REMARK    2  A    between atoms: O_2  and  C_3
REMARK    3  A    between atoms: C_3  and  C_5
REMARK    4  A    between atoms: C_5  and  C_6
REMARK    5  A    between atoms: C_10  and  C_11
REMARK    6  A    between atoms: C_14  and  C_15
REMARK    7  A    between atoms: C_15  and  O_17
REMARK    8  A    between atoms: O_17  and  N_18
REMARK    9  A    between atoms: N_18  and  C_19
REMARK   10  A    between atoms: N_18  and  C_20
REMARK   11  A    between atoms: C_21  and  C_22
REMARK   12  A    between atoms: C_22  and  O_24
REMARK   13  A    between atoms: O_24  and  N_25
REMARK   14  A    between atoms: N_25  and  C_26
REMARK   15  A    between atoms: N_25  and  C_27
REMARK                            x       y       z     vdW  Elec       q    Type
REMARK                         _______ _______ _______ _____ _____    ______ ____
ROOT
ATOM      1  C   UNL     1       0.510   9.799  19.098  0.00  0.00    +0.000 C 
ATOM      2  C   UNL     1      -0.505   9.344  17.996  0.00  0.00    +0.000 C 
ATOM      3  C   UNL     1       0.335   8.897  20.326  0.00  0.00    +0.000 C 
ATOM      4  C   UNL     1       0.463   9.571  21.693  0.00  0.00    +0.000 C 
ATOM      5  C   UNL     1       0.318  11.051  22.057  0.00  0.00    +0.000 C 
ATOM      6  C   UNL     1      -0.131  11.980  20.923  0.00  0.00    +0.000 C 
ATOM      7  C   UNL     1       0.618  13.344  21.129  0.00  0.00    +0.000 C 
ATOM      8  C   UNL     1      -1.635  12.375  21.154  0.00  0.00    +0.000 A 
ATOM      9  C   UNL     1      -2.184  12.535  22.459  0.00  0.00    +0.000 A 
ATOM     10  C   UNL     1      -3.536  12.837  22.729  0.00  0.00    +0.000 A 
ATOM     11  C   UNL     1      -4.350  13.196  21.652  0.00  0.00    +0.000 A 
ATOM     12  C   UNL     1      -3.790  13.125  20.336  0.00  0.00    +0.000 A 
ATOM     13  C   UNL     1      -2.458  12.683  20.078  0.00  0.00    +0.000 A 
ATOM     14  C   UNL     1      -1.883  12.652  18.724  0.00  0.00    +0.000 C 
ATOM     15  C   UNL     1      -0.670  12.111  18.437  0.00  0.00    +0.000 C 
ATOM     16  C   UNL     1       0.285  11.416  19.426  0.00  0.00    +0.000 C 
ENDROOT
BRANCH   1  17
ATOM     17  C   UNL     1       1.834   9.150  18.479  0.00  0.00    +0.000 C 
ATOM     18  O   UNL     1       2.278   9.561  17.408  0.00  0.00    +0.000 OA
BRANCH  17  20
ATOM     19  C   UNL     1       2.816   7.079  18.062  0.00  0.00    +0.000 C 
ATOM     20  O   UNL     1       2.365   8.047  19.062  0.00  0.00    +0.000 OA
ENDBRANCH  17  20
ENDBRANCH   1  17
BRANCH  10  21
ATOM     21  C   UNL     1      -3.940  12.653  24.160  0.00  0.00    +0.000 C 
ATOM     22  O   UNL     1      -4.933  11.955  24.500  0.00  0.00    +0.000 OA
BRANCH  21  23
ATOM     23  O   UNL     1      -3.200  13.446  24.995  0.00  0.00    +0.000 OA
BRANCH  23  24
ATOM     24  N   UNL     1      -2.962  14.788  24.407  0.00  0.00    +0.000 NA
ATOM     25  C   UNL     1      -3.960  15.715  24.957  0.00  0.00    +0.000 C 
ATOM     26  C   UNL     1      -1.637  15.146  24.919  0.00  0.00    +0.000 C 
ENDBRANCH  23  24
ENDBRANCH  21  23
ENDBRANCH  10  21
BRANCH  11  27
ATOM     27  C   UNL     1      -5.734  13.768  21.766  0.00  0.00    +0.000 C 
ATOM     28  O   UNL     1      -5.976  14.739  22.469  0.00  0.00    +0.000 OA
BRANCH  27  29
ATOM     29  O   UNL     1      -6.662  13.018  21.076  0.00  0.00    +0.000 OA
BRANCH  29  30
ATOM     30  N   UNL     1      -6.874  11.701  21.693  0.00  0.00    +0.000 NA
ATOM     31  C   UNL     1      -7.915  11.834  22.718  0.00  0.00    +0.000 C 
ATOM     32  C   UNL     1      -7.370  10.874  20.592  0.00  0.00    +0.000 C 
ENDBRANCH  29  30
ENDBRANCH  27  29
ENDBRANCH  11  27
TORSDOF 8
ENDMDL
MODEL 4
REMARK VINA RESULT:      -5.9      1.029      1.458
REMARK  Name = 
REMARK  15 active torsions:
REMARK  status: ('A' for Active; 'I' for Inactive)
REMARK    1  A    between atoms: C_1  and  O_2
REMARK    2  A    between atoms: O_2  and  C_3
REMARK    3  A    between atoms: C_3  and  C_5
REMARK    4  A    between atoms: C_5  and  C_6
REMARK    5  A    between atoms: C_10  and  C_11
REMARK    6  A    between atoms: C_14  and  C_15
REMARK    7  A    between atoms: C_15  and  O_17
REMARK    8  A    between atoms: O_17  and  N_18
REMARK    9  A    between atoms: N_18  and  C_19
REMARK   10  A    between atoms: N_18  and  C_20
REMARK   11  A    between atoms: C_21  and  C_22
REMARK   12  A    between atoms: C_22  and  O_24
REMARK   13  A    between atoms: O_24  and  N_25
REMARK   14  A    between atoms: N_25  and  C_26
REMARK   15  A    between atoms: N_25  and  C_27
REMARK                            x       y       z     vdW  Elec       q    Type
REMARK                         _______ _______ _______ _____ _____    ______ ____
ROOT
ATOM      1  C   UNL     1       6.273   5.469  18.165  0.00  0.00    +0.000 C 
ATOM      2  C   UNL     1       6.853   5.460  19.619  0.00  0.00    +0.000 C 
ATOM      3  C   UNL     1       6.551   6.840  17.536  0.00  0.00    +0.000 C 
ATOM      4  C   UNL     1       5.453   7.417  16.641  0.00  0.00    +0.000 C 
ATOM      5  C   UNL     1       3.963   7.070  16.596  0.00  0.00    +0.000 C 
ATOM      6  C   UNL     1       3.469   6.093  17.669  0.00  0.00    +0.000 C 
ATOM      7  C   UNL     1       2.364   5.202  16.999  0.00  0.00    +0.000 C 
ATOM      8  C   UNL     1       2.654   6.894  18.749  0.00  0.00    +0.000 A 
ATOM      9  C   UNL     1       1.868   8.034  18.414  0.00  0.00    +0.000 A 
ATOM     10  C   UNL     1       1.159   8.822  19.347  0.00  0.00    +0.000 A 
ATOM     11  C   UNL     1       1.058   8.347  20.656  0.00  0.00    +0.000 A 
ATOM     12  C   UNL     1       1.772   7.152  20.993  0.00  0.00    +0.000 A 
ATOM     13  C   UNL     1       2.595   6.448  20.064  0.00  0.00    +0.000 A 
ATOM     14  C   UNL     1       3.292   5.200  20.413  0.00  0.00    +0.000 C 
ATOM     15  C   UNL     1       4.186   4.587  19.593  0.00  0.00    +0.000 C 
ATOM     16  C   UNL     1       4.655   5.078  18.211  0.00  0.00    +0.000 C 
ENDROOT
BRANCH   1  17
ATOM     17  C   UNL     1       7.418   4.612  17.451  0.00  0.00    +0.000 C 
ATOM     18  O   UNL     1       8.303   4.086  18.124  0.00  0.00    +0.000 OA
BRANCH  17  20
ATOM     19  C   UNL     1       6.350   3.906  15.505  0.00  0.00    +0.000 C 
ATOM     20  O   UNL     1       7.492   4.604  16.097  0.00  0.00    +0.000 OA
ENDBRANCH  17  20
ENDBRANCH   1  17
BRANCH  10  21
ATOM     21  C   UNL     1       0.665  10.130  18.807  0.00  0.00    +0.000 C 
ATOM     22  O   UNL     1      -0.335  10.214  18.044  0.00  0.00    +0.000 OA
BRANCH  21  23
ATOM     23  O   UNL     1       1.515  11.154  19.122  0.00  0.00    +0.000 OA
BRANCH  23  24
ATOM     24  N   UNL     1       1.512  12.210  18.078  0.00  0.00    +0.000 NA
ATOM     25  C   UNL     1       0.774  13.369  18.599  0.00  0.00    +0.000 C 
ATOM     26  C   UNL     1       2.930  12.558  17.952  0.00  0.00    +0.000 C 
ENDBRANCH  23  24
ENDBRANCH  21  23
ENDBRANCH  10  21
BRANCH  11  27
ATOM     27  C   UNL     1       0.161   8.918  21.718  0.00  0.00    +0.000 C 
ATOM     28  O   UNL     1      -0.815   8.312  22.134  0.00  0.00    +0.000 OA
BRANCH  27  29
ATOM     29  O   UNL     1       0.525  10.201  22.065  0.00  0.00    +0.000 OA
BRANCH  29  30
ATOM     30  N   UNL     1      -0.602  11.140  21.961  0.00  0.00    +0.000 NA
ATOM     31  C   UNL     1      -1.366  11.086  23.212  0.00  0.00    +0.000 C 
ATOM     32  C   UNL     1       0.043  12.448  21.834  0.00  0.00    +0.000 C 
ENDBRANCH  29  30
ENDBRANCH  27  29
ENDBRANCH  11  27
TORSDOF 8
ENDMDL
MODEL 5
REMARK VINA RESULT:      -5.8      1.411      1.980
REMARK  Name = 
REMARK  15 active torsions:
REMARK  status: ('A' for Active; 'I' for Inactive)
REMARK    1  A    between atoms: C_1  and  O_2
REMARK    2  A    between atoms: O_2  and  C_3
REMARK    3  A    between atoms: C_3  and  C_5
REMARK    4  A    between atoms: C_5  and  C_6
REMARK    5  A    between atoms: C_10  and  C_11
REMARK    6  A    between atoms: C_14  and  C_15
REMARK    7  A    between atoms: C_15  and  O_17
REMARK    8  A    between atoms: O_17  and  N_18
REMARK    9  A    between atoms: N_18  and  C_19
REMARK   10  A    between atoms: N_18  and  C_20
REMARK   11  A    between atoms: C_21  and  C_22
REMARK   12  A    between atoms: C_22  and  O_24
REMARK   13  A    between atoms: O_24  and  N_25
REMARK   14  A    between atoms: N_25  and  C_26
REMARK   15  A    between atoms: N_25  and  C_27
REMARK                            x       y       z     vdW  Elec       q    Type
REMARK                         _______ _______ _______ _____ _____    ______ ____
ROOT
ATOM      1  C   UNL     1       5.538   5.390  18.131  0.00  0.00    +0.000 C 
ATOM      2  C   UNL     1       6.247   5.320  19.524  0.00  0.00    +0.000 C 
ATOM      3  C   UNL     1       5.940   6.701  17.443  0.00  0.00    +0.000 C 
ATOM      4  C   UNL     1       4.851   7.412  16.638  0.00  0.00    +0.000 C 
ATOM      5  C   UNL     1       3.330   7.275  16.740  0.00  0.00    +0.000 C 
ATOM      6  C   UNL     1       2.811   6.389  17.880  0.00  0.00    +0.000 C 
ATOM      7  C   UNL     1       1.536   5.651  17.337  0.00  0.00    +0.000 C 
ATOM      8  C   UNL     1       2.220   7.310  19.009  0.00  0.00    +0.000 A 
ATOM      9  C   UNL     1       1.569   8.543  18.718  0.00  0.00    +0.000 A 
ATOM     10  C   UNL     1       1.066   9.434  19.691  0.00  0.00    +0.000 A 
ATOM     11  C   UNL     1       1.026   8.994  21.016  0.00  0.00    +0.000 A 
ATOM     12  C   UNL     1       1.598   7.716  21.317  0.00  0.00    +0.000 A 
ATOM     13  C   UNL     1       2.226   6.893  20.335  0.00  0.00    +0.000 A 
ATOM     14  C   UNL     1       2.776   5.566  20.650  0.00  0.00    +0.000 C 
ATOM     15  C   UNL     1       3.495   4.824  19.767  0.00  0.00    +0.000 C 
ATOM     16  C   UNL     1       3.894   5.227  18.336  0.00  0.00    +0.000 C 
ENDROOT
BRANCH   1  17
ATOM     17  C   UNL     1       6.483   4.373  17.336  0.00  0.00    +0.000 C 
ATOM     18  O   UNL     1       7.700   4.400  17.511  0.00  0.00    +0.000 OA
BRANCH  17  20
ATOM     19  C   UNL     1       6.115   4.207  15.042  0.00  0.00    +0.000 C 
ATOM     20  O   UNL     1       5.947   3.597  16.361  0.00  0.00    +0.000 OA
ENDBRANCH  17  20
ENDBRANCH   1  17
BRANCH  10  21
ATOM     21  C   UNL     1       0.706  10.790  19.165  0.00  0.00    +0.000 C 
ATOM     22  O   UNL     1      -0.178  10.963  18.284  0.00  0.00    +0.000 OA
BRANCH  21  23
ATOM     23  O   UNL     1       1.551  11.753  19.646  0.00  0.00    +0.000 OA
BRANCH  23  24
ATOM     24  N   UNL     1       1.339  13.056  18.967  0.00  0.00    +0.000 NA
ATOM     25  C   UNL     1       1.399  14.118  19.981  0.00  0.00    +0.000 C 
ATOM     26  C   UNL     1       2.503  13.166  18.084  0.00  0.00    +0.000 C 
ENDBRANCH  23  24
ENDBRANCH  21  23
ENDBRANCH  10  21
BRANCH  11  27
ATOM     27  C   UNL     1       0.321   9.698  22.141  0.00  0.00    +0.000 C 
ATOM     28  O   UNL     1       0.769   9.709  23.278  0.00  0.00    +0.000 OA
BRANCH  27  29
ATOM     29  O   UNL     1      -0.892  10.219  21.745  0.00  0.00    +0.000 OA
BRANCH  29  30
ATOM     30  N   UNL     1      -1.059  11.615  22.174  0.00  0.00    +0.000 NA
ATOM     31  C   UNL     1      -1.747  12.348  21.106  0.00  0.00    +0.000 C 
ATOM     32  C   UNL     1      -1.930  11.519  23.346  0.00  0.00    +0.000 C 
ENDBRANCH  29  30
ENDBRANCH  27  29
ENDBRANCH  11  27
TORSDOF 8
ENDMDL
MODEL 6
REMARK VINA RESULT:      -5.7      1.215      1.455
REMARK  Name = 
REMARK  15 active torsions:
REMARK  status: ('A' for Active; 'I' for Inactive)
REMARK    1  A    between atoms: C_1  and  O_2
REMARK    2  A    between atoms: O_2  and  C_3
REMARK    3  A    between atoms: C_3  and  C_5
REMARK    4  A    between atoms: C_5  and  C_6
REMARK    5  A    between atoms: C_10  and  C_11
REMARK    6  A    between atoms: C_14  and  C_15
REMARK    7  A    between atoms: C_15  and  O_17
REMARK    8  A    between atoms: O_17  and  N_18
REMARK    9  A    between atoms: N_18  and  C_19
REMARK   10  A    between atoms: N_18  and  C_20
REMARK   11  A    between atoms: C_21  and  C_22
REMARK   12  A    between atoms: C_22  and  O_24
REMARK   13  A    between atoms: O_24  and  N_25
REMARK   14  A    between atoms: N_25  and  C_26
REMARK   15  A    between atoms: N_25  and  C_27
REMARK                            x       y       z     vdW  Elec       q    Type
REMARK                         _______ _______ _______ _____ _____    ______ ____
ROOT
ATOM      1  C   UNL     1       5.415   5.394  18.231  0.00  0.00    +0.000 C 
ATOM      2  C   UNL     1       6.122   5.251  19.620  0.00  0.00    +0.000 C 
ATOM      3  C   UNL     1       5.881   6.700  17.576  0.00  0.00    +0.000 C 
ATOM      4  C   UNL     1       4.828   7.487  16.795  0.00  0.00    +0.000 C 
ATOM      5  C   UNL     1       3.302   7.424  16.898  0.00  0.00    +0.000 C 
ATOM      6  C   UNL     1       2.741   6.536  18.016  0.00  0.00    +0.000 C 
ATOM      7  C   UNL     1       1.429   5.878  17.459  0.00  0.00    +0.000 C 
ATOM      8  C   UNL     1       2.200   7.455  19.171  0.00  0.00    +0.000 A 
ATOM      9  C   UNL     1       1.611   8.727  18.915  0.00  0.00    +0.000 A 
ATOM     10  C   UNL     1       1.156   9.616  19.913  0.00  0.00    +0.000 A 
ATOM     11  C   UNL     1       1.097   9.144  21.226  0.00  0.00    +0.000 A 
ATOM     12  C   UNL     1       1.605   7.832  21.491  0.00  0.00    +0.000 A 
ATOM     13  C   UNL     1       2.187   7.004  20.485  0.00  0.00    +0.000 A 
ATOM     14  C   UNL     1       2.670   5.642  20.764  0.00  0.00    +0.000 C 
ATOM     15  C   UNL     1       3.349   4.889  19.860  0.00  0.00    +0.000 C 
ATOM     16  C   UNL     1       3.764   5.309  18.438  0.00  0.00    +0.000 C 
ENDROOT
BRANCH   1  17
ATOM     17  C   UNL     1       6.305   4.352  17.407  0.00  0.00    +0.000 C 
ATOM     18  O   UNL     1       7.506   4.241  17.650  0.00  0.00    +0.000 OA
BRANCH  17  20
ATOM     19  C   UNL     1       6.402   4.118  15.092  0.00  0.00    +0.000 C 
ATOM     20  O   UNL     1       5.760   3.713  16.342  0.00  0.00    +0.000 OA
ENDBRANCH  17  20
ENDBRANCH   1  17
BRANCH  10  21
ATOM     21  C   UNL     1       0.865  11.002  19.424  0.00  0.00    +0.000 C 
ATOM     22  O   UNL     1       1.589  11.991  19.717  0.00  0.00    +0.000 OA
BRANCH  21  23
ATOM     23  O   UNL     1      -0.337  11.060  18.771  0.00  0.00    +0.000 OA
BRANCH  23  24
ATOM     24  N   UNL     1      -1.074  12.308  19.089  0.00  0.00    +0.000 NA
ATOM     25  C   UNL     1      -0.722  13.319  18.081  0.00  0.00    +0.000 C 
ATOM     26  C   UNL     1      -2.476  11.921  18.914  0.00  0.00    +0.000 C 
ENDBRANCH  23  24
ENDBRANCH  21  23
ENDBRANCH  10  21
BRANCH  11  27
ATOM     27  C   UNL     1       0.431   9.853  22.371  0.00  0.00    +0.000 C 
ATOM     28  O   UNL     1       0.667   9.564  23.535  0.00  0.00    +0.000 OA
BRANCH  27  29
ATOM     29  O   UNL     1      -0.511  10.762  21.939  0.00  0.00    +0.000 OA
BRANCH  29  30
ATOM     30  N   UNL     1      -0.774  11.801  22.944  0.00  0.00    +0.000 NA
ATOM     31  C   UNL     1      -0.631  13.113  22.301  0.00  0.00    +0.000 C 
ATOM     32  C   UNL     1      -2.174  11.584  23.313  0.00  0.00    +0.000 C 
ENDBRANCH  29  30
ENDBRANCH  27  29
ENDBRANCH  11  27
TORSDOF 8
ENDMDL
MODEL 7
REMARK VINA RESULT:      -5.5      5.393      8.849
REMARK  Name = 
REMARK  15 active torsions:
REMARK  status: ('A' for Active; 'I' for Inactive)
REMARK    1  A    between atoms: C_1  and  O_2
REMARK    2  A    between atoms: O_2  and  C_3
REMARK    3  A    between atoms: C_3  and  C_5
REMARK    4  A    between atoms: C_5  and  C_6
REMARK    5  A    between atoms: C_10  and  C_11
REMARK    6  A    between atoms: C_14  and  C_15
REMARK    7  A    between atoms: C_15  and  O_17
REMARK    8  A    between atoms: O_17  and  N_18
REMARK    9  A    between atoms: N_18  and  C_19
REMARK   10  A    between atoms: N_18  and  C_20
REMARK   11  A    between atoms: C_21  and  C_22
REMARK   12  A    between atoms: C_22  and  O_24
REMARK   13  A    between atoms: O_24  and  N_25
REMARK   14  A    between atoms: N_25  and  C_26
REMARK   15  A    between atoms: N_25  and  C_27
REMARK                            x       y       z     vdW  Elec       q    Type
REMARK                         _______ _______ _______ _____ _____    ______ ____
ROOT
ATOM      1  C   UNL     1       4.418  16.149  19.264  0.00  0.00    +0.000 C 
ATOM      2  C   UNL     1       4.271  15.814  17.742  0.00  0.00    +0.000 C 
ATOM      3  C   UNL     1       5.004  14.926  19.980  0.00  0.00    +0.000 C 
ATOM      4  C   UNL     1       4.457  14.624  21.375  0.00  0.00    +0.000 C 
ATOM      5  C   UNL     1       3.139  15.069  22.013  0.00  0.00    +0.000 C 
ATOM      6  C   UNL     1       2.173  15.829  21.096  0.00  0.00    +0.000 C 
ATOM      7  C   UNL     1       1.462  16.912  21.982  0.00  0.00    +0.000 C 
ATOM      8  C   UNL     1       0.988  14.874  20.704  0.00  0.00    +0.000 A 
ATOM      9  C   UNL     1       0.484  13.884  21.597  0.00  0.00    +0.000 A 
ATOM     10  C   UNL     1      -0.540  12.966  21.282  0.00  0.00    +0.000 A 
ATOM     11  C   UNL     1      -1.245  13.161  20.091  0.00  0.00    +0.000 A 
ATOM     12  C   UNL     1      -0.809  14.209  19.218  0.00  0.00    +0.000 A 
ATOM     13  C   UNL     1       0.319  15.037  19.496  0.00  0.00    +0.000 A 
ATOM     14  C   UNL     1       0.733  16.135  18.609  0.00  0.00    +0.000 C 
ATOM     15  C   UNL     1       1.877  16.847  18.781  0.00  0.00    +0.000 C 
ATOM     16  C   UNL     1       2.943  16.628  19.871  0.00  0.00    +0.000 C 
ENDROOT
BRANCH   1  17
ATOM     17  C   UNL     1       5.729  17.061  19.178  0.00  0.00    +0.000 C 
ATOM     18  O   UNL     1       5.722  18.196  19.651  0.00  0.00    +0.000 OA
BRANCH  17  20
ATOM     19  C   UNL     1       8.043  17.185  18.946  0.00  0.00    +0.000 C 
ATOM     20  O   UNL     1       6.786  16.631  18.444  0.00  0.00    +0.000 OA
ENDBRANCH  17  20
ENDBRANCH   1  17
BRANCH  10  21
ATOM     21  C   UNL     1      -0.684  11.836  22.256  0.00  0.00    +0.000 C 
ATOM     22  O   UNL     1      -1.444  11.898  23.258  0.00  0.00    +0.000 OA
BRANCH  21  23
ATOM     23  O   UNL     1       0.211  10.834  21.995  0.00  0.00    +0.000 OA
BRANCH  23  24
ATOM     24  N   UNL     1      -0.347   9.833  21.052  0.00  0.00    +0.000 NA
ATOM     25  C   UNL     1       0.544   9.751  19.887  0.00  0.00    +0.000 C 
ATOM     26  C   UNL     1      -0.266   8.581  21.809  0.00  0.00    +0.000 C 
ENDBRANCH  23  24
ENDBRANCH  21  23
ENDBRANCH  10  21
BRANCH  11  27
ATOM     27  C   UNL     1      -2.504  12.439  19.702  0.00  0.00    +0.000 C 
ATOM     28  O   UNL     1      -3.457  12.347  20.463  0.00  0.00    +0.000 OA
BRANCH  27  29
ATOM     29  O   UNL     1      -2.395  11.842  18.465  0.00  0.00    +0.000 OA
BRANCH  29  30
ATOM     30  N   UNL     1      -3.547  10.979  18.167  0.00  0.00    +0.000 NA
ATOM     31  C   UNL     1      -4.365  11.637  17.142  0.00  0.00    +0.000 C 
ATOM     32  C   UNL     1      -2.943   9.767  17.612  0.00  0.00    +0.000 C 
ENDBRANCH  29  30
ENDBRANCH  27  29
ENDBRANCH  11  27
TORSDOF 8
ENDMDL
MODEL 8
REMARK VINA RESULT:      -5.4      7.414      9.298
REMARK  Name = 
REMARK  15 active torsions:
REMARK  status: ('A' for Active; 'I' for Inactive)
REMARK    1  A    between atoms: C_1  and  O_2
REMARK    2  A    between atoms: O_2  and  C_3
REMARK    3  A    between atoms: C_3  and  C_5
REMARK    4  A    between atoms: C_5  and  C_6
REMARK    5  A    between atoms: C_10  and  C_11
REMARK    6  A    between atoms: C_14  and  C_15
REMARK    7  A    between atoms: C_15  and  O_17
REMARK    8  A    between atoms: O_17  and  N_18
REMARK    9  A    between atoms: N_18  and  C_19
REMARK   10  A    between atoms: N_18  and  C_20
REMARK   11  A    between atoms: C_21  and  C_22
REMARK   12  A    between atoms: C_22  and  O_24
REMARK   13  A    between atoms: O_24  and  N_25
REMARK   14  A    between atoms: N_25  and  C_26
REMARK   15  A    between atoms: N_25  and  C_27
REMARK                            x       y       z     vdW  Elec       q    Type
REMARK                         _______ _______ _______ _____ _____    ______ ____
ROOT
ATOM      1  C   UNL     1       9.731  12.817  18.819  0.00  0.00    +0.000 C 
ATOM      2  C   UNL     1       8.714  12.205  17.799  0.00  0.00    +0.000 C 
ATOM      3  C   UNL     1       9.829  11.883  20.032  0.00  0.00    +0.000 C 
ATOM      4  C   UNL     1       9.964  12.552  21.401  0.00  0.00    +0.000 C 
ATOM      5  C   UNL     1       9.598  13.978  21.819  0.00  0.00    +0.000 C 
ATOM      6  C   UNL     1       8.892  14.828  20.756  0.00  0.00    +0.000 C 
ATOM      7  C   UNL     1       9.407  16.300  20.935  0.00  0.00    +0.000 C 
ATOM      8  C   UNL     1       7.370  14.950  21.131  0.00  0.00    +0.000 A 
ATOM      9  C   UNL     1       6.923  14.994  22.484  0.00  0.00    +0.000 A 
ATOM     10  C   UNL     1       5.570  15.049  22.881  0.00  0.00    +0.000 A 
ATOM     11  C   UNL     1       4.611  15.273  21.891  0.00  0.00    +0.000 A 
ATOM     12  C   UNL     1       5.050  15.319  20.528  0.00  0.00    +0.000 A 
ATOM     13  C   UNL     1       6.410  15.122  20.141  0.00  0.00    +0.000 A 
ATOM     14  C   UNL     1       6.854  15.210  18.742  0.00  0.00    +0.000 C 
ATOM     15  C   UNL     1       8.111  14.894  18.333  0.00  0.00    +0.000 C 
ATOM     16  C   UNL     1       9.259  14.365  19.212  0.00  0.00    +0.000 C 
ENDROOT
BRANCH   1  17
ATOM     17  C   UNL     1      11.085  12.419  18.067  0.00  0.00    +0.000 C 
ATOM     18  O   UNL     1      11.159  11.354  17.456  0.00  0.00    +0.000 OA
BRANCH  17  20
ATOM     19  C   UNL     1      12.333  14.169  17.168  0.00  0.00    +0.000 C 
ATOM     20  O   UNL     1      12.189  13.187  18.243  0.00  0.00    +0.000 OA
ENDBRANCH  17  20
ENDBRANCH   1  17
BRANCH  10  21
ATOM     21  C   UNL     1       5.338  14.778  24.336  0.00  0.00    +0.000 C 
ATOM     22  O   UNL     1       5.549  15.643  25.229  0.00  0.00    +0.000 OA
BRANCH  21  23
ATOM     23  O   UNL     1       5.028  13.464  24.557  0.00  0.00    +0.000 OA
BRANCH  23  24
ATOM     24  N   UNL     1       6.063  12.787  25.378  0.00  0.00    +0.000 NA
ATOM     25  C   UNL     1       5.432  12.321  26.620  0.00  0.00    +0.000 C 
ATOM     26  C   UNL     1       6.431  11.628  24.560  0.00  0.00    +0.000 C 
ENDBRANCH  23  24
ENDBRANCH  21  23
ENDBRANCH  10  21
BRANCH  11  27
ATOM     27  C   UNL     1       3.165  15.592  22.143  0.00  0.00    +0.000 C 
ATOM     28  O   UNL     1       2.336  14.716  22.348  0.00  0.00    +0.000 OA
BRANCH  27  29
ATOM     29  O   UNL     1       2.903  16.939  22.018  0.00  0.00    +0.000 OA
BRANCH  29  30
ATOM     30  N   UNL     1       1.572  17.190  21.446  0.00  0.00    +0.000 NA
ATOM     31  C   UNL     1       0.940  18.274  22.207  0.00  0.00    +0.000 C 
ATOM     32  C   UNL     1       1.856  17.645  20.084  0.00  0.00    +0.000 C 
ENDBRANCH  29  30
ENDBRANCH  27  29
ENDBRANCH  11  27
TORSDOF 8
ENDMDL
MODEL 9
REMARK VINA RESULT:      -5.4      3.251      8.430
REMARK  Name = 
REMARK  15 active torsions:
REMARK  status: ('A' for Active; 'I' for Inactive)
REMARK    1  A    between atoms: C_1  and  O_2
REMARK    2  A    between atoms: O_2  and  C_3
REMARK    3  A    between atoms: C_3  and  C_5
REMARK    4  A    between atoms: C_5  and  C_6
REMARK    5  A    between atoms: C_10  and  C_11
REMARK    6  A    between atoms: C_14  and  C_15
REMARK    7  A    between atoms: C_15  and  O_17
REMARK    8  A    between atoms: O_17  and  N_18
REMARK    9  A    between atoms: N_18  and  C_19
REMARK   10  A    between atoms: N_18  and  C_20
REMARK   11  A    between atoms: C_21  and  C_22
REMARK   12  A    between atoms: C_22  and  O_24
REMARK   13  A    between atoms: O_24  and  N_25
REMARK   14  A    between atoms: N_25  and  C_26
REMARK   15  A    between atoms: N_25  and  C_27
REMARK                            x       y       z     vdW  Elec       q    Type
REMARK                         _______ _______ _______ _____ _____    ______ ____
ROOT
ATOM      1  C   UNL     1       0.496  12.046  20.881  0.00  0.00    +0.000 C 
ATOM      2  C   UNL     1       1.899  12.711  21.084  0.00  0.00    +0.000 C 
ATOM      3  C   UNL     1       0.314  10.954  21.942  0.00  0.00    +0.000 C 
ATOM      4  C   UNL     1      -0.402   9.678  21.495  0.00  0.00    +0.000 C 
ATOM      5  C   UNL     1      -0.596   9.126  20.081  0.00  0.00    +0.000 C 
ATOM      6  C   UNL     1       0.120   9.887  18.959  0.00  0.00    +0.000 C 
ATOM      7  C   UNL     1      -0.821   9.838  17.703  0.00  0.00    +0.000 C 
ATOM      8  C   UNL     1       1.363   9.048  18.488  0.00  0.00    +0.000 A 
ATOM      9  C   UNL     1       1.359   7.623  18.486  0.00  0.00    +0.000 A 
ATOM     10  C   UNL     1       2.461   6.817  18.126  0.00  0.00    +0.000 A 
ATOM     11  C   UNL     1       3.565   7.448  17.546  0.00  0.00    +0.000 A 
ATOM     12  C   UNL     1       3.552   8.877  17.459  0.00  0.00    +0.000 A 
ATOM     13  C   UNL     1       2.482   9.679  17.958  0.00  0.00    +0.000 A 
ATOM     14  C   UNL     1       2.464  11.144  17.828  0.00  0.00    +0.000 C 
ATOM     15  C   UNL     1       1.528  11.937  18.412  0.00  0.00    +0.000 C 
ATOM     16  C   UNL     1       0.371  11.480  19.320  0.00  0.00    +0.000 C 
ENDROOT
BRANCH   1  17
ATOM     17  C   UNL     1      -0.405  13.198  21.529  0.00  0.00    +0.000 C 
ATOM     18  O   UNL     1      -0.653  13.181  22.734  0.00  0.00    +0.000 OA
BRANCH  17  20
ATOM     19  C   UNL     1      -2.471  14.042  20.864  0.00  0.00    +0.000 C 
ATOM     20  O   UNL     1      -1.016  14.095  20.716  0.00  0.00    +0.000 OA
ENDBRANCH  17  20
ENDBRANCH   1  17
BRANCH  10  21
ATOM     21  C   UNL     1       2.321   5.372  18.493  0.00  0.00    +0.000 C 
ATOM     22  O   UNL     1       1.637   4.562  17.811  0.00  0.00    +0.000 OA
BRANCH  21  23
ATOM     23  O   UNL     1       2.890   5.107  19.709  0.00  0.00    +0.000 OA
BRANCH  23  24
ATOM     24  N   UNL     1       2.627   3.713  20.145  0.00  0.00    +0.000 NA
ATOM     25  C   UNL     1       3.879   2.952  20.031  0.00  0.00    +0.000 C 
ATOM     26  C   UNL     1       2.283   3.865  21.561  0.00  0.00    +0.000 C 
ENDBRANCH  23  24
ENDBRANCH  21  23
ENDBRANCH  10  21
BRANCH  11  27
ATOM     27  C   UNL     1       4.719   6.743  16.893  0.00  0.00    +0.000 C 
ATOM     28  O   UNL     1       4.810   6.641  15.677  0.00  0.00    +0.000 OA
BRANCH  27  29
ATOM     29  O   UNL     1       5.566   6.172  17.817  0.00  0.00    +0.000 OA
BRANCH  29  30
ATOM     30  N   UNL     1       6.955   6.126  17.338  0.00  0.00    +0.000 NA
ATOM     31  C   UNL     1       7.754   7.053  18.146  0.00  0.00    +0.000 C 
ATOM     32  C   UNL     1       7.374   4.750  17.609  0.00  0.00    +0.000 C 
ENDBRANCH  29  30
ENDBRANCH  27  29
ENDBRANCH  11  27
TORSDOF 8
ENDMDL
