MODEL 1
REMARK VINA RESULT:      -7.0      0.000      0.000
REMARK  Name = 
REMARK  6 active torsions:
REMARK  status: ('A' for Active; 'I' for Inactive)
REMARK    1  A    between atoms: C_1  and  N_2
REMARK    2  A    between atoms: N_2  and  C_3
REMARK    3  A    between atoms: C_3  and  C_4
REMARK    4  A    between atoms: C_4  and  N_5
REMARK    5  A    between atoms: N_5  and  C_6
REMARK    6  A    between atoms: C_8  and  C_9
REMARK                            x       y       z     vdW  Elec       q    Type
REMARK                         _______ _______ _______ _____ _____    ______ ____
ROOT
ATOM      1  C   UNL     1       3.140   4.495  17.432  0.00  0.00    +0.000 A 
ATOM      2  N   UNL     1       2.450   5.500  18.015  0.00  0.00    +0.000 NA
ATOM      3  C   UNL     1       3.056   6.665  18.294  0.00  0.00    +0.000 A 
ATOM      4  N   UNL     1       4.335   6.957  18.042  0.00  0.00    +0.000 NA
ATOM      5  C   UNL     1       5.046   5.962  17.457  0.00  0.00    +0.000 A 
ATOM      6  C   UNL     1       6.423   6.016  17.094  0.00  0.00    +0.000 A 
ATOM      7 BR   UNL     1       7.496   7.543  17.397  0.00  0.00    +0.000 Br
ATOM      8  C   UNL     1       6.884   4.863  16.510  0.00  0.00    +0.000 A 
ATOM      9  S   UNL     1       5.649   3.688  16.400  0.00  0.00    +0.000 S 
ATOM     10  C   UNL     1       4.488   4.729  17.138  0.00  0.00    +0.000 A 
ENDROOT
BRANCH   3  11
ATOM     11  C   UNL     1       2.228   7.714  18.923  0.00  0.00    +0.000 A 
ATOM     12  C   UNL     1       1.848   7.643  20.273  0.00  0.00    +0.000 A 
ATOM     13  C   UNL     1       1.066   8.650  20.817  0.00  0.00    +0.000 A 
ATOM     14  N   UNL     1       0.634   9.720  20.122  0.00  0.00    +0.000 NA
ATOM     15  C   UNL     1       1.004   9.786  18.828  0.00  0.00    +0.000 A 
ATOM     16  C   UNL     1       1.783   8.830  18.197  0.00  0.00    +0.000 A 
ENDBRANCH   3  11
BRANCH   1  17
ATOM     17  N   UNL     1       2.509   3.279  17.178  0.00  0.00    +0.000 N 
ATOM     18  H   UNL     1       1.635   3.403  16.665  0.00  0.00    +0.000 HD
BRANCH  17  19
ATOM     19  C   UNL     1       2.329   2.397  18.331  0.00  0.00    +0.000 C 
BRANCH  19  20
ATOM     20  C   UNL     1       0.870   2.474  18.837  0.00  0.00    +0.000 C 
BRANCH  20  22
ATOM     21  C   UNL     1       1.367   2.877  21.185  0.00  0.00    +0.000 C 
ATOM     22  N   UNL     1       0.683   3.374  19.994  0.00  0.00    +0.000 NA
ATOM     23  H   UNL     1       1.076   4.284  19.754  0.00  0.00    +0.000 HD
ENDBRANCH  20  22
ENDBRANCH  19  20
ENDBRANCH  17  19
ENDBRANCH   1  17
TORSDOF 5
ENDMDL
MODEL 2
REMARK VINA RESULT:      -7.0      0.056      1.024
REMARK  Name = 
REMARK  6 active torsions:
REMARK  status: ('A' for Active; 'I' for Inactive)
REMARK    1  A    between atoms: C_1  and  N_2
REMARK    2  A    between atoms: N_2  and  C_3
REMARK    3  A    between atoms: C_3  and  C_4
REMARK    4  A    between atoms: C_4  and  N_5
REMARK    5  A    between atoms: N_5  and  C_6
REMARK    6  A    between atoms: C_8  and  C_9
REMARK                            x       y       z     vdW  Elec       q    Type
REMARK                         _______ _______ _______ _____ _____    ______ ____
ROOT
ATOM      1  C   UNL     1       3.100   4.528  17.428  0.00  0.00    +0.000 A 
ATOM      2  N   UNL     1       2.418   5.539  18.008  0.00  0.00    +0.000 NA
ATOM      3  C   UNL     1       3.033   6.698  18.291  0.00  0.00    +0.000 A 
ATOM      4  N   UNL     1       4.317   6.978  18.044  0.00  0.00    +0.000 NA
ATOM      5  C   UNL     1       5.021   5.976  17.461  0.00  0.00    +0.000 A 
ATOM      6  C   UNL     1       6.399   6.017  17.104  0.00  0.00    +0.000 A 
ATOM      7 BR   UNL     1       7.486   7.533  17.412  0.00  0.00    +0.000 Br
ATOM      8  C   UNL     1       6.852   4.859  16.522  0.00  0.00    +0.000 A 
ATOM      9  S   UNL     1       5.606   3.697  16.406  0.00  0.00    +0.000 S 
ATOM     10  C   UNL     1       4.452   4.749  17.140  0.00  0.00    +0.000 A 
ENDROOT
BRANCH   3  11
ATOM     11  C   UNL     1       2.213   7.755  18.916  0.00  0.00    +0.000 A 
ATOM     12  C   UNL     1       1.783   8.879  18.193  0.00  0.00    +0.000 A 
ATOM     13  C   UNL     1       1.019   9.848  18.825  0.00  0.00    +0.000 A 
ATOM     14  N   UNL     1       0.651   9.783  20.119  0.00  0.00    +0.000 NA
ATOM     15  C   UNL     1       1.063   8.701  20.808  0.00  0.00    +0.000 A 
ATOM     16  C   UNL     1       1.828   7.683  20.263  0.00  0.00    +0.000 A 
ENDBRANCH   3  11
BRANCH   1  17
ATOM     17  N   UNL     1       2.459   3.317  17.171  0.00  0.00    +0.000 N 
ATOM     18  H   UNL     1       1.559   3.454  16.707  0.00  0.00    +0.000 HD
BRANCH  17  19
ATOM     19  C   UNL     1       2.339   2.402  18.305  0.00  0.00    +0.000 C 
BRANCH  19  20
ATOM     20  C   UNL     1       0.894   2.418  18.853  0.00  0.00    +0.000 C 
BRANCH  20  22
ATOM     21  C   UNL     1       1.419   3.019  21.152  0.00  0.00    +0.000 C 
ATOM     22  N   UNL     1       0.678   3.386  19.948  0.00  0.00    +0.000 NA
ATOM     23  H   UNL     1       1.007   4.299  19.633  0.00  0.00    +0.000 HD
ENDBRANCH  20  22
ENDBRANCH  19  20
ENDBRANCH  17  19
ENDBRANCH   1  17
TORSDOF 5
ENDMDL
MODEL 3
REMARK VINA RESULT:      -6.9      2.425      4.145
REMARK  Name = 
REMARK  6 active torsions:
REMARK  status: ('A' for Active; 'I' for Inactive)
REMARK    1  A    between atoms: C_1  and  N_2
REMARK    2  A    between atoms: N_2  and  C_3
REMARK    3  A    between atoms: C_3  and  C_4
REMARK    4  A    between atoms: C_4  and  N_5
REMARK    5  A    between atoms: N_5  and  C_6
REMARK    6  A    between atoms: C_8  and  C_9
REMARK                            x       y       z     vdW  Elec       q    Type
REMARK                         _______ _______ _______ _____ _____    ______ ____
ROOT
ATOM      1  C   UNL     1       4.006   5.468  17.409  0.00  0.00    +0.000 A 
ATOM      2  N   UNL     1       3.426   6.627  17.791  0.00  0.00    +0.000 NA
ATOM      3  C   UNL     1       2.572   6.649  18.826  0.00  0.00    +0.000 A 
ATOM      4  N   UNL     1       2.215   5.592  19.563  0.00  0.00    +0.000 NA
ATOM      5  C   UNL     1       2.786   4.418  19.196  0.00  0.00    +0.000 A 
ATOM      6  C   UNL     1       2.568   3.151  19.810  0.00  0.00    +0.000 A 
ATOM      7 BR   UNL     1       1.398   2.919  21.278  0.00  0.00    +0.000 Br
ATOM      8  C   UNL     1       3.283   2.130  19.236  0.00  0.00    +0.000 A 
ATOM      9  S   UNL     1       4.230   2.695  17.931  0.00  0.00    +0.000 S 
ATOM     10  C   UNL     1       3.679   4.318  18.135  0.00  0.00    +0.000 A 
ENDROOT
BRANCH   3  11
ATOM     11  C   UNL     1       1.989   7.957  19.185  0.00  0.00    +0.000 A 
ATOM     12  C   UNL     1       1.523   8.226  20.482  0.00  0.00    +0.000 A 
ATOM     13  C   UNL     1       0.979   9.468  20.769  0.00  0.00    +0.000 A 
ATOM     14  N   UNL     1       0.865  10.462  19.866  0.00  0.00    +0.000 NA
ATOM     15  C   UNL     1       1.317  10.201  18.624  0.00  0.00    +0.000 A 
ATOM     16  C   UNL     1       1.875   8.991  18.243  0.00  0.00    +0.000 A 
ENDBRANCH   3  11
BRANCH   1  17
ATOM     17  N   UNL     1       4.865   5.453  16.311  0.00  0.00    +0.000 N 
ATOM     18  H   UNL     1       4.830   4.563  15.812  0.00  0.00    +0.000 HD
BRANCH  17  19
ATOM     19  C   UNL     1       6.244   5.865  16.571  0.00  0.00    +0.000 C 
BRANCH  19  20
ATOM     20  C   UNL     1       7.160   4.624  16.673  0.00  0.00    +0.000 C 
BRANCH  20  22
ATOM     21  C   UNL     1       7.550   5.568  18.882  0.00  0.00    +0.000 C 
ATOM     22  N   UNL     1       7.719   4.399  18.022  0.00  0.00    +0.000 NA
ATOM     23  H   UNL     1       7.221   3.615  18.444  0.00  0.00    +0.000 HD
ENDBRANCH  20  22
ENDBRANCH  19  20
ENDBRANCH  17  19
ENDBRANCH   1  17
TORSDOF 5
ENDMDL
MODEL 4
REMARK VINA RESULT:      -6.9      2.414      4.252
REMARK  Name = 
REMARK  6 active torsions:
REMARK  status: ('A' for Active; 'I' for Inactive)
REMARK    1  A    between atoms: C_1  and  N_2
REMARK    2  A    between atoms: N_2  and  C_3
REMARK    3  A    between atoms: C_3  and  C_4
REMARK    4  A    between atoms: C_4  and  N_5
REMARK    5  A    between atoms: N_5  and  C_6
REMARK    6  A    between atoms: C_8  and  C_9
REMARK                            x       y       z     vdW  Elec       q    Type
REMARK                         _______ _______ _______ _____ _____    ______ ____
ROOT
ATOM      1  C   UNL     1       4.044   5.504  17.385  0.00  0.00    +0.000 A 
ATOM      2  N   UNL     1       3.456   6.662  17.757  0.00  0.00    +0.000 NA
ATOM      3  C   UNL     1       2.587   6.683  18.780  0.00  0.00    +0.000 A 
ATOM      4  N   UNL     1       2.222   5.626  19.513  0.00  0.00    +0.000 NA
ATOM      5  C   UNL     1       2.801   4.453  19.155  0.00  0.00    +0.000 A 
ATOM      6  C   UNL     1       2.577   3.186  19.768  0.00  0.00    +0.000 A 
ATOM      7 BR   UNL     1       1.387   2.954  21.219  0.00  0.00    +0.000 Br
ATOM      8  C   UNL     1       3.303   2.166  19.206  0.00  0.00    +0.000 A 
ATOM      9  S   UNL     1       4.267   2.732  17.914  0.00  0.00    +0.000 S 
ATOM     10  C   UNL     1       3.709   4.353  18.107  0.00  0.00    +0.000 A 
ENDROOT
BRANCH   3  11
ATOM     11  C   UNL     1       1.996   7.990  19.128  0.00  0.00    +0.000 A 
ATOM     12  C   UNL     1       1.879   9.021  18.182  0.00  0.00    +0.000 A 
ATOM     13  C   UNL     1       1.322  10.234  18.558  0.00  0.00    +0.000 A 
ATOM     14  N   UNL     1       0.873  10.498  19.800  0.00  0.00    +0.000 NA
ATOM     15  C   UNL     1       0.984   9.504  20.703  0.00  0.00    +0.000 A 
ATOM     16  C   UNL     1       1.526   8.261  20.422  0.00  0.00    +0.000 A 
ENDBRANCH   3  11
BRANCH   1  17
ATOM     17  N   UNL     1       4.919   5.489  16.299  0.00  0.00    +0.000 N 
ATOM     18  H   UNL     1       4.885   4.602  15.795  0.00  0.00    +0.000 HD
BRANCH  17  19
ATOM     19  C   UNL     1       6.297   5.891  16.581  0.00  0.00    +0.000 C 
BRANCH  19  20
ATOM     20  C   UNL     1       7.200   4.643  16.703  0.00  0.00    +0.000 C 
BRANCH  20  22
ATOM     21  C   UNL     1       7.472   5.546  18.946  0.00  0.00    +0.000 C 
ATOM     22  N   UNL     1       7.717   4.406  18.068  0.00  0.00    +0.000 NA
ATOM     23  H   UNL     1       7.232   3.594  18.452  0.00  0.00    +0.000 HD
ENDBRANCH  20  22
ENDBRANCH  19  20
ENDBRANCH  17  19
ENDBRANCH   1  17
TORSDOF 5
ENDMDL
MODEL 5
REMARK VINA RESULT:      -6.7      2.480      4.581
REMARK  Name = 
REMARK  6 active torsions:
REMARK  status: ('A' for Active; 'I' for Inactive)
REMARK    1  A    between atoms: C_1  and  N_2
REMARK    2  A    between atoms: N_2  and  C_3
REMARK    3  A    between atoms: C_3  and  C_4
REMARK    4  A    between atoms: C_4  and  N_5
REMARK    5  A    between atoms: N_5  and  C_6
REMARK    6  A    between atoms: C_8  and  C_9
REMARK                            x       y       z     vdW  Elec       q    Type
REMARK                         _______ _______ _______ _____ _____    ______ ____
ROOT
ATOM      1  C   UNL     1       3.793   6.127  17.849  0.00  0.00    +0.000 A 
ATOM      2  N   UNL     1       3.133   7.174  18.390  0.00  0.00    +0.000 NA
ATOM      3  C   UNL     1       2.333   6.996  19.454  0.00  0.00    +0.000 A 
ATOM      4  N   UNL     1       2.109   5.832  20.072  0.00  0.00    +0.000 NA
ATOM      5  C   UNL     1       2.763   4.767  19.545  0.00  0.00    +0.000 A 
ATOM      6  C   UNL     1       2.689   3.423  20.011  0.00  0.00    +0.000 A 
ATOM      7 BR   UNL     1       1.620   2.914  21.486  0.00  0.00    +0.000 Br
ATOM      8  C   UNL     1       3.462   2.547  19.291  0.00  0.00    +0.000 A 
ATOM      9  S   UNL     1       4.287   3.346  18.027  0.00  0.00    +0.000 S 
ATOM     10  C   UNL     1       3.606   4.875  18.445  0.00  0.00    +0.000 A 
ENDROOT
BRANCH   3  11
ATOM     11  C   UNL     1       1.656   8.194  19.989  0.00  0.00    +0.000 A 
ATOM     12  C   UNL     1       1.325   9.283  19.166  0.00  0.00    +0.000 A 
ATOM     13  C   UNL     1       0.694  10.388  19.716  0.00  0.00    +0.000 A 
ATOM     14  N   UNL     1       0.367  10.491  21.018  0.00  0.00    +0.000 NA
ATOM     15  C   UNL     1       0.682   9.442  21.803  0.00  0.00    +0.000 A 
ATOM     16  C   UNL     1       1.312   8.297  21.345  0.00  0.00    +0.000 A 
ENDBRANCH   3  11
BRANCH   1  17
ATOM     17  N   UNL     1       4.593   6.320  16.724  0.00  0.00    +0.000 N 
ATOM     18  H   UNL     1       4.581   5.508  16.105  0.00  0.00    +0.000 HD
BRANCH  17  19
ATOM     19  C   UNL     1       5.960   6.774  16.980  0.00  0.00    +0.000 C 
BRANCH  19  20
ATOM     20  C   UNL     1       6.966   5.649  16.648  0.00  0.00    +0.000 C 
BRANCH  20  22
ATOM     21  C   UNL     1       6.686   4.395  14.582  0.00  0.00    +0.000 C 
ATOM     22  N   UNL     1       7.310   5.554  15.214  0.00  0.00    +0.000 NA
ATOM     23  H   UNL     1       6.967   6.397  14.751  0.00  0.00    +0.000 HD
ENDBRANCH  20  22
ENDBRANCH  19  20
ENDBRANCH  17  19
ENDBRANCH   1  17
TORSDOF 5
ENDMDL
MODEL 6
REMARK VINA RESULT:      -6.6      2.502      4.473
REMARK  Name = 
REMARK  6 active torsions:
REMARK  status: ('A' for Active; 'I' for Inactive)
REMARK    1  A    between atoms: C_1  and  N_2
REMARK    2  A    between atoms: N_2  and  C_3
REMARK    3  A    between atoms: C_3  and  C_4
REMARK    4  A    between atoms: C_4  and  N_5
REMARK    5  A    between atoms: N_5  and  C_6
REMARK    6  A    between atoms: C_8  and  C_9
REMARK                            x       y       z     vdW  Elec       q    Type
REMARK                         _______ _______ _______ _____ _____    ______ ____
ROOT
ATOM      1  C   UNL     1       3.784   5.914  17.710  0.00  0.00    +0.000 A 
ATOM      2  N   UNL     1       3.167   6.988  18.250  0.00  0.00    +0.000 NA
ATOM      3  C   UNL     1       2.364   6.844  19.316  0.00  0.00    +0.000 A 
ATOM      4  N   UNL     1       2.096   5.692  19.938  0.00  0.00    +0.000 NA
ATOM      5  C   UNL     1       2.705   4.601  19.412  0.00  0.00    +0.000 A 
ATOM      6  C   UNL     1       2.580   3.262  19.883  0.00  0.00    +0.000 A 
ATOM      7 BR   UNL     1       1.496   2.800  21.361  0.00  0.00    +0.000 Br
ATOM      8  C   UNL     1       3.316   2.354  19.163  0.00  0.00    +0.000 A 
ATOM      9  S   UNL     1       4.169   3.116  17.895  0.00  0.00    +0.000 S 
ATOM     10  C   UNL     1       3.550   4.672  18.310  0.00  0.00    +0.000 A 
ENDROOT
BRANCH   3  11
ATOM     11  C   UNL     1       1.736   8.069  19.849  0.00  0.00    +0.000 A 
ATOM     12  C   UNL     1       1.443   8.213  21.215  0.00  0.00    +0.000 A 
ATOM     13  C   UNL     1       0.848   9.380  21.668  0.00  0.00    +0.000 A 
ATOM     14  N   UNL     1       0.523  10.413  20.867  0.00  0.00    +0.000 NA
ATOM     15  C   UNL     1       0.809  10.273  19.558  0.00  0.00    +0.000 A 
ATOM     16  C   UNL     1       1.402   9.146  19.013  0.00  0.00    +0.000 A 
ENDBRANCH   3  11
BRANCH   1  17
ATOM     17  N   UNL     1       4.589   6.072  16.583  0.00  0.00    +0.000 N 
ATOM     18  H   UNL     1       4.531   5.266  15.958  0.00  0.00    +0.000 HD
BRANCH  17  19
ATOM     19  C   UNL     1       5.978   6.453  16.835  0.00  0.00    +0.000 C 
BRANCH  19  20
ATOM     20  C   UNL     1       6.930   5.321  16.385  0.00  0.00    +0.000 C 
BRANCH  20  22
ATOM     21  C   UNL     1       6.634   4.362  14.168  0.00  0.00    +0.000 C 
ATOM     22  N   UNL     1       7.309   5.388  14.958  0.00  0.00    +0.000 NA
ATOM     23  H   UNL     1       7.033   6.303  14.600  0.00  0.00    +0.000 HD
ENDBRANCH  20  22
ENDBRANCH  19  20
ENDBRANCH  17  19
ENDBRANCH   1  17
TORSDOF 5
ENDMDL
MODEL 7
REMARK VINA RESULT:      -6.6      1.115      1.694
REMARK  Name = 
REMARK  6 active torsions:
REMARK  status: ('A' for Active; 'I' for Inactive)
REMARK    1  A    between atoms: C_1  and  N_2
REMARK    2  A    between atoms: N_2  and  C_3
REMARK    3  A    between atoms: C_3  and  C_4
REMARK    4  A    between atoms: C_4  and  N_5
REMARK    5  A    between atoms: N_5  and  C_6
REMARK    6  A    between atoms: C_8  and  C_9
REMARK                            x       y       z     vdW  Elec       q    Type
REMARK                         _______ _______ _______ _____ _____    ______ ____
ROOT
ATOM      1  C   UNL     1       3.257   4.647  17.320  0.00  0.00    +0.000 A 
ATOM      2  N   UNL     1       2.531   5.638  17.882  0.00  0.00    +0.000 NA
ATOM      3  C   UNL     1       3.106   6.814  18.181  0.00  0.00    +0.000 A 
ATOM      4  N   UNL     1       4.387   7.130  17.970  0.00  0.00    +0.000 NA
ATOM      5  C   UNL     1       5.135   6.148  17.407  0.00  0.00    +0.000 A 
ATOM      6  C   UNL     1       6.521   6.227  17.087  0.00  0.00    +0.000 A 
ATOM      7 BR   UNL     1       7.556   7.773  17.426  0.00  0.00    +0.000 Br
ATOM      8  C   UNL     1       7.021   5.084  16.517  0.00  0.00    +0.000 A 
ATOM      9  S   UNL     1       5.811   3.887  16.367  0.00  0.00    +0.000 S 
ATOM     10  C   UNL     1       4.609   4.906  17.069  0.00  0.00    +0.000 A 
ENDROOT
BRANCH   3  11
ATOM     11  C   UNL     1       2.240   7.847  18.785  0.00  0.00    +0.000 A 
ATOM     12  C   UNL     1       1.742   8.922  18.032  0.00  0.00    +0.000 A 
ATOM     13  C   UNL     1       0.937   9.871  18.644  0.00  0.00    +0.000 A 
ATOM     14  N   UNL     1       0.590   9.830  19.945  0.00  0.00    +0.000 NA
ATOM     15  C   UNL     1       1.067   8.794  20.662  0.00  0.00    +0.000 A 
ATOM     16  C   UNL     1       1.877   7.799  20.139  0.00  0.00    +0.000 A 
ENDBRANCH   3  11
BRANCH   1  17
ATOM     17  N   UNL     1       2.656   3.420  17.045  0.00  0.00    +0.000 N 
ATOM     18  H   UNL     1       1.771   3.532  16.547  0.00  0.00    +0.000 HD
BRANCH  17  19
ATOM     19  C   UNL     1       2.518   2.506  18.178  0.00  0.00    +0.000 C 
BRANCH  19  20
ATOM     20  C   UNL     1       3.645   1.448  18.150  0.00  0.00    +0.000 C 
BRANCH  20  22
ATOM     21  C   UNL     1       4.264   2.636  20.181  0.00  0.00    +0.000 C 
ATOM     22  N   UNL     1       4.519   1.469  19.341  0.00  0.00    +0.000 NA
ATOM     23  H   UNL     1       4.326   0.630  19.889  0.00  0.00    +0.000 HD
ENDBRANCH  20  22
ENDBRANCH  19  20
ENDBRANCH  17  19
ENDBRANCH   1  17
TORSDOF 5
ENDMDL
MODEL 8
REMARK VINA RESULT:      -6.5      2.300      4.364
REMARK  Name = 
REMARK  6 active torsions:
REMARK  status: ('A' for Active; 'I' for Inactive)
REMARK    1  A    between atoms: C_1  and  N_2
REMARK    2  A    between atoms: N_2  and  C_3
REMARK    3  A    between atoms: C_3  and  C_4
REMARK    4  A    between atoms: C_4  and  N_5
REMARK    5  A    between atoms: N_5  and  C_6
REMARK    6  A    between atoms: C_8  and  C_9
REMARK                            x       y       z     vdW  Elec       q    Type
REMARK                         _______ _______ _______ _____ _____    ______ ____
ROOT
ATOM      1  C   UNL     1       4.642   6.368  16.968  0.00  0.00    +0.000 A 
ATOM      2  N   UNL     1       3.914   7.384  17.479  0.00  0.00    +0.000 NA
ATOM      3  C   UNL     1       2.823   7.132  18.219  0.00  0.00    +0.000 A 
ATOM      4  N   UNL     1       2.355   5.918  18.526  0.00  0.00    +0.000 NA
ATOM      5  C   UNL     1       3.071   4.883  18.023  0.00  0.00    +0.000 A 
ATOM      6  C   UNL     1       2.780   3.499  18.196  0.00  0.00    +0.000 A 
ATOM      7 BR   UNL     1       1.290   2.888  19.186  0.00  0.00    +0.000 Br
ATOM      8  C   UNL     1       3.680   2.666  17.580  0.00  0.00    +0.000 A 
ATOM      9  S   UNL     1       4.893   3.555  16.770  0.00  0.00    +0.000 S 
ATOM     10  C   UNL     1       4.211   5.066  17.248  0.00  0.00    +0.000 A 
ENDROOT
BRANCH   3  11
ATOM     11  C   UNL     1       2.089   8.299  18.748  0.00  0.00    +0.000 A 
ATOM     12  C   UNL     1       1.890   9.455  17.976  0.00  0.00    +0.000 A 
ATOM     13  C   UNL     1       1.199  10.528  18.517  0.00  0.00    +0.000 A 
ATOM     14  N   UNL     1       0.692  10.538  19.765  0.00  0.00    +0.000 NA
ATOM     15  C   UNL     1       0.882   9.425  20.501  0.00  0.00    +0.000 A 
ATOM     16  C   UNL     1       1.559   8.305  20.047  0.00  0.00    +0.000 A 
ENDBRANCH   3  11
BRANCH   1  17
ATOM     17  N   UNL     1       5.753   6.643  16.173  0.00  0.00    +0.000 N 
ATOM     18  H   UNL     1       5.636   6.294  15.220  0.00  0.00    +0.000 HD
BRANCH  17  19
ATOM     19  C   UNL     1       7.050   6.255  16.727  0.00  0.00    +0.000 C 
BRANCH  19  20
ATOM     20  C   UNL     1       7.553   7.335  17.712  0.00  0.00    +0.000 C 
BRANCH  20  22
ATOM     21  C   UNL     1       7.504   5.673  19.489  0.00  0.00    +0.000 C 
ATOM     22  N   UNL     1       8.240   6.789  18.902  0.00  0.00    +0.000 NA
ATOM     23  H   UNL     1       9.158   6.452  18.609  0.00  0.00    +0.000 HD
ENDBRANCH  20  22
ENDBRANCH  19  20
ENDBRANCH  17  19
ENDBRANCH   1  17
TORSDOF 5
ENDMDL
MODEL 9
REMARK VINA RESULT:      -6.5      2.339      4.682
REMARK  Name = 
REMARK  6 active torsions:
REMARK  status: ('A' for Active; 'I' for Inactive)
REMARK    1  A    between atoms: C_1  and  N_2
REMARK    2  A    between atoms: N_2  and  C_3
REMARK    3  A    between atoms: C_3  and  C_4
REMARK    4  A    between atoms: C_4  and  N_5
REMARK    5  A    between atoms: N_5  and  C_6
REMARK    6  A    between atoms: C_8  and  C_9
REMARK                            x       y       z     vdW  Elec       q    Type
REMARK                         _______ _______ _______ _____ _____    ______ ____
ROOT
ATOM      1  C   UNL     1       4.573   6.260  17.006  0.00  0.00    +0.000 A 
ATOM      2  N   UNL     1       3.877   7.312  17.487  0.00  0.00    +0.000 NA
ATOM      3  C   UNL     1       2.772   7.116  18.223  0.00  0.00    +0.000 A 
ATOM      4  N   UNL     1       2.259   5.927  18.554  0.00  0.00    +0.000 NA
ATOM      5  C   UNL     1       2.943   4.855  18.081  0.00  0.00    +0.000 A 
ATOM      6  C   UNL     1       2.603   3.487  18.284  0.00  0.00    +0.000 A 
ATOM      7 BR   UNL     1       1.084   2.951  19.274  0.00  0.00    +0.000 Br
ATOM      8  C   UNL     1       3.478   2.609  17.695  0.00  0.00    +0.000 A 
ATOM      9  S   UNL     1       4.728   3.436  16.876  0.00  0.00    +0.000 S 
ATOM     10  C   UNL     1       4.095   4.981  17.312  0.00  0.00    +0.000 A 
ENDROOT
BRANCH   3  11
ATOM     11  C   UNL     1       2.075   8.320  18.718  0.00  0.00    +0.000 A 
ATOM     12  C   UNL     1       1.949   9.474  17.929  0.00  0.00    +0.000 A 
ATOM     13  C   UNL     1       1.290  10.583  18.438  0.00  0.00    +0.000 A 
ATOM     14  N   UNL     1       0.748  10.629  19.671  0.00  0.00    +0.000 NA
ATOM     15  C   UNL     1       0.867   9.517  20.423  0.00  0.00    +0.000 A 
ATOM     16  C   UNL     1       1.507   8.364  20.000  0.00  0.00    +0.000 A 
ENDBRANCH   3  11
BRANCH   1  17
ATOM     17  N   UNL     1       5.700   6.478  16.215  0.00  0.00    +0.000 N 
ATOM     18  H   UNL     1       5.565   6.145  15.259  0.00  0.00    +0.000 HD
BRANCH  17  19
ATOM     19  C   UNL     1       6.972   6.011  16.767  0.00  0.00    +0.000 C 
BRANCH  19  20
ATOM     20  C   UNL     1       7.500   7.019  17.813  0.00  0.00    +0.000 C 
BRANCH  20  22
ATOM     21  C   UNL     1       8.412   9.240  18.212  0.00  0.00    +0.000 C 
ATOM     22  N   UNL     1       7.641   8.398  17.300  0.00  0.00    +0.000 NA
ATOM     23  H   UNL     1       8.135   8.354  16.408  0.00  0.00    +0.000 HD
ENDBRANCH  20  22
ENDBRANCH  19  20
ENDBRANCH  17  19
ENDBRANCH   1  17
TORSDOF 5
ENDMDL
