MODEL 1
REMARK VINA RESULT:      -8.0      0.000      0.000
REMARK  Name = 
REMARK  7 active torsions:
REMARK  status: ('A' for Active; 'I' for Inactive)
REMARK    1  A    between atoms: C_1  and  O_2
REMARK    2  A    between atoms: O_2  and  C_3
REMARK    3  A    between atoms: C_7  and  C_8
REMARK    4  A    between atoms: C_11  and  C_12
REMARK    5  A    between atoms: C_17  and  C_18
REMARK    6  A    between atoms: C_22  and  O_23
REMARK    7  A    between atoms: O_23  and  C_24
REMARK                            x       y       z     vdW  Elec       q    Type
REMARK                         _______ _______ _______ _____ _____    ______ ____
ROOT
ATOM      1  C   UNL     1       4.983   5.162  17.362  0.00  0.00    +0.000 C 
ATOM      2  N   UNL     1       4.725   6.076  16.482  0.00  0.00    +0.000 NA
ATOM      3  O   UNL     1       5.894   6.836  16.282  0.00  0.00    +0.000 OA
ATOM      4  C   UNL     1       6.965   6.258  17.019  0.00  0.00    +0.000 C 
ATOM      5  C   UNL     1       6.387   5.135  17.844  0.00  0.00    +0.000 C 
ENDROOT
BRANCH   4   6
ATOM      6  C   UNL     1       7.691   7.258  17.922  0.00  0.00    +0.000 C 
ATOM      7  O   UNL     1       8.217   6.857  18.959  0.00  0.00    +0.000 OA
ATOM      8  N   UNL     1       7.651   8.563  17.474  0.00  0.00    +0.000 N 
ATOM      9  C   UNL     1       8.376   9.590  18.055  0.00  0.00    +0.000 A 
ATOM     10  C   UNL     1       8.266  10.960  17.706  0.00  0.00    +0.000 A 
ATOM     11  C   UNL     1       9.182  11.598  18.508  0.00  0.00    +0.000 A 
ATOM     12  C   UNL     1       9.620  12.992  18.698  0.00  0.00    +0.000 C 
ATOM     13  O   UNL     1       9.803  10.677  19.285  0.00  0.00    +0.000 OA
ATOM     14  N   UNL     1       9.298   9.428  19.010  0.00  0.00    +0.000 NA
ATOM     15  H   UNL     1       7.052   8.784  16.686  0.00  0.00    +0.000 HD
ENDBRANCH   4   6
BRANCH   1  20
ATOM     16  C   UNL     1       2.316   3.589  19.568  0.00  0.00    +0.000 A 
ATOM     17  C   UNL     1       2.189   2.338  18.943  0.00  0.00    +0.000 A 
ATOM     18  C   UNL     1       2.985   2.002  17.852  0.00  0.00    +0.000 A 
ATOM     19  C   UNL     1       3.883   2.933  17.345  0.00  0.00    +0.000 A 
ATOM     20  C   UNL     1       3.980   4.213  17.916  0.00  0.00    +0.000 A 
ATOM     21  C   UNL     1       3.187   4.558  19.034  0.00  0.00    +0.000 A 
BRANCH  16  23
ATOM     22  C   UNL     1       1.468   2.794  21.630  0.00  0.00    +0.000 C 
ATOM     23  O   UNL     1       1.602   3.872  20.702  0.00  0.00    +0.000 OA
ENDBRANCH  16  23
BRANCH  21  24
ATOM     24  O   UNL     1       3.448   5.789  19.579  0.00  0.00    +0.000 OA
ATOM     25  C   UNL     1       2.523   6.850  19.417  0.00  0.00    +0.000 C 
ENDBRANCH  21  24
ENDBRANCH   1  20
TORSDOF 4
ENDMDL
MODEL 2
REMARK VINA RESULT:      -7.9      1.698      2.099
REMARK  Name = 
REMARK  7 active torsions:
REMARK  status: ('A' for Active; 'I' for Inactive)
REMARK    1  A    between atoms: C_1  and  O_2
REMARK    2  A    between atoms: O_2  and  C_3
REMARK    3  A    between atoms: C_7  and  C_8
REMARK    4  A    between atoms: C_11  and  C_12
REMARK    5  A    between atoms: C_17  and  C_18
REMARK    6  A    between atoms: C_22  and  O_23
REMARK    7  A    between atoms: O_23  and  C_24
REMARK                            x       y       z     vdW  Elec       q    Type
REMARK                         _______ _______ _______ _____ _____    ______ ____
ROOT
ATOM      1  C   UNL     1       5.531   4.728  18.161  0.00  0.00    +0.000 C 
ATOM      2  N   UNL     1       6.338   4.190  17.304  0.00  0.00    +0.000 NA
ATOM      3  O   UNL     1       7.556   4.898  17.342  0.00  0.00    +0.000 OA
ATOM      4  C   UNL     1       7.507   5.865  18.385  0.00  0.00    +0.000 C 
ATOM      5  C   UNL     1       6.108   5.848  18.947  0.00  0.00    +0.000 C 
ENDROOT
BRANCH   4   6
ATOM      6  C   UNL     1       7.873   7.277  17.921  0.00  0.00    +0.000 C 
ATOM      7  O   UNL     1       7.622   7.612  16.764  0.00  0.00    +0.000 OA
ATOM      8  N   UNL     1       8.499   8.048  18.880  0.00  0.00    +0.000 N 
ATOM      9  C   UNL     1       8.765   9.398  18.719  0.00  0.00    +0.000 A 
ATOM     10  C   UNL     1       9.515  10.191  19.623  0.00  0.00    +0.000 A 
ATOM     11  C   UNL     1       9.495  11.452  19.078  0.00  0.00    +0.000 A 
ATOM     12  C   UNL     1      10.047  12.766  19.452  0.00  0.00    +0.000 C 
ATOM     13  O   UNL     1       8.781  11.423  17.926  0.00  0.00    +0.000 OA
ATOM     14  N   UNL     1       8.333  10.144  17.697  0.00  0.00    +0.000 NA
ATOM     15  H   UNL     1       8.788   7.601  19.744  0.00  0.00    +0.000 HD
ENDBRANCH   4   6
BRANCH   1  20
ATOM     16  C   UNL     1       2.392   3.045  19.491  0.00  0.00    +0.000 A 
ATOM     17  C   UNL     1       1.442   3.557  18.593  0.00  0.00    +0.000 A 
ATOM     18  C   UNL     1       1.824   4.398  17.553  0.00  0.00    +0.000 A 
ATOM     19  C   UNL     1       3.155   4.777  17.429  0.00  0.00    +0.000 A 
ATOM     20  C   UNL     1       4.112   4.327  18.356  0.00  0.00    +0.000 A 
ATOM     21  C   UNL     1       3.736   3.460  19.407  0.00  0.00    +0.000 A 
BRANCH  16  23
ATOM     22  C   UNL     1       1.547   2.697  21.674  0.00  0.00    +0.000 C 
ATOM     23  O   UNL     1       2.023   2.138  20.449  0.00  0.00    +0.000 OA
ENDBRANCH  16  23
BRANCH  21  24
ATOM     24  O   UNL     1       4.769   2.994  20.178  0.00  0.00    +0.000 OA
ATOM     25  C   UNL     1       4.942   1.601  20.369  0.00  0.00    +0.000 C 
ENDBRANCH  21  24
ENDBRANCH   1  20
TORSDOF 4
ENDMDL
MODEL 3
REMARK VINA RESULT:      -7.6      3.178      5.237
REMARK  Name = 
REMARK  7 active torsions:
REMARK  status: ('A' for Active; 'I' for Inactive)
REMARK    1  A    between atoms: C_1  and  O_2
REMARK    2  A    between atoms: O_2  and  C_3
REMARK    3  A    between atoms: C_7  and  C_8
REMARK    4  A    between atoms: C_11  and  C_12
REMARK    5  A    between atoms: C_17  and  C_18
REMARK    6  A    between atoms: C_22  and  O_23
REMARK    7  A    between atoms: O_23  and  C_24
REMARK                            x       y       z     vdW  Elec       q    Type
REMARK                         _______ _______ _______ _____ _____    ______ ____
ROOT
ATOM      1  C   UNL     1       5.010   5.292  19.325  0.00  0.00    +0.000 C 
ATOM      2  N   UNL     1       6.121   4.759  19.722  0.00  0.00    +0.000 NA
ATOM      3  O   UNL     1       7.174   5.330  18.980  0.00  0.00    +0.000 OA
ATOM      4  C   UNL     1       6.659   6.368  18.153  0.00  0.00    +0.000 C 
ATOM      5  C   UNL     1       5.157   6.348  18.291  0.00  0.00    +0.000 C 
ENDROOT
BRANCH   4   6
ATOM      6  C   UNL     1       7.055   6.224  16.681  0.00  0.00    +0.000 C 
ATOM      7  O   UNL     1       7.906   6.978  16.213  0.00  0.00    +0.000 OA
ATOM      8  N   UNL     1       6.365   5.241  15.999  0.00  0.00    +0.000 N 
ATOM      9  C   UNL     1       6.682   4.842  14.711  0.00  0.00    +0.000 A 
ATOM     10  C   UNL     1       5.923   3.932  13.933  0.00  0.00    +0.000 A 
ATOM     11  C   UNL     1       6.621   3.815  12.755  0.00  0.00    +0.000 A 
ATOM     12  C   UNL     1       6.446   3.060  11.502  0.00  0.00    +0.000 C 
ATOM     13  O   UNL     1       7.725   4.599  12.818  0.00  0.00    +0.000 OA
ATOM     14  N   UNL     1       7.761   5.245  14.031  0.00  0.00    +0.000 NA
ATOM     15  H   UNL     1       5.579   4.796  16.460  0.00  0.00    +0.000 HD
ENDBRANCH   4   6
BRANCH   1  20
ATOM     16  C   UNL     1       1.873   3.263  20.027  0.00  0.00    +0.000 A 
ATOM     17  C   UNL     1       1.080   4.245  20.641  0.00  0.00    +0.000 A 
ATOM     18  C   UNL     1       1.543   5.549  20.784  0.00  0.00    +0.000 A 
ATOM     19  C   UNL     1       2.825   5.873  20.359  0.00  0.00    +0.000 A 
ATOM     20  C   UNL     1       3.659   4.890  19.800  0.00  0.00    +0.000 A 
ATOM     21  C   UNL     1       3.192   3.565  19.637  0.00  0.00    +0.000 A 
BRANCH  16  23
ATOM     22  C   UNL     1       0.515   1.887  18.662  0.00  0.00    +0.000 C 
ATOM     23  O   UNL     1       1.371   2.009  19.799  0.00  0.00    +0.000 OA
ENDBRANCH  16  23
BRANCH  21  24
ATOM     24  O   UNL     1       4.047   2.721  18.977  0.00  0.00    +0.000 OA
ATOM     25  C   UNL     1       3.938   2.553  17.574  0.00  0.00    +0.000 C 
ENDBRANCH  21  24
ENDBRANCH   1  20
TORSDOF 4
ENDMDL
MODEL 4
REMARK VINA RESULT:      -7.4      3.567      5.826
REMARK  Name = 
REMARK  7 active torsions:
REMARK  status: ('A' for Active; 'I' for Inactive)
REMARK    1  A    between atoms: C_1  and  O_2
REMARK    2  A    between atoms: O_2  and  C_3
REMARK    3  A    between atoms: C_7  and  C_8
REMARK    4  A    between atoms: C_11  and  C_12
REMARK    5  A    between atoms: C_17  and  C_18
REMARK    6  A    between atoms: C_22  and  O_23
REMARK    7  A    between atoms: O_23  and  C_24
REMARK                            x       y       z     vdW  Elec       q    Type
REMARK                         _______ _______ _______ _____ _____    ______ ____
ROOT
ATOM      1  C   UNL     1       5.198   5.095  18.735  0.00  0.00    +0.000 C 
ATOM      2  N   UNL     1       6.183   4.305  19.021  0.00  0.00    +0.000 NA
ATOM      3  O   UNL     1       7.220   4.544  18.099  0.00  0.00    +0.000 OA
ATOM      4  C   UNL     1       6.868   5.645  17.267  0.00  0.00    +0.000 C 
ATOM      5  C   UNL     1       5.450   6.029  17.609  0.00  0.00    +0.000 C 
ENDROOT
BRANCH   4   6
ATOM      6  C   UNL     1       6.986   5.338  15.772  0.00  0.00    +0.000 C 
ATOM      7  O   UNL     1       7.993   5.696  15.164  0.00  0.00    +0.000 OA
ATOM      8  N   UNL     1       5.890   4.692  15.235  0.00  0.00    +0.000 N 
ATOM      9  C   UNL     1       5.861   4.184  13.947  0.00  0.00    +0.000 A 
ATOM     10  C   UNL     1       4.718   3.629  13.319  0.00  0.00    +0.000 A 
ATOM     11  C   UNL     1       5.160   3.234  12.079  0.00  0.00    +0.000 A 
ATOM     12  C   UNL     1       4.549   2.589  10.903  0.00  0.00    +0.000 C 
ATOM     13  O   UNL     1       6.478   3.528  11.967  0.00  0.00    +0.000 OA
ATOM     14  N   UNL     1       6.915   4.126  13.126  0.00  0.00    +0.000 NA
ATOM     15  H   UNL     1       5.060   4.594  15.809  0.00  0.00    +0.000 HD
ENDBRANCH   4   6
BRANCH   1  20
ATOM     16  C   UNL     1       1.982   3.916  20.385  0.00  0.00    +0.000 A 
ATOM     17  C   UNL     1       1.360   5.153  20.619  0.00  0.00    +0.000 A 
ATOM     18  C   UNL     1       1.959   6.340  20.211  0.00  0.00    +0.000 A 
ATOM     19  C   UNL     1       3.209   6.307  19.606  0.00  0.00    +0.000 A 
ATOM     20  C   UNL     1       3.877   5.084  19.421  0.00  0.00    +0.000 A 
ATOM     21  C   UNL     1       3.270   3.871  19.819  0.00  0.00    +0.000 A 
BRANCH  16  23
ATOM     22  C   UNL     1       1.485   2.309  22.050  0.00  0.00    +0.000 C 
ATOM     23  O   UNL     1       1.340   2.747  20.698  0.00  0.00    +0.000 OA
ENDBRANCH  16  23
BRANCH  21  24
ATOM     24  O   UNL     1       3.960   2.735  19.484  0.00  0.00    +0.000 OA
ATOM     25  C   UNL     1       3.511   1.918  18.417  0.00  0.00    +0.000 C 
ENDBRANCH  21  24
ENDBRANCH   1  20
TORSDOF 4
ENDMDL
MODEL 5
REMARK VINA RESULT:      -7.2      4.523      7.037
REMARK  Name = 
REMARK  7 active torsions:
REMARK  status: ('A' for Active; 'I' for Inactive)
REMARK    1  A    between atoms: C_1  and  O_2
REMARK    2  A    between atoms: O_2  and  C_3
REMARK    3  A    between atoms: C_7  and  C_8
REMARK    4  A    between atoms: C_11  and  C_12
REMARK    5  A    between atoms: C_17  and  C_18
REMARK    6  A    between atoms: C_22  and  O_23
REMARK    7  A    between atoms: O_23  and  C_24
REMARK                            x       y       z     vdW  Elec       q    Type
REMARK                         _______ _______ _______ _____ _____    ______ ____
ROOT
ATOM      1  C   UNL     1       2.544   6.782  18.333  0.00  0.00    +0.000 C 
ATOM      2  N   UNL     1       2.779   7.406  17.224  0.00  0.00    +0.000 NA
ATOM      3  O   UNL     1       2.485   8.771  17.417  0.00  0.00    +0.000 OA
ATOM      4  C   UNL     1       2.157   8.994  18.784  0.00  0.00    +0.000 C 
ATOM      5  C   UNL     1       2.111   7.647  19.460  0.00  0.00    +0.000 C 
ENDROOT
BRANCH   4   6
ATOM      6  C   UNL     1       0.826   9.727  18.977  0.00  0.00    +0.000 C 
ATOM      7  O   UNL     1       0.619  10.325  20.031  0.00  0.00    +0.000 OA
ATOM      8  N   UNL     1      -0.048   9.609  17.914  0.00  0.00    +0.000 N 
ATOM      9  C   UNL     1      -1.231  10.322  17.819  0.00  0.00    +0.000 A 
ATOM     10  C   UNL     1      -2.212  10.137  16.813  0.00  0.00    +0.000 A 
ATOM     11  C   UNL     1      -3.182  11.068  17.096  0.00  0.00    +0.000 A 
ATOM     12  C   UNL     1      -4.470  11.458  16.497  0.00  0.00    +0.000 C 
ATOM     13  O   UNL     1      -2.811  11.769  18.196  0.00  0.00    +0.000 OA
ATOM     14  N   UNL     1      -1.601  11.301  18.652  0.00  0.00    +0.000 NA
ATOM     15  H   UNL     1       0.182   8.958  17.171  0.00  0.00    +0.000 HD
ENDBRANCH   4   6
BRANCH   1  20
ATOM     16  C   UNL     1       3.856   3.316  19.182  0.00  0.00    +0.000 A 
ATOM     17  C   UNL     1       2.782   2.531  18.730  0.00  0.00    +0.000 A 
ATOM     18  C   UNL     1       1.675   3.118  18.126  0.00  0.00    +0.000 A 
ATOM     19  C   UNL     1       1.608   4.502  18.010  0.00  0.00    +0.000 A 
ATOM     20  C   UNL     1       2.643   5.308  18.513  0.00  0.00    +0.000 A 
ATOM     21  C   UNL     1       3.779   4.720  19.116  0.00  0.00    +0.000 A 
BRANCH  16  23
ATOM     22  C   UNL     1       4.763   1.695  20.650  0.00  0.00    +0.000 C 
ATOM     23  O   UNL     1       4.985   2.723  19.683  0.00  0.00    +0.000 OA
ENDBRANCH  16  23
BRANCH  21  24
ATOM     24  O   UNL     1       4.775   5.596  19.464  0.00  0.00    +0.000 OA
ATOM     25  C   UNL     1       5.991   5.616  18.737  0.00  0.00    +0.000 C 
ENDBRANCH  21  24
ENDBRANCH   1  20
TORSDOF 4
ENDMDL
MODEL 6
REMARK VINA RESULT:      -7.1      4.501      7.173
REMARK  Name = 
REMARK  7 active torsions:
REMARK  status: ('A' for Active; 'I' for Inactive)
REMARK    1  A    between atoms: C_1  and  O_2
REMARK    2  A    between atoms: O_2  and  C_3
REMARK    3  A    between atoms: C_7  and  C_8
REMARK    4  A    between atoms: C_11  and  C_12
REMARK    5  A    between atoms: C_17  and  C_18
REMARK    6  A    between atoms: C_22  and  O_23
REMARK    7  A    between atoms: O_23  and  C_24
REMARK                            x       y       z     vdW  Elec       q    Type
REMARK                         _______ _______ _______ _____ _____    ______ ____
ROOT
ATOM      1  C   UNL     1       2.254   6.580  19.167  0.00  0.00    +0.000 C 
ATOM      2  N   UNL     1       2.371   6.867  17.910  0.00  0.00    +0.000 NA
ATOM      3  O   UNL     1       2.167   8.253  17.755  0.00  0.00    +0.000 OA
ATOM      4  C   UNL     1       2.029   8.856  19.037  0.00  0.00    +0.000 C 
ATOM      5  C   UNL     1       2.010   7.744  20.056  0.00  0.00    +0.000 C 
ENDROOT
BRANCH   4   6
ATOM      6  C   UNL     1       0.769   9.716  19.171  0.00  0.00    +0.000 C 
ATOM      7  O   UNL     1       0.652  10.460  20.143  0.00  0.00    +0.000 OA
ATOM      8  N   UNL     1      -0.154   9.535  18.160  0.00  0.00    +0.000 N 
ATOM      9  C   UNL     1      -1.280  10.327  18.006  0.00  0.00    +0.000 A 
ATOM     10  C   UNL     1      -2.312  10.096  17.063  0.00  0.00    +0.000 A 
ATOM     11  C   UNL     1      -3.192  11.134  17.250  0.00  0.00    +0.000 A 
ATOM     12  C   UNL     1      -4.469  11.549  16.642  0.00  0.00    +0.000 C 
ATOM     13  O   UNL     1      -2.724  11.937  18.236  0.00  0.00    +0.000 OA
ATOM     14  N   UNL     1      -1.538  11.432  18.714  0.00  0.00    +0.000 NA
ATOM     15  H   UNL     1      -0.005   8.777  17.502  0.00  0.00    +0.000 HD
ENDBRANCH   4   6
BRANCH   1  20
ATOM     16  C   UNL     1       3.353   3.024  19.943  0.00  0.00    +0.000 A 
ATOM     17  C   UNL     1       2.285   2.610  20.756  0.00  0.00    +0.000 A 
ATOM     18  C   UNL     1       1.212   3.459  21.009  0.00  0.00    +0.000 A 
ATOM     19  C   UNL     1       1.219   4.749  20.492  0.00  0.00    +0.000 A 
ATOM     20  C   UNL     1       2.309   5.204  19.730  0.00  0.00    +0.000 A 
ATOM     21  C   UNL     1       3.397   4.344  19.454  0.00  0.00    +0.000 A 
BRANCH  16  23
ATOM     22  C   UNL     1       4.027   1.187  18.611  0.00  0.00    +0.000 C 
ATOM     23  O   UNL     1       4.355   2.149  19.616  0.00  0.00    +0.000 OA
ENDBRANCH  16  23
BRANCH  21  24
ATOM     24  O   UNL     1       4.345   4.855  18.607  0.00  0.00    +0.000 OA
ATOM     25  C   UNL     1       5.621   5.221  19.104  0.00  0.00    +0.000 C 
ENDBRANCH  21  24
ENDBRANCH   1  20
TORSDOF 4
ENDMDL
MODEL 7
REMARK VINA RESULT:      -7.0      4.788      7.632
REMARK  Name = 
REMARK  7 active torsions:
REMARK  status: ('A' for Active; 'I' for Inactive)
REMARK    1  A    between atoms: C_1  and  O_2
REMARK    2  A    between atoms: O_2  and  C_3
REMARK    3  A    between atoms: C_7  and  C_8
REMARK    4  A    between atoms: C_11  and  C_12
REMARK    5  A    between atoms: C_17  and  C_18
REMARK    6  A    between atoms: C_22  and  O_23
REMARK    7  A    between atoms: O_23  and  C_24
REMARK                            x       y       z     vdW  Elec       q    Type
REMARK                         _______ _______ _______ _____ _____    ______ ____
ROOT
ATOM      1  C   UNL     1       2.671   7.551  17.929  0.00  0.00    +0.000 C 
ATOM      2  N   UNL     1       2.818   8.463  17.022  0.00  0.00    +0.000 NA
ATOM      3  O   UNL     1       2.262   9.662  17.510  0.00  0.00    +0.000 OA
ATOM      4  C   UNL     1       1.852   9.477  18.860  0.00  0.00    +0.000 C 
ATOM      5  C   UNL     1       2.043   8.018  19.191  0.00  0.00    +0.000 C 
ENDROOT
BRANCH   4   6
ATOM      6  C   UNL     1       0.400   9.890  19.116  0.00  0.00    +0.000 C 
ATOM      7  O   UNL     1      -0.005   9.972  20.275  0.00  0.00    +0.000 OA
ATOM      8  N   UNL     1      -0.340  10.108  17.971  0.00  0.00    +0.000 N 
ATOM      9  C   UNL     1      -1.619  10.641  17.981  0.00  0.00    +0.000 A 
ATOM     10  C   UNL     1      -2.456  10.762  16.844  0.00  0.00    +0.000 A 
ATOM     11  C   UNL     1      -3.598  11.364  17.315  0.00  0.00    +0.000 A 
ATOM     12  C   UNL     1      -4.876  11.798  16.725  0.00  0.00    +0.000 C 
ATOM     13  O   UNL     1      -3.459  11.592  18.644  0.00  0.00    +0.000 OA
ATOM     14  N   UNL     1      -2.231  11.136  19.062  0.00  0.00    +0.000 NA
ATOM     15  H   UNL     1       0.068   9.855  17.078  0.00  0.00    +0.000 HD
ENDBRANCH   4   6
BRANCH   1  20
ATOM     16  C   UNL     1       4.587   4.386  17.053  0.00  0.00    +0.000 A 
ATOM     17  C   UNL     1       3.628   3.419  17.393  0.00  0.00    +0.000 A 
ATOM     18  C   UNL     1       2.371   3.793  17.858  0.00  0.00    +0.000 A 
ATOM     19  C   UNL     1       2.077   5.140  18.034  0.00  0.00    +0.000 A 
ATOM     20  C   UNL     1       3.045   6.121  17.760  0.00  0.00    +0.000 A 
ATOM     21  C   UNL     1       4.319   5.751  17.273  0.00  0.00    +0.000 A 
BRANCH  16  23
ATOM     22  C   UNL     1       5.813   3.966  15.073  0.00  0.00    +0.000 C 
ATOM     23  O   UNL     1       5.783   4.012  16.500  0.00  0.00    +0.000 OA
ENDBRANCH  16  23
BRANCH  21  24
ATOM     24  O   UNL     1       5.139   6.795  16.931  0.00  0.00    +0.000 OA
ATOM     25  C   UNL     1       6.419   6.920  17.527  0.00  0.00    +0.000 C 
ENDBRANCH  21  24
ENDBRANCH   1  20
TORSDOF 4
ENDMDL
MODEL 8
REMARK VINA RESULT:      -6.9      1.578      2.360
REMARK  Name = 
REMARK  7 active torsions:
REMARK  status: ('A' for Active; 'I' for Inactive)
REMARK    1  A    between atoms: C_1  and  O_2
REMARK    2  A    between atoms: O_2  and  C_3
REMARK    3  A    between atoms: C_7  and  C_8
REMARK    4  A    between atoms: C_11  and  C_12
REMARK    5  A    between atoms: C_17  and  C_18
REMARK    6  A    between atoms: C_22  and  O_23
REMARK    7  A    between atoms: O_23  and  C_24
REMARK                            x       y       z     vdW  Elec       q    Type
REMARK                         _______ _______ _______ _____ _____    ______ ____
ROOT
ATOM      1  C   UNL     1       5.179   5.058  18.672  0.00  0.00    +0.000 C 
ATOM      2  N   UNL     1       5.441   4.548  17.512  0.00  0.00    +0.000 NA
ATOM      3  O   UNL     1       6.731   4.965  17.129  0.00  0.00    +0.000 OA
ATOM      4  C   UNL     1       7.329   5.690  18.199  0.00  0.00    +0.000 C 
ATOM      5  C   UNL     1       6.282   5.850  19.272  0.00  0.00    +0.000 C 
ENDROOT
BRANCH   4   6
ATOM      6  C   UNL     1       7.868   7.059  17.778  0.00  0.00    +0.000 C 
ATOM      7  O   UNL     1       7.867   7.364  16.587  0.00  0.00    +0.000 OA
ATOM      8  N   UNL     1       8.346   7.828  18.821  0.00  0.00    +0.000 N 
ATOM      9  C   UNL     1       8.727   9.152  18.679  0.00  0.00    +0.000 A 
ATOM     10  C   UNL     1       9.338   9.934  19.691  0.00  0.00    +0.000 A 
ATOM     11  C   UNL     1       9.505  11.173  19.119  0.00  0.00    +0.000 A 
ATOM     12  C   UNL     1      10.059  12.465  19.559  0.00  0.00    +0.000 C 
ATOM     13  O   UNL     1       9.026  11.141  17.852  0.00  0.00    +0.000 OA
ATOM     14  N   UNL     1       8.548   9.883  17.573  0.00  0.00    +0.000 NA
ATOM     15  H   UNL     1       8.434   7.398  19.735  0.00  0.00    +0.000 HD
ENDBRANCH   4   6
BRANCH   1  20
ATOM     16  C   UNL     1       2.123   3.597  20.400  0.00  0.00    +0.000 A 
ATOM     17  C   UNL     1       1.383   4.770  20.619  0.00  0.00    +0.000 A 
ATOM     18  C   UNL     1       1.852   6.002  20.176  0.00  0.00    +0.000 A 
ATOM     19  C   UNL     1       3.091   6.082  19.551  0.00  0.00    +0.000 A 
ATOM     20  C   UNL     1       3.876   4.929  19.380  0.00  0.00    +0.000 A 
ATOM     21  C   UNL     1       3.402   3.670  19.814  0.00  0.00    +0.000 A 
BRANCH  16  23
ATOM     22  C   UNL     1       1.281   2.219  22.130  0.00  0.00    +0.000 C 
ATOM     23  O   UNL     1       1.609   2.376  20.749  0.00  0.00    +0.000 OA
ENDBRANCH  16  23
BRANCH  21  24
ATOM     24  O   UNL     1       4.198   2.602  19.490  0.00  0.00    +0.000 OA
ATOM     25  C   UNL     1       3.747   1.633  18.561  0.00  0.00    +0.000 C 
ENDBRANCH  21  24
ENDBRANCH   1  20
TORSDOF 4
ENDMDL
MODEL 9
REMARK VINA RESULT:      -6.8      3.297      6.474
REMARK  Name = 
REMARK  7 active torsions:
REMARK  status: ('A' for Active; 'I' for Inactive)
REMARK    1  A    between atoms: C_1  and  O_2
REMARK    2  A    between atoms: O_2  and  C_3
REMARK    3  A    between atoms: C_7  and  C_8
REMARK    4  A    between atoms: C_11  and  C_12
REMARK    5  A    between atoms: C_17  and  C_18
REMARK    6  A    between atoms: C_22  and  O_23
REMARK    7  A    between atoms: O_23  and  C_24
REMARK                            x       y       z     vdW  Elec       q    Type
REMARK                         _______ _______ _______ _____ _____    ______ ____
ROOT
ATOM      1  C   UNL     1       5.240   4.156  17.359  0.00  0.00    +0.000 C 
ATOM      2  N   UNL     1       5.990   4.149  18.414  0.00  0.00    +0.000 NA
ATOM      3  O   UNL     1       5.155   4.194  19.548  0.00  0.00    +0.000 OA
ATOM      4  C   UNL     1       3.795   4.108  19.136  0.00  0.00    +0.000 C 
ATOM      5  C   UNL     1       3.780   4.149  17.628  0.00  0.00    +0.000 C 
ENDROOT
BRANCH   4   6
ATOM      6  C   UNL     1       2.917   5.226  19.703  0.00  0.00    +0.000 C 
ATOM      7  O   UNL     1       2.393   5.076  20.806  0.00  0.00    +0.000 OA
ATOM      8  N   UNL     1       2.774   6.317  18.869  0.00  0.00    +0.000 N 
ATOM      9  C   UNL     1       2.158   7.496  19.255  0.00  0.00    +0.000 A 
ATOM     10  C   UNL     1       1.881   8.587  18.394  0.00  0.00    +0.000 A 
ATOM     11  C   UNL     1       1.299   9.531  19.206  0.00  0.00    +0.000 A 
ATOM     12  C   UNL     1       0.763  10.890  19.017  0.00  0.00    +0.000 C 
ATOM     13  O   UNL     1       1.232   9.045  20.469  0.00  0.00    +0.000 OA
ATOM     14  N   UNL     1       1.759   7.776  20.501  0.00  0.00    +0.000 NA
ATOM     15  H   UNL     1       3.130   6.249  17.922  0.00  0.00    +0.000 HD
ENDBRANCH   4   6
BRANCH   1  20
ATOM     16  C   UNL     1       7.311   5.007  14.285  0.00  0.00    +0.000 A 
ATOM     17  C   UNL     1       6.571   4.333  13.299  0.00  0.00    +0.000 A 
ATOM     18  C   UNL     1       5.402   3.653  13.625  0.00  0.00    +0.000 A 
ATOM     19  C   UNL     1       4.986   3.598  14.950  0.00  0.00    +0.000 A 
ATOM     20  C   UNL     1       5.746   4.211  15.960  0.00  0.00    +0.000 A 
ATOM     21  C   UNL     1       6.927   4.917  15.637  0.00  0.00    +0.000 A 
BRANCH  16  23
ATOM     22  C   UNL     1       8.591   5.962  12.539  0.00  0.00    +0.000 C 
ATOM     23  O   UNL     1       8.403   5.757  13.941  0.00  0.00    +0.000 OA
ENDBRANCH  16  23
BRANCH  21  24
ATOM     24  O   UNL     1       7.522   5.570  16.685  0.00  0.00    +0.000 OA
ATOM     25  C   UNL     1       7.241   6.939  16.923  0.00  0.00    +0.000 C 
ENDBRANCH  21  24
ENDBRANCH   1  20
TORSDOF 4
ENDMDL
