MODEL 1
REMARK VINA RESULT:      -8.7      0.000      0.000
REMARK  Name = 
REMARK  5 active torsions:
REMARK  status: ('A' for Active; 'I' for Inactive)
REMARK    1  A    between atoms: C_2  and  C_3
REMARK    2  A    between atoms: N_5  and  C_6
REMARK    3  A    between atoms: C_10  and  C_11
REMARK    4  A    between atoms: C_15  and  N_16
REMARK    5  A    between atoms: C_19  and  C_20
REMARK                            x       y       z     vdW  Elec       q    Type
REMARK                         _______ _______ _______ _____ _____    ______ ____
ROOT
ATOM      1  C   UNL     1       2.710   5.699  19.763  0.00  0.00    +0.000 A 
ATOM      2  N   UNL     1       2.014   4.845  20.537  0.00  0.00    +0.000 NA
ATOM      3  C   UNL     1       2.518   3.606  20.664  0.00  0.00    +0.000 A 
ATOM      4  C   UNL     1       3.672   3.189  20.047  0.00  0.00    +0.000 A 
ATOM      5  C   UNL     1       4.345   4.140  19.308  0.00  0.00    +0.000 A 
ATOM      6  N   UNL     1       3.870   5.391  19.165  0.00  0.00    +0.000 NA
ENDROOT
BRANCH   5   7
ATOM      7  N   UNL     1       5.578   3.794  18.715  0.00  0.00    +0.000 N 
ATOM      8  C   UNL     1       6.402   4.673  18.102  0.00  0.00    +0.000 A 
ATOM      9  C   UNL     1       6.629   5.992  18.558  0.00  0.00    +0.000 A 
ATOM     10  C   UNL     1       7.474   6.561  17.638  0.00  0.00    +0.000 A 
ATOM     11  C   UNL     1       8.009   7.932  17.526  0.00  0.00    +0.000 C 
ATOM     12  N   UNL     1       7.752   5.564  16.744  0.00  0.00    +0.000 N 
ATOM     13  N   UNL     1       7.137   4.400  17.023  0.00  0.00    +0.000 NA
ATOM     14  H   UNL     1       5.522   2.888  18.266  0.00  0.00    +0.000 HD
ATOM     15  H   UNL     1       8.344   5.606  15.924  0.00  0.00    +0.000 HD
ENDBRANCH   5   7
BRANCH   1  20
ATOM     16  C   UNL     1       0.770   8.964  20.209  0.00  0.00    +0.000 A 
ATOM     17  C   UNL     1       1.135   9.630  19.038  0.00  0.00    +0.000 A 
ATOM     18  C   UNL     1       1.972   9.025  18.107  0.00  0.00    +0.000 A 
ATOM     19  C   UNL     1       2.465   7.744  18.339  0.00  0.00    +0.000 A 
ATOM     20  C   UNL     1       2.146   7.041  19.515  0.00  0.00    +0.000 A 
ATOM     21  C   UNL     1       1.294   7.681  20.445  0.00  0.00    +0.000 A 
BRANCH  16  24
ATOM     22  C   UNL     1       0.243   9.792  22.495  0.00  0.00    +0.000 C 
ATOM     23  O   UNL     1       1.345   9.648  23.016  0.00  0.00    +0.000 OA
ATOM     24  N   UNL     1      -0.091   9.535  21.179  0.00  0.00    +0.000 N 
ATOM     25  H   UNL     1      -0.999   9.833  20.848  0.00  0.00    +0.000 HD
BRANCH  22  27
ATOM     26  C   UNL     1      -1.461  11.488  22.928  0.00  0.00    +0.000 C 
ATOM     27  C   UNL     1      -0.896  10.328  23.292  0.00  0.00    +0.000 C 
ENDBRANCH  22  27
ENDBRANCH  16  24
ENDBRANCH   1  20
TORSDOF 4
ENDMDL
MODEL 2
REMARK VINA RESULT:      -8.6      2.954      4.501
REMARK  Name = 
REMARK  5 active torsions:
REMARK  status: ('A' for Active; 'I' for Inactive)
REMARK    1  A    between atoms: C_2  and  C_3
REMARK    2  A    between atoms: N_5  and  C_6
REMARK    3  A    between atoms: C_10  and  C_11
REMARK    4  A    between atoms: C_15  and  N_16
REMARK    5  A    between atoms: C_19  and  C_20
REMARK                            x       y       z     vdW  Elec       q    Type
REMARK                         _______ _______ _______ _____ _____    ______ ____
ROOT
ATOM      1  C   UNL     1       5.222   4.793  18.139  0.00  0.00    +0.000 A 
ATOM      2  N   UNL     1       6.265   4.349  18.864  0.00  0.00    +0.000 NA
ATOM      3  C   UNL     1       7.462   4.351  18.254  0.00  0.00    +0.000 A 
ATOM      4  C   UNL     1       7.652   4.765  16.958  0.00  0.00    +0.000 A 
ATOM      5  C   UNL     1       6.538   5.245  16.302  0.00  0.00    +0.000 A 
ATOM      6  N   UNL     1       5.326   5.261  16.887  0.00  0.00    +0.000 NA
ENDROOT
BRANCH   5   7
ATOM      7  N   UNL     1       6.686   5.758  14.996  0.00  0.00    +0.000 N 
ATOM      8  C   UNL     1       6.718   4.999  13.878  0.00  0.00    +0.000 A 
ATOM      9  C   UNL     1       5.915   3.852  13.680  0.00  0.00    +0.000 A 
ATOM     10  C   UNL     1       6.287   3.346  12.459  0.00  0.00    +0.000 A 
ATOM     11  C   UNL     1       5.864   2.129  11.740  0.00  0.00    +0.000 C 
ATOM     12  N   UNL     1       7.216   4.226  11.977  0.00  0.00    +0.000 N 
ATOM     13  N   UNL     1       7.472   5.254  12.808  0.00  0.00    +0.000 NA
ATOM     14  H   UNL     1       7.321   6.546  14.987  0.00  0.00    +0.000 HD
ATOM     15  H   UNL     1       7.718   4.188  11.098  0.00  0.00    +0.000 HD
ENDBRANCH   5   7
BRANCH   1  20
ATOM     16  C   UNL     1       2.077   5.666  20.130  0.00  0.00    +0.000 A 
ATOM     17  C   UNL     1       1.266   4.578  19.802  0.00  0.00    +0.000 A 
ATOM     18  C   UNL     1       1.736   3.566  18.974  0.00  0.00    +0.000 A 
ATOM     19  C   UNL     1       3.025   3.632  18.452  0.00  0.00    +0.000 A 
ATOM     20  C   UNL     1       3.872   4.720  18.733  0.00  0.00    +0.000 A 
ATOM     21  C   UNL     1       3.367   5.735  19.578  0.00  0.00    +0.000 A 
BRANCH  16  24
ATOM     22  C   UNL     1       1.497   8.037  20.614  0.00  0.00    +0.000 C 
ATOM     23  O   UNL     1       1.634   8.506  19.488  0.00  0.00    +0.000 OA
ATOM     24  N   UNL     1       1.646   6.713  20.983  0.00  0.00    +0.000 N 
ATOM     25  H   UNL     1       1.364   6.441  21.915  0.00  0.00    +0.000 HD
BRANCH  22  27
ATOM     26  C   UNL     1      -0.173   8.904  22.171  0.00  0.00    +0.000 C 
ATOM     27  C   UNL     1       1.100   8.918  21.747  0.00  0.00    +0.000 C 
ENDBRANCH  22  27
ENDBRANCH  16  24
ENDBRANCH   1  20
TORSDOF 4
ENDMDL
MODEL 3
REMARK VINA RESULT:      -8.4      3.155      4.059
REMARK  Name = 
REMARK  5 active torsions:
REMARK  status: ('A' for Active; 'I' for Inactive)
REMARK    1  A    between atoms: C_2  and  C_3
REMARK    2  A    between atoms: N_5  and  C_6
REMARK    3  A    between atoms: C_10  and  C_11
REMARK    4  A    between atoms: C_15  and  N_16
REMARK    5  A    between atoms: C_19  and  C_20
REMARK                            x       y       z     vdW  Elec       q    Type
REMARK                         _______ _______ _______ _____ _____    ______ ____
ROOT
ATOM      1  C   UNL     1       2.540   7.270  18.838  0.00  0.00    +0.000 A 
ATOM      2  N   UNL     1       2.284   6.024  19.280  0.00  0.00    +0.000 NA
ATOM      3  C   UNL     1       3.161   5.071  18.923  0.00  0.00    +0.000 A 
ATOM      4  C   UNL     1       4.264   5.309  18.141  0.00  0.00    +0.000 A 
ATOM      5  C   UNL     1       4.475   6.620  17.768  0.00  0.00    +0.000 A 
ATOM      6  N   UNL     1       3.619   7.600  18.114  0.00  0.00    +0.000 NA
ENDROOT
BRANCH   5   7
ATOM      7  N   UNL     1       5.635   6.940  17.031  0.00  0.00    +0.000 N 
ATOM      8  C   UNL     1       6.173   6.149  16.075  0.00  0.00    +0.000 A 
ATOM      9  C   UNL     1       5.410   5.393  15.155  0.00  0.00    +0.000 A 
ATOM     10  C   UNL     1       6.323   4.696  14.403  0.00  0.00    +0.000 A 
ATOM     11  C   UNL     1       6.140   3.691  13.338  0.00  0.00    +0.000 C 
ATOM     12  N   UNL     1       7.546   5.109  14.854  0.00  0.00    +0.000 N 
ATOM     13  N   UNL     1       7.480   6.014  15.848  0.00  0.00    +0.000 NA
ATOM     14  H   UNL     1       6.313   7.416  17.612  0.00  0.00    +0.000 HD
ATOM     15  H   UNL     1       8.462   4.815  14.537  0.00  0.00    +0.000 HD
ENDBRANCH   5   7
BRANCH   1  20
ATOM     16  C   UNL     1      -0.166   9.932  18.384  0.00  0.00    +0.000 A 
ATOM     17  C   UNL     1      -0.358  10.319  19.711  0.00  0.00    +0.000 A 
ATOM     18  C   UNL     1       0.392   9.748  20.733  0.00  0.00    +0.000 A 
ATOM     19  C   UNL     1       1.342   8.773  20.442  0.00  0.00    +0.000 A 
ATOM     20  C   UNL     1       1.556   8.333  19.124  0.00  0.00    +0.000 A 
ATOM     21  C   UNL     1       0.778   8.930  18.104  0.00  0.00    +0.000 A 
BRANCH  16  24
ATOM     22  C   UNL     1      -2.198  10.177  16.970  0.00  0.00    +0.000 C 
ATOM     23  O   UNL     1      -2.953   9.426  17.579  0.00  0.00    +0.000 OA
ATOM     24  N   UNL     1      -0.896  10.496  17.308  0.00  0.00    +0.000 N 
ATOM     25  H   UNL     1      -0.437  11.238  16.798  0.00  0.00    +0.000 HD
BRANCH  22  27
ATOM     26  C   UNL     1      -3.571  10.280  14.952  0.00  0.00    +0.000 C 
ATOM     27  C   UNL     1      -2.672  10.881  15.745  0.00  0.00    +0.000 C 
ENDBRANCH  22  27
ENDBRANCH  16  24
ENDBRANCH   1  20
TORSDOF 4
ENDMDL
MODEL 4
REMARK VINA RESULT:      -8.3      2.983      7.922
REMARK  Name = 
REMARK  5 active torsions:
REMARK  status: ('A' for Active; 'I' for Inactive)
REMARK    1  A    between atoms: C_2  and  C_3
REMARK    2  A    between atoms: N_5  and  C_6
REMARK    3  A    between atoms: C_10  and  C_11
REMARK    4  A    between atoms: C_15  and  N_16
REMARK    5  A    between atoms: C_19  and  C_20
REMARK                            x       y       z     vdW  Elec       q    Type
REMARK                         _______ _______ _______ _____ _____    ______ ____
ROOT
ATOM      1  C   UNL     1       1.397   8.512  20.209  0.00  0.00    +0.000 A 
ATOM      2  N   UNL     1       1.405   8.241  21.527  0.00  0.00    +0.000 NA
ATOM      3  C   UNL     1       0.729   9.092  22.317  0.00  0.00    +0.000 A 
ATOM      4  C   UNL     1       0.061  10.196  21.847  0.00  0.00    +0.000 A 
ATOM      5  C   UNL     1       0.068  10.374  20.479  0.00  0.00    +0.000 A 
ATOM      6  N   UNL     1       0.731   9.538  19.660  0.00  0.00    +0.000 NA
ENDROOT
BRANCH   5   7
ATOM      7  N   UNL     1      -0.667  11.446  19.929  0.00  0.00    +0.000 N 
ATOM      8  C   UNL     1      -1.254  11.424  18.712  0.00  0.00    +0.000 A 
ATOM      9  C   UNL     1      -1.896  10.287  18.167  0.00  0.00    +0.000 A 
ATOM     10  C   UNL     1      -2.304  10.660  16.910  0.00  0.00    +0.000 A 
ATOM     11  C   UNL     1      -2.960   9.893  15.833  0.00  0.00    +0.000 C 
ATOM     12  N   UNL     1      -1.955  11.978  16.798  0.00  0.00    +0.000 N 
ATOM     13  N   UNL     1      -1.344  12.471  17.892  0.00  0.00    +0.000 NA
ATOM     14  H   UNL     1      -0.249  12.335  20.177  0.00  0.00    +0.000 HD
ATOM     15  H   UNL     1      -2.097  12.598  16.011  0.00  0.00    +0.000 HD
ENDBRANCH   5   7
BRANCH   1  20
ATOM     16  C   UNL     1       3.151   5.473  18.689  0.00  0.00    +0.000 A 
ATOM     17  C   UNL     1       3.705   6.053  17.546  0.00  0.00    +0.000 A 
ATOM     18  C   UNL     1       3.538   7.408  17.285  0.00  0.00    +0.000 A 
ATOM     19  C   UNL     1       2.804   8.203  18.160  0.00  0.00    +0.000 A 
ATOM     20  C   UNL     1       2.205   7.661  19.312  0.00  0.00    +0.000 A 
ATOM     21  C   UNL     1       2.391   6.280  19.552  0.00  0.00    +0.000 A 
BRANCH  16  24
ATOM     22  C   UNL     1       4.505   3.479  19.305  0.00  0.00    +0.000 C 
ATOM     23  O   UNL     1       5.601   4.015  19.427  0.00  0.00    +0.000 OA
ATOM     24  N   UNL     1       3.307   4.100  19.004  0.00  0.00    +0.000 N 
ATOM     25  H   UNL     1       2.456   3.559  19.074  0.00  0.00    +0.000 HD
BRANCH  22  27
ATOM     26  C   UNL     1       3.632   1.291  18.656  0.00  0.00    +0.000 C 
ATOM     27  C   UNL     1       4.363   2.011  19.520  0.00  0.00    +0.000 C 
ENDBRANCH  22  27
ENDBRANCH  16  24
ENDBRANCH   1  20
TORSDOF 4
ENDMDL
MODEL 5
REMARK VINA RESULT:      -8.3      1.412      1.581
REMARK  Name = 
REMARK  5 active torsions:
REMARK  status: ('A' for Active; 'I' for Inactive)
REMARK    1  A    between atoms: C_2  and  C_3
REMARK    2  A    between atoms: N_5  and  C_6
REMARK    3  A    between atoms: C_10  and  C_11
REMARK    4  A    between atoms: C_15  and  N_16
REMARK    5  A    between atoms: C_19  and  C_20
REMARK                            x       y       z     vdW  Elec       q    Type
REMARK                         _______ _______ _______ _____ _____    ______ ____
ROOT
ATOM      1  C   UNL     1       2.706   6.464  19.528  0.00  0.00    +0.000 A 
ATOM      2  N   UNL     1       2.037   5.362  19.915  0.00  0.00    +0.000 NA
ATOM      3  C   UNL     1       2.749   4.225  19.991  0.00  0.00    +0.000 A 
ATOM      4  C   UNL     1       4.086   4.146  19.688  0.00  0.00    +0.000 A 
ATOM      5  C   UNL     1       4.704   5.330  19.342  0.00  0.00    +0.000 A 
ATOM      6  N   UNL     1       4.020   6.487  19.261  0.00  0.00    +0.000 NA
ENDROOT
BRANCH   5   7
ATOM      7  N   UNL     1       6.093   5.327  19.096  0.00  0.00    +0.000 N 
ATOM      8  C   UNL     1       6.656   5.026  17.904  0.00  0.00    +0.000 A 
ATOM      9  C   UNL     1       6.113   5.411  16.656  0.00  0.00    +0.000 A 
ATOM     10  C   UNL     1       6.945   4.868  15.708  0.00  0.00    +0.000 A 
ATOM     11  C   UNL     1       6.865   4.859  14.235  0.00  0.00    +0.000 C 
ATOM     12  N   UNL     1       7.946   4.262  16.417  0.00  0.00    +0.000 N 
ATOM     13  N   UNL     1       7.808   4.371  17.751  0.00  0.00    +0.000 NA
ATOM     14  H   UNL     1       6.602   4.979  19.900  0.00  0.00    +0.000 HD
ATOM     15  H   UNL     1       8.746   3.755  16.061  0.00  0.00    +0.000 HD
ENDBRANCH   5   7
BRANCH   1  20
ATOM     16  C   UNL     1       0.425   9.464  20.174  0.00  0.00    +0.000 A 
ATOM     17  C   UNL     1       0.557  10.141  18.960  0.00  0.00    +0.000 A 
ATOM     18  C   UNL     1       1.348   9.624  17.940  0.00  0.00    +0.000 A 
ATOM     19  C   UNL     1       2.028   8.423  18.124  0.00  0.00    +0.000 A 
ATOM     20  C   UNL     1       1.947   7.716  19.337  0.00  0.00    +0.000 A 
ATOM     21  C   UNL     1       1.136   8.266  20.357  0.00  0.00    +0.000 A 
BRANCH  16  24
ATOM     22  C   UNL     1      -0.164  11.114  21.940  0.00  0.00    +0.000 C 
ATOM     23  O   UNL     1       0.699  11.958  21.717  0.00  0.00    +0.000 OA
ATOM     24  N   UNL     1      -0.381   9.945  21.235  0.00  0.00    +0.000 N 
ATOM     25  H   UNL     1      -1.216   9.412  21.438  0.00  0.00    +0.000 HD
BRANCH  22  27
ATOM     26  C   UNL     1      -2.265  12.005  22.812  0.00  0.00    +0.000 C 
ATOM     27  C   UNL     1      -1.138  11.317  23.049  0.00  0.00    +0.000 C 
ENDBRANCH  22  27
ENDBRANCH  16  24
ENDBRANCH   1  20
TORSDOF 4
ENDMDL
MODEL 6
REMARK VINA RESULT:      -8.2      2.761      6.847
REMARK  Name = 
REMARK  5 active torsions:
REMARK  status: ('A' for Active; 'I' for Inactive)
REMARK    1  A    between atoms: C_2  and  C_3
REMARK    2  A    between atoms: N_5  and  C_6
REMARK    3  A    between atoms: C_10  and  C_11
REMARK    4  A    between atoms: C_15  and  N_16
REMARK    5  A    between atoms: C_19  and  C_20
REMARK                            x       y       z     vdW  Elec       q    Type
REMARK                         _______ _______ _______ _____ _____    ______ ____
ROOT
ATOM      1  C   UNL     1       3.003   5.032  18.599  0.00  0.00    +0.000 A 
ATOM      2  N   UNL     1       2.262   3.914  18.481  0.00  0.00    +0.000 NA
ATOM      3  C   UNL     1       1.291   3.741  19.393  0.00  0.00    +0.000 A 
ATOM      4  C   UNL     1       1.041   4.627  20.412  0.00  0.00    +0.000 A 
ATOM      5  C   UNL     1       1.818   5.766  20.433  0.00  0.00    +0.000 A 
ATOM      6  N   UNL     1       2.796   5.972  19.531  0.00  0.00    +0.000 NA
ENDROOT
BRANCH   5   7
ATOM      7  N   UNL     1       1.556   6.751  21.410  0.00  0.00    +0.000 N 
ATOM      8  C   UNL     1       1.240   8.035  21.132  0.00  0.00    +0.000 A 
ATOM      9  C   UNL     1       0.413   8.429  20.054  0.00  0.00    +0.000 A 
ATOM     10  C   UNL     1       0.390   9.802  20.089  0.00  0.00    +0.000 A 
ATOM     11  C   UNL     1      -0.236  10.787  19.185  0.00  0.00    +0.000 C 
ATOM     12  N   UNL     1       1.126  10.144  21.189  0.00  0.00    +0.000 N 
ATOM     13  N   UNL     1       1.627   9.087  21.856  0.00  0.00    +0.000 NA
ATOM     14  H   UNL     1       2.158   6.631  22.214  0.00  0.00    +0.000 HD
ATOM     15  H   UNL     1       1.333  11.070  21.542  0.00  0.00    +0.000 HD
ENDBRANCH   5   7
BRANCH   1  20
ATOM     16  C   UNL     1       6.065   6.530  16.867  0.00  0.00    +0.000 A 
ATOM     17  C   UNL     1       6.349   5.519  15.947  0.00  0.00    +0.000 A 
ATOM     18  C   UNL     1       5.549   4.384  15.869  0.00  0.00    +0.000 A 
ATOM     19  C   UNL     1       4.456   4.240  16.719  0.00  0.00    +0.000 A 
ATOM     20  C   UNL     1       4.143   5.220  17.679  0.00  0.00    +0.000 A 
ATOM     21  C   UNL     1       4.974   6.363  17.736  0.00  0.00    +0.000 A 
BRANCH  16  24
ATOM     22  C   UNL     1       7.846   7.929  17.898  0.00  0.00    +0.000 C 
ATOM     23  O   UNL     1       8.278   7.124  18.717  0.00  0.00    +0.000 OA
ATOM     24  N   UNL     1       6.843   7.710  16.972  0.00  0.00    +0.000 N 
ATOM     25  H   UNL     1       6.684   8.413  16.263  0.00  0.00    +0.000 HD
BRANCH  22  27
ATOM     26  C   UNL     1       9.024   9.824  18.891  0.00  0.00    +0.000 C 
ATOM     27  C   UNL     1       8.434   9.295  17.809  0.00  0.00    +0.000 C 
ENDBRANCH  22  27
ENDBRANCH  16  24
ENDBRANCH   1  20
TORSDOF 4
ENDMDL
MODEL 7
REMARK VINA RESULT:      -8.2      3.382      7.724
REMARK  Name = 
REMARK  5 active torsions:
REMARK  status: ('A' for Active; 'I' for Inactive)
REMARK    1  A    between atoms: C_2  and  C_3
REMARK    2  A    between atoms: N_5  and  C_6
REMARK    3  A    between atoms: C_10  and  C_11
REMARK    4  A    between atoms: C_15  and  N_16
REMARK    5  A    between atoms: C_19  and  C_20
REMARK                            x       y       z     vdW  Elec       q    Type
REMARK                         _______ _______ _______ _____ _____    ______ ____
ROOT
ATOM      1  C   UNL     1       4.192   4.033  19.326  0.00  0.00    +0.000 A 
ATOM      2  N   UNL     1       4.057   2.777  19.791  0.00  0.00    +0.000 NA
ATOM      3  C   UNL     1       3.102   2.581  20.716  0.00  0.00    +0.000 A 
ATOM      4  C   UNL     1       2.293   3.582  21.195  0.00  0.00    +0.000 A 
ATOM      5  C   UNL     1       2.469   4.829  20.632  0.00  0.00    +0.000 A 
ATOM      6  N   UNL     1       3.413   5.058  19.701  0.00  0.00    +0.000 NA
ENDROOT
BRANCH   5   7
ATOM      7  N   UNL     1       1.614   5.880  21.026  0.00  0.00    +0.000 N 
ATOM      8  C   UNL     1       1.612   7.111  20.468  0.00  0.00    +0.000 A 
ATOM      9  C   UNL     1       1.793   7.350  19.085  0.00  0.00    +0.000 A 
ATOM     10  C   UNL     1       1.779   8.716  18.942  0.00  0.00    +0.000 A 
ATOM     11  C   UNL     1       1.990   9.571  17.758  0.00  0.00    +0.000 C 
ATOM     12  N   UNL     1       1.532   9.204  20.195  0.00  0.00    +0.000 N 
ATOM     13  N   UNL     1       1.397   8.247  21.132  0.00  0.00    +0.000 NA
ATOM     14  H   UNL     1       1.473   5.875  22.029  0.00  0.00    +0.000 HD
ATOM     15  H   UNL     1       1.448  10.171  20.486  0.00  0.00    +0.000 HD
ENDBRANCH   5   7
BRANCH   1  20
ATOM     16  C   UNL     1       6.304   4.154  16.141  0.00  0.00    +0.000 A 
ATOM     17  C   UNL     1       7.377   4.929  16.585  0.00  0.00    +0.000 A 
ATOM     18  C   UNL     1       7.431   5.383  17.898  0.00  0.00    +0.000 A 
ATOM     19  C   UNL     1       6.404   5.074  18.786  0.00  0.00    +0.000 A 
ATOM     20  C   UNL     1       5.291   4.317  18.380  0.00  0.00    +0.000 A 
ATOM     21  C   UNL     1       5.262   3.870  17.039  0.00  0.00    +0.000 A 
BRANCH  16  24
ATOM     22  C   UNL     1       6.708   4.287  13.690  0.00  0.00    +0.000 C 
ATOM     23  O   UNL     1       7.365   5.323  13.654  0.00  0.00    +0.000 OA
ATOM     24  N   UNL     1       6.215   3.657  14.817  0.00  0.00    +0.000 N 
ATOM     25  H   UNL     1       5.812   2.735  14.713  0.00  0.00    +0.000 HD
BRANCH  22  27
ATOM     26  C   UNL     1       5.118   3.280  12.132  0.00  0.00    +0.000 C 
ATOM     27  C   UNL     1       6.397   3.557  12.429  0.00  0.00    +0.000 C 
ENDBRANCH  22  27
ENDBRANCH  16  24
ENDBRANCH   1  20
TORSDOF 4
ENDMDL
MODEL 8
REMARK VINA RESULT:      -8.2      3.295      8.301
REMARK  Name = 
REMARK  5 active torsions:
REMARK  status: ('A' for Active; 'I' for Inactive)
REMARK    1  A    between atoms: C_2  and  C_3
REMARK    2  A    between atoms: N_5  and  C_6
REMARK    3  A    between atoms: C_10  and  C_11
REMARK    4  A    between atoms: C_15  and  N_16
REMARK    5  A    between atoms: C_19  and  C_20
REMARK                            x       y       z     vdW  Elec       q    Type
REMARK                         _______ _______ _______ _____ _____    ______ ____
ROOT
ATOM      1  C   UNL     1       3.830   5.763  19.035  0.00  0.00    +0.000 A 
ATOM      2  N   UNL     1       3.272   4.931  19.934  0.00  0.00    +0.000 NA
ATOM      3  C   UNL     1       2.186   5.389  20.579  0.00  0.00    +0.000 A 
ATOM      4  C   UNL     1       1.649   6.636  20.370  0.00  0.00    +0.000 A 
ATOM      5  C   UNL     1       2.256   7.407  19.401  0.00  0.00    +0.000 A 
ATOM      6  N   UNL     1       3.343   6.975  18.733  0.00  0.00    +0.000 NA
ENDROOT
BRANCH   5   7
ATOM      7  N   UNL     1       1.703   8.665  19.086  0.00  0.00    +0.000 N 
ATOM      8  C   UNL     1       0.860   9.351  19.890  0.00  0.00    +0.000 A 
ATOM      9  C   UNL     1       0.979   9.399  21.299  0.00  0.00    +0.000 A 
ATOM     10  C   UNL     1      -0.090  10.143  21.734  0.00  0.00    +0.000 A 
ATOM     11  C   UNL     1      -0.549  10.482  23.096  0.00  0.00    +0.000 C 
ATOM     12  N   UNL     1      -0.735  10.542  20.597  0.00  0.00    +0.000 N 
ATOM     13  N   UNL     1      -0.159  10.098  19.463  0.00  0.00    +0.000 NA
ATOM     14  H   UNL     1       1.484   8.728  18.099  0.00  0.00    +0.000 HD
ATOM     15  H   UNL     1      -1.570  11.109  20.516  0.00  0.00    +0.000 HD
ENDBRANCH   5   7
BRANCH   1  20
ATOM     16  C   UNL     1       6.300   4.514  16.397  0.00  0.00    +0.000 A 
ATOM     17  C   UNL     1       7.495   4.605  17.114  0.00  0.00    +0.000 A 
ATOM     18  C   UNL     1       7.499   5.037  18.435  0.00  0.00    +0.000 A 
ATOM     19  C   UNL     1       6.307   5.394  19.058  0.00  0.00    +0.000 A 
ATOM     20  C   UNL     1       5.081   5.343  18.371  0.00  0.00    +0.000 A 
ATOM     21  C   UNL     1       5.106   4.901  17.028  0.00  0.00    +0.000 A 
BRANCH  16  24
ATOM     22  C   UNL     1       6.917   4.637  13.990  0.00  0.00    +0.000 C 
ATOM     23  O   UNL     1       7.721   5.562  14.040  0.00  0.00    +0.000 OA
ATOM     24  N   UNL     1       6.245   4.065  15.054  0.00  0.00    +0.000 N 
ATOM     25  H   UNL     1       5.720   3.216  14.889  0.00  0.00    +0.000 HD
BRANCH  22  27
ATOM     26  C   UNL     1       5.373   3.497  12.479  0.00  0.00    +0.000 C 
ATOM     27  C   UNL     1       6.603   3.989  12.686  0.00  0.00    +0.000 C 
ENDBRANCH  22  27
ENDBRANCH  16  24
ENDBRANCH   1  20
TORSDOF 4
ENDMDL
MODEL 9
REMARK VINA RESULT:      -8.1      5.360      7.830
REMARK  Name = 
REMARK  5 active torsions:
REMARK  status: ('A' for Active; 'I' for Inactive)
REMARK    1  A    between atoms: C_2  and  C_3
REMARK    2  A    between atoms: N_5  and  C_6
REMARK    3  A    between atoms: C_10  and  C_11
REMARK    4  A    between atoms: C_15  and  N_16
REMARK    5  A    between atoms: C_19  and  C_20
REMARK                            x       y       z     vdW  Elec       q    Type
REMARK                         _______ _______ _______ _____ _____    ______ ____
ROOT
ATOM      1  C   UNL     1       6.495   4.598  14.717  0.00  0.00    +0.000 A 
ATOM      2  N   UNL     1       7.473   5.385  14.233  0.00  0.00    +0.000 NA
ATOM      3  C   UNL     1       7.804   5.205  12.943  0.00  0.00    +0.000 A 
ATOM      4  C   UNL     1       7.208   4.271  12.131  0.00  0.00    +0.000 A 
ATOM      5  C   UNL     1       6.186   3.537  12.695  0.00  0.00    +0.000 A 
ATOM      6  N   UNL     1       5.827   3.697  13.982  0.00  0.00    +0.000 NA
ENDROOT
BRANCH   5   7
ATOM      7  N   UNL     1       5.483   2.617  11.888  0.00  0.00    +0.000 N 
ATOM      8  C   UNL     1       4.404   2.931  11.136  0.00  0.00    +0.000 A 
ATOM      9  C   UNL     1       4.262   4.148  10.429  0.00  0.00    +0.000 A 
ATOM     10  C   UNL     1       3.019   4.096   9.849  0.00  0.00    +0.000 A 
ATOM     11  C   UNL     1       2.275   5.090   9.052  0.00  0.00    +0.000 C 
ATOM     12  N   UNL     1       2.525   2.863  10.174  0.00  0.00    +0.000 N 
ATOM     13  N   UNL     1       3.361   2.126  10.930  0.00  0.00    +0.000 NA
ATOM     14  H   UNL     1       5.434   1.709  12.332  0.00  0.00    +0.000 HD
ATOM     15  H   UNL     1       1.631   2.460   9.922  0.00  0.00    +0.000 HD
ENDBRANCH   5   7
BRANCH   1  20
ATOM     16  C   UNL     1       4.596   4.379  18.028  0.00  0.00    +0.000 A 
ATOM     17  C   UNL     1       5.581   4.828  18.909  0.00  0.00    +0.000 A 
ATOM     18  C   UNL     1       6.830   5.220  18.439  0.00  0.00    +0.000 A 
ATOM     19  C   UNL     1       7.114   5.160  17.077  0.00  0.00    +0.000 A 
ATOM     20  C   UNL     1       6.163   4.692  16.153  0.00  0.00    +0.000 A 
ATOM     21  C   UNL     1       4.902   4.299  16.660  0.00  0.00    +0.000 A 
BRANCH  16  24
ATOM     22  C   UNL     1       2.857   2.680  18.554  0.00  0.00    +0.000 C 
ATOM     23  O   UNL     1       3.512   1.661  18.360  0.00  0.00    +0.000 OA
ATOM     24  N   UNL     1       3.305   3.984  18.461  0.00  0.00    +0.000 N 
ATOM     25  H   UNL     1       2.698   4.724  18.786  0.00  0.00    +0.000 HD
BRANCH  22  27
ATOM     26  C   UNL     1       0.976   3.381  19.946  0.00  0.00    +0.000 C 
ATOM     27  C   UNL     1       1.429   2.582  18.969  0.00  0.00    +0.000 C 
ENDBRANCH  22  27
ENDBRANCH  16  24
ENDBRANCH   1  20
TORSDOF 4
ENDMDL
