MODEL 1
REMARK VINA RESULT:      -7.8      0.000      0.000
REMARK  Name = 
REMARK  3 active torsions:
REMARK  status: ('A' for Active; 'I' for Inactive)
REMARK    1  A    between atoms: C_2  and  C_4
REMARK    2  A    between atoms: C_7  and  N_8
REMARK    3  A    between atoms: C_12  and  C_13
REMARK                            x       y       z     vdW  Elec       q    Type
REMARK                         _______ _______ _______ _____ _____    ______ ____
ROOT
ATOM      1  N   UNL     1       2.406   7.460  18.988  0.00  0.00    +0.000 N 
ATOM      2  C   UNL     1       2.932   6.267  19.426  0.00  0.00    +0.000 A 
ATOM      3  C   UNL     1       4.056   6.122  18.680  0.00  0.00    +0.000 A 
ATOM      4  C   UNL     1       5.112   5.304  19.022  0.00  0.00    +0.000 A 
ATOM      5  C   UNL     1       6.145   5.423  18.075  0.00  0.00    +0.000 A 
ATOM      6  C   UNL     1       5.971   6.101  16.815  0.00  0.00    +0.000 A 
ATOM      7  C   UNL     1       4.845   6.906  16.495  0.00  0.00    +0.000 A 
ATOM      8  C   UNL     1       3.903   6.976  17.535  0.00  0.00    +0.000 A 
ATOM      9  N   UNL     1       2.812   7.749  17.714  0.00  0.00    +0.000 NA
ENDROOT
BRANCH   1  13
ATOM     10  C   UNL     1       0.170  10.151  21.313  0.00  0.00    +0.000 A 
ATOM     11  C   UNL     1       0.349  10.392  19.953  0.00  0.00    +0.000 A 
ATOM     12  C   UNL     1       1.046   9.470  19.189  0.00  0.00    +0.000 A 
ATOM     13  C   UNL     1       1.573   8.300  19.772  0.00  0.00    +0.000 A 
ATOM     14  C   UNL     1       1.272   7.991  21.098  0.00  0.00    +0.000 A 
ATOM     15  C   UNL     1       0.584   8.932  21.875  0.00  0.00    +0.000 A 
BRANCH  10  17
ATOM     16  N   UNL     1       0.034  12.452  21.994  0.00  0.00    +0.000 NA
ATOM     17  C   UNL     1      -0.376  11.239  22.163  0.00  0.00    +0.000 C 
ATOM     18  N   UNL     1      -1.259  10.942  23.160  0.00  0.00    +0.000 N 
ATOM     19  H   UNL     1      -0.442  13.074  22.649  0.00  0.00    +0.000 HD
ATOM     20  H   UNL     1      -1.314  11.616  23.907  0.00  0.00    +0.000 HD
ATOM     21  H   UNL     1      -1.197   9.988  23.521  0.00  0.00    +0.000 HD
ENDBRANCH  10  17
ENDBRANCH   1  13
BRANCH   5  22
ATOM     22  C   UNL     1       7.508   4.972  18.498  0.00  0.00    +0.000 C 
ATOM     23  N   UNL     1       8.234   4.166  17.790  0.00  0.00    +0.000 NA
ATOM     24  N   UNL     1       8.106   5.466  19.619  0.00  0.00    +0.000 N 
ATOM     25  H   UNL     1       7.779   3.913  16.911  0.00  0.00    +0.000 HD
ATOM     26  H   UNL     1       7.535   5.559  20.448  0.00  0.00    +0.000 HD
ATOM     27  H   UNL     1       8.989   4.995  19.793  0.00  0.00    +0.000 HD
ENDBRANCH   5  22
TORSDOF 3
ENDMDL
MODEL 2
REMARK VINA RESULT:      -7.5      1.912      7.974
REMARK  Name = 
REMARK  3 active torsions:
REMARK  status: ('A' for Active; 'I' for Inactive)
REMARK    1  A    between atoms: C_2  and  C_4
REMARK    2  A    between atoms: C_7  and  N_8
REMARK    3  A    between atoms: C_12  and  C_13
REMARK                            x       y       z     vdW  Elec       q    Type
REMARK                         _______ _______ _______ _____ _____    ______ ____
ROOT
ATOM      1  N   UNL     1       2.707   7.043  18.432  0.00  0.00    +0.000 N 
ATOM      2  C   UNL     1       1.989   8.103  17.932  0.00  0.00    +0.000 A 
ATOM      3  C   UNL     1       1.600   8.777  19.045  0.00  0.00    +0.000 A 
ATOM      4  C   UNL     1       1.207  10.098  19.053  0.00  0.00    +0.000 A 
ATOM      5  C   UNL     1       0.925  10.513  20.366  0.00  0.00    +0.000 A 
ATOM      6  C   UNL     1       0.816   9.589  21.467  0.00  0.00    +0.000 A 
ATOM      7  C   UNL     1       1.202   8.224  21.399  0.00  0.00    +0.000 A 
ATOM      8  C   UNL     1       1.702   7.854  20.141  0.00  0.00    +0.000 A 
ATOM      9  N   UNL     1       2.328   6.738  19.710  0.00  0.00    +0.000 NA
ENDROOT
BRANCH   1  13
ATOM     10  C   UNL     1       5.651   5.196  16.071  0.00  0.00    +0.000 A 
ATOM     11  C   UNL     1       5.792   6.533  16.435  0.00  0.00    +0.000 A 
ATOM     12  C   UNL     1       4.839   7.113  17.256  0.00  0.00    +0.000 A 
ATOM     13  C   UNL     1       3.735   6.370  17.720  0.00  0.00    +0.000 A 
ATOM     14  C   UNL     1       3.670   5.000  17.473  0.00  0.00    +0.000 A 
ATOM     15  C   UNL     1       4.623   4.417  16.628  0.00  0.00    +0.000 A 
BRANCH  10  17
ATOM     16  N   UNL     1       7.606   5.296  14.676  0.00  0.00    +0.000 NA
ATOM     17  C   UNL     1       6.544   4.647  15.019  0.00  0.00    +0.000 C 
ATOM     18  N   UNL     1       6.203   3.492  14.377  0.00  0.00    +0.000 N 
ATOM     19  H   UNL     1       8.109   4.782  13.952  0.00  0.00    +0.000 HD
ATOM     20  H   UNL     1       6.620   3.362  13.468  0.00  0.00    +0.000 HD
ATOM     21  H   UNL     1       5.202   3.286  14.362  0.00  0.00    +0.000 HD
ENDBRANCH  10  17
ENDBRANCH   1  13
BRANCH   5  22
ATOM     22  C   UNL     1       0.918  11.987  20.625  0.00  0.00    +0.000 C 
ATOM     23  N   UNL     1       0.374  12.515  21.675  0.00  0.00    +0.000 NA
ATOM     24  N   UNL     1       1.575  12.857  19.807  0.00  0.00    +0.000 N 
ATOM     25  H   UNL     1      -0.010  11.807  22.305  0.00  0.00    +0.000 HD
ATOM     26  H   UNL     1       1.489  12.713  18.810  0.00  0.00    +0.000 HD
ATOM     27  H   UNL     1       1.401  13.818  20.088  0.00  0.00    +0.000 HD
ENDBRANCH   5  22
TORSDOF 3
ENDMDL
MODEL 3
REMARK VINA RESULT:      -7.5      5.991      8.727
REMARK  Name = 
REMARK  3 active torsions:
REMARK  status: ('A' for Active; 'I' for Inactive)
REMARK    1  A    between atoms: C_2  and  C_4
REMARK    2  A    between atoms: C_7  and  N_8
REMARK    3  A    between atoms: C_12  and  C_13
REMARK                            x       y       z     vdW  Elec       q    Type
REMARK                         _______ _______ _______ _____ _____    ______ ____
ROOT
ATOM      1  N   UNL     1       8.532   9.436  18.604  0.00  0.00    +0.000 N 
ATOM      2  C   UNL     1       8.256  10.510  17.791  0.00  0.00    +0.000 A 
ATOM      3  C   UNL     1       9.276  11.369  18.041  0.00  0.00    +0.000 A 
ATOM      4  C   UNL     1       9.654  12.390  17.195  0.00  0.00    +0.000 A 
ATOM      5  C   UNL     1      10.778  13.057  17.711  0.00  0.00    +0.000 A 
ATOM      6  C   UNL     1      11.262  12.846  19.052  0.00  0.00    +0.000 A 
ATOM      7  C   UNL     1      10.815  11.797  19.900  0.00  0.00    +0.000 A 
ATOM      8  C   UNL     1       9.842  10.980  19.302  0.00  0.00    +0.000 A 
ATOM      9  N   UNL     1       9.298   9.803  19.676  0.00  0.00    +0.000 NA
ENDROOT
BRANCH   1  13
ATOM     10  C   UNL     1       6.972   5.598  17.904  0.00  0.00    +0.000 A 
ATOM     11  C   UNL     1       6.772   6.610  16.968  0.00  0.00    +0.000 A 
ATOM     12  C   UNL     1       7.336   7.856  17.189  0.00  0.00    +0.000 A 
ATOM     13  C   UNL     1       8.102   8.109  18.344  0.00  0.00    +0.000 A 
ATOM     14  C   UNL     1       8.420   7.060  19.207  0.00  0.00    +0.000 A 
ATOM     15  C   UNL     1       7.835   5.805  18.994  0.00  0.00    +0.000 A 
BRANCH  10  17
ATOM     16  N   UNL     1       5.849   3.915  16.607  0.00  0.00    +0.000 NA
ATOM     17  C   UNL     1       6.187   4.344  17.777  0.00  0.00    +0.000 C 
ATOM     18  N   UNL     1       5.772   3.688  18.899  0.00  0.00    +0.000 N 
ATOM     19  H   UNL     1       5.324   3.045  16.694  0.00  0.00    +0.000 HD
ATOM     20  H   UNL     1       4.974   3.084  18.778  0.00  0.00    +0.000 HD
ATOM     21  H   UNL     1       5.676   4.274  19.730  0.00  0.00    +0.000 HD
ENDBRANCH  10  17
ENDBRANCH   1  13
BRANCH   5  22
ATOM     22  C   UNL     1      11.581  13.877  16.749  0.00  0.00    +0.000 C 
ATOM     23  N   UNL     1      12.331  13.352  15.832  0.00  0.00    +0.000 NA
ATOM     24  N   UNL     1      11.492  15.237  16.725  0.00  0.00    +0.000 N 
ATOM     25  H   UNL     1      12.275  12.332  15.829  0.00  0.00    +0.000 HD
ATOM     26  H   UNL     1      11.481  15.718  17.613  0.00  0.00    +0.000 HD
ATOM     27  H   UNL     1      12.159  15.629  16.066  0.00  0.00    +0.000 HD
ENDBRANCH   5  22
TORSDOF 3
ENDMDL
MODEL 4
REMARK VINA RESULT:      -7.5      1.444      2.363
REMARK  Name = 
REMARK  3 active torsions:
REMARK  status: ('A' for Active; 'I' for Inactive)
REMARK    1  A    between atoms: C_2  and  C_4
REMARK    2  A    between atoms: C_7  and  N_8
REMARK    3  A    between atoms: C_12  and  C_13
REMARK                            x       y       z     vdW  Elec       q    Type
REMARK                         _______ _______ _______ _____ _____    ______ ____
ROOT
ATOM      1  N   UNL     1       1.291   8.515  19.980  0.00  0.00    +0.000 N 
ATOM      2  C   UNL     1       1.489   7.203  20.338  0.00  0.00    +0.000 A 
ATOM      3  C   UNL     1       2.527   6.812  19.555  0.00  0.00    +0.000 A 
ATOM      4  C   UNL     1       3.335   5.728  19.824  0.00  0.00    +0.000 A 
ATOM      5  C   UNL     1       4.351   5.628  18.858  0.00  0.00    +0.000 A 
ATOM      6  C   UNL     1       4.346   6.401  17.641  0.00  0.00    +0.000 A 
ATOM      7  C   UNL     1       3.468   7.490  17.396  0.00  0.00    +0.000 A 
ATOM      8  C   UNL     1       2.590   7.742  18.463  0.00  0.00    +0.000 A 
ATOM      9  N   UNL     1       1.743   8.763  18.713  0.00  0.00    +0.000 NA
ENDROOT
BRANCH   1  13
ATOM     10  C   UNL     1      -0.685  11.298  22.429  0.00  0.00    +0.000 A 
ATOM     11  C   UNL     1      -0.536   9.981  22.856  0.00  0.00    +0.000 A 
ATOM     12  C   UNL     1       0.163   9.088  22.061  0.00  0.00    +0.000 A 
ATOM     13  C   UNL     1       0.717   9.495  20.830  0.00  0.00    +0.000 A 
ATOM     14  C   UNL     1       0.689  10.843  20.472  0.00  0.00    +0.000 A 
ATOM     15  C   UNL     1      -0.032  11.742  21.267  0.00  0.00    +0.000 A 
BRANCH  10  17
ATOM     16  N   UNL     1      -2.801  11.766  23.469  0.00  0.00    +0.000 NA
ATOM     17  C   UNL     1      -1.617  12.186  23.170  0.00  0.00    +0.000 C 
ATOM     18  N   UNL     1      -1.240  13.461  23.473  0.00  0.00    +0.000 N 
ATOM     19  H   UNL     1      -3.307  12.489  23.980  0.00  0.00    +0.000 HD
ATOM     20  H   UNL     1      -1.995  14.110  23.636  0.00  0.00    +0.000 HD
ATOM     21  H   UNL     1      -0.531  13.860  22.855  0.00  0.00    +0.000 HD
ENDBRANCH  10  17
ENDBRANCH   1  13
BRANCH   5  22
ATOM     22  C   UNL     1       5.552   4.812  19.219  0.00  0.00    +0.000 C 
ATOM     23  N   UNL     1       6.655   5.335  19.652  0.00  0.00    +0.000 NA
ATOM     24  N   UNL     1       5.519   3.449  19.200  0.00  0.00    +0.000 N 
ATOM     25  H   UNL     1       6.586   6.350  19.747  0.00  0.00    +0.000 HD
ATOM     26  H   UNL     1       5.063   3.006  18.415  0.00  0.00    +0.000 HD
ATOM     27  H   UNL     1       6.438   3.064  19.398  0.00  0.00    +0.000 HD
ENDBRANCH   5  22
TORSDOF 3
ENDMDL
MODEL 5
REMARK VINA RESULT:      -7.5      2.212      2.948
REMARK  Name = 
REMARK  3 active torsions:
REMARK  status: ('A' for Active; 'I' for Inactive)
REMARK    1  A    between atoms: C_2  and  C_4
REMARK    2  A    between atoms: C_7  and  N_8
REMARK    3  A    between atoms: C_12  and  C_13
REMARK                            x       y       z     vdW  Elec       q    Type
REMARK                         _______ _______ _______ _____ _____    ______ ____
ROOT
ATOM      1  N   UNL     1       3.327   6.690  18.383  0.00  0.00    +0.000 N 
ATOM      2  C   UNL     1       4.599   6.972  17.944  0.00  0.00    +0.000 A 
ATOM      3  C   UNL     1       4.920   5.893  17.185  0.00  0.00    +0.000 A 
ATOM      4  C   UNL     1       5.910   5.888  16.226  0.00  0.00    +0.000 A 
ATOM      5  C   UNL     1       5.951   4.641  15.577  0.00  0.00    +0.000 A 
ATOM      6  C   UNL     1       5.232   3.489  16.059  0.00  0.00    +0.000 A 
ATOM      7  C   UNL     1       4.242   3.540  17.077  0.00  0.00    +0.000 A 
ATOM      8  C   UNL     1       4.032   4.834  17.579  0.00  0.00    +0.000 A 
ATOM      9  N   UNL     1       3.088   5.343  18.398  0.00  0.00    +0.000 NA
ENDROOT
BRANCH   1  13
ATOM     10  C   UNL     1       0.726   9.819  19.429  0.00  0.00    +0.000 A 
ATOM     11  C   UNL     1       1.110   9.651  18.102  0.00  0.00    +0.000 A 
ATOM     12  C   UNL     1       1.927   8.584  17.764  0.00  0.00    +0.000 A 
ATOM     13  C   UNL     1       2.372   7.676  18.746  0.00  0.00    +0.000 A 
ATOM     14  C   UNL     1       1.874   7.762  20.045  0.00  0.00    +0.000 A 
ATOM     15  C   UNL     1       1.063   8.850  20.390  0.00  0.00    +0.000 A 
BRANCH  10  17
ATOM     16  N   UNL     1      -1.030  11.444  19.200  0.00  0.00    +0.000 NA
ATOM     17  C   UNL     1       0.042  11.078  19.819  0.00  0.00    +0.000 C 
ATOM     18  N   UNL     1       0.587  11.874  20.785  0.00  0.00    +0.000 N 
ATOM     19  H   UNL     1      -1.376  12.321  19.592  0.00  0.00    +0.000 HD
ATOM     20  H   UNL     1       0.309  12.842  20.757  0.00  0.00    +0.000 HD
ATOM     21  H   UNL     1       1.598  11.778  20.903  0.00  0.00    +0.000 HD
ENDBRANCH  10  17
ENDBRANCH   1  13
BRANCH   5  22
ATOM     22  C   UNL     1       6.634   4.592  14.246  0.00  0.00    +0.000 C 
ATOM     23  N   UNL     1       7.591   5.399  13.916  0.00  0.00    +0.000 NA
ATOM     24  N   UNL     1       6.346   3.620  13.334  0.00  0.00    +0.000 N 
ATOM     25  H   UNL     1       7.837   6.035  14.677  0.00  0.00    +0.000 HD
ATOM     26  H   UNL     1       5.373   3.386  13.196  0.00  0.00    +0.000 HD
ATOM     27  H   UNL     1       6.845   3.785  12.464  0.00  0.00    +0.000 HD
ENDBRANCH   5  22
TORSDOF 3
ENDMDL
MODEL 6
REMARK VINA RESULT:      -7.5      2.230      3.037
REMARK  Name = 
REMARK  3 active torsions:
REMARK  status: ('A' for Active; 'I' for Inactive)
REMARK    1  A    between atoms: C_2  and  C_4
REMARK    2  A    between atoms: C_7  and  N_8
REMARK    3  A    between atoms: C_12  and  C_13
REMARK                            x       y       z     vdW  Elec       q    Type
REMARK                         _______ _______ _______ _____ _____    ______ ____
ROOT
ATOM      1  N   UNL     1       3.098   6.883  18.405  0.00  0.00    +0.000 N 
ATOM      2  C   UNL     1       4.432   7.021  18.103  0.00  0.00    +0.000 A 
ATOM      3  C   UNL     1       4.696   5.940  17.325  0.00  0.00    +0.000 A 
ATOM      4  C   UNL     1       5.770   5.848  16.465  0.00  0.00    +0.000 A 
ATOM      5  C   UNL     1       5.726   4.631  15.763  0.00  0.00    +0.000 A 
ATOM      6  C   UNL     1       4.829   3.559  16.116  0.00  0.00    +0.000 A 
ATOM      7  C   UNL     1       3.755   3.695  17.037  0.00  0.00    +0.000 A 
ATOM      8  C   UNL     1       3.653   4.986  17.580  0.00  0.00    +0.000 A 
ATOM      9  N   UNL     1       2.700   5.577  18.330  0.00  0.00    +0.000 NA
ENDROOT
BRANCH   1  13
ATOM     10  C   UNL     1       0.323   9.881  19.384  0.00  0.00    +0.000 A 
ATOM     11  C   UNL     1       0.844   9.065  20.384  0.00  0.00    +0.000 A 
ATOM     12  C   UNL     1       1.797   8.115  20.053  0.00  0.00    +0.000 A 
ATOM     13  C   UNL     1       2.237   7.965  18.723  0.00  0.00    +0.000 A 
ATOM     14  C   UNL     1       1.822   8.874  17.750  0.00  0.00    +0.000 A 
ATOM     15  C   UNL     1       0.845   9.822  18.081  0.00  0.00    +0.000 A 
BRANCH  10  17
ATOM     16  N   UNL     1      -0.973  11.243  20.881  0.00  0.00    +0.000 NA
ATOM     17  C   UNL     1      -0.850  10.735  19.700  0.00  0.00    +0.000 C 
ATOM     18  N   UNL     1      -1.822  10.926  18.762  0.00  0.00    +0.000 N 
ATOM     19  H   UNL     1      -1.823  11.806  20.930  0.00  0.00    +0.000 HD
ATOM     20  H   UNL     1      -2.726  11.190  19.122  0.00  0.00    +0.000 HD
ATOM     21  H   UNL     1      -1.899  10.184  18.064  0.00  0.00    +0.000 HD
ENDBRANCH  10  17
ENDBRANCH   1  13
BRANCH   5  22
ATOM     22  C   UNL     1       6.528   4.546  14.501  0.00  0.00    +0.000 C 
ATOM     23  N   UNL     1       7.521   5.337  14.245  0.00  0.00    +0.000 NA
ATOM     24  N   UNL     1       6.313   3.560  13.586  0.00  0.00    +0.000 N 
ATOM     25  H   UNL     1       7.703   5.986  15.013  0.00  0.00    +0.000 HD
ATOM     26  H   UNL     1       5.355   3.332  13.363  0.00  0.00    +0.000 HD
ATOM     27  H   UNL     1       6.892   3.701  12.762  0.00  0.00    +0.000 HD
ENDBRANCH   5  22
TORSDOF 3
ENDMDL
MODEL 7
REMARK VINA RESULT:      -7.5      1.268      7.984
REMARK  Name = 
REMARK  3 active torsions:
REMARK  status: ('A' for Active; 'I' for Inactive)
REMARK    1  A    between atoms: C_2  and  C_4
REMARK    2  A    between atoms: C_7  and  N_8
REMARK    3  A    between atoms: C_12  and  C_13
REMARK                            x       y       z     vdW  Elec       q    Type
REMARK                         _______ _______ _______ _____ _____    ______ ____
ROOT
ATOM      1  N   UNL     1       2.629   7.278  18.713  0.00  0.00    +0.000 N 
ATOM      2  C   UNL     1       1.958   8.315  18.110  0.00  0.00    +0.000 A 
ATOM      3  C   UNL     1       1.518   9.060  19.156  0.00  0.00    +0.000 A 
ATOM      4  C   UNL     1       1.147  10.385  19.061  0.00  0.00    +0.000 A 
ATOM      5  C   UNL     1       0.799  10.882  20.329  0.00  0.00    +0.000 A 
ATOM      6  C   UNL     1       0.612  10.030  21.476  0.00  0.00    +0.000 A 
ATOM      7  C   UNL     1       0.979   8.658  21.513  0.00  0.00    +0.000 A 
ATOM      8  C   UNL     1       1.542   8.205  20.309  0.00  0.00    +0.000 A 
ATOM      9  N   UNL     1       2.173   7.057  19.983  0.00  0.00    +0.000 NA
ENDROOT
BRANCH   1  13
ATOM     10  C   UNL     1       5.930   5.205  17.146  0.00  0.00    +0.000 A 
ATOM     11  C   UNL     1       5.231   4.679  18.228  0.00  0.00    +0.000 A 
ATOM     12  C   UNL     1       4.114   5.347  18.701  0.00  0.00    +0.000 A 
ATOM     13  C   UNL     1       3.684   6.549  18.104  0.00  0.00    +0.000 A 
ATOM     14  C   UNL     1       4.298   6.999  16.936  0.00  0.00    +0.000 A 
ATOM     15  C   UNL     1       5.438   6.333  16.468  0.00  0.00    +0.000 A 
BRANCH  10  17
ATOM     16  N   UNL     1       7.997   4.117  17.714  0.00  0.00    +0.000 NA
ATOM     17  C   UNL     1       7.244   4.611  16.789  0.00  0.00    +0.000 C 
ATOM     18  N   UNL     1       7.675   4.649  15.495  0.00  0.00    +0.000 N 
ATOM     19  H   UNL     1       8.854   3.745  17.304  0.00  0.00    +0.000 HD
ATOM     20  H   UNL     1       8.673   4.575  15.368  0.00  0.00    +0.000 HD
ATOM     21  H   UNL     1       7.282   5.405  14.932  0.00  0.00    +0.000 HD
ENDBRANCH  10  17
ENDBRANCH   1  13
BRANCH   5  22
ATOM     22  C   UNL     1       0.802  12.370  20.498  0.00  0.00    +0.000 C 
ATOM     23  N   UNL     1       0.852  12.947  21.656  0.00  0.00    +0.000 NA
ATOM     24  N   UNL     1       0.848  13.208  19.424  0.00  0.00    +0.000 N 
ATOM     25  H   UNL     1       0.923  12.270  22.419  0.00  0.00    +0.000 HD
ATOM     26  H   UNL     1       0.261  12.984  18.633  0.00  0.00    +0.000 HD
ATOM     27  H   UNL     1       0.766  14.177  19.720  0.00  0.00    +0.000 HD
ENDBRANCH   5  22
TORSDOF 3
ENDMDL
MODEL 8
REMARK VINA RESULT:      -7.4      2.833      3.941
REMARK  Name = 
REMARK  3 active torsions:
REMARK  status: ('A' for Active; 'I' for Inactive)
REMARK    1  A    between atoms: C_2  and  C_4
REMARK    2  A    between atoms: C_7  and  N_8
REMARK    3  A    between atoms: C_12  and  C_13
REMARK                            x       y       z     vdW  Elec       q    Type
REMARK                         _______ _______ _______ _____ _____    ______ ____
ROOT
ATOM      1  N   UNL     1       1.927   7.521  19.831  0.00  0.00    +0.000 N 
ATOM      2  C   UNL     1       2.906   6.927  19.070  0.00  0.00    +0.000 A 
ATOM      3  C   UNL     1       2.806   5.612  19.393  0.00  0.00    +0.000 A 
ATOM      4  C   UNL     1       3.292   4.584  18.613  0.00  0.00    +0.000 A 
ATOM      5  C   UNL     1       2.976   3.343  19.195  0.00  0.00    +0.000 A 
ATOM      6  C   UNL     1       2.461   3.220  20.536  0.00  0.00    +0.000 A 
ATOM      7  C   UNL     1       2.004   4.318  21.314  0.00  0.00    +0.000 A 
ATOM      8  C   UNL     1       2.107   5.549  20.646  0.00  0.00    +0.000 A 
ATOM      9  N   UNL     1       1.635   6.778  20.941  0.00  0.00    +0.000 NA
ENDROOT
BRANCH   1  13
ATOM     10  C   UNL     1      -0.256  10.968  18.832  0.00  0.00    +0.000 A 
ATOM     11  C   UNL     1      -0.247  10.509  20.147  0.00  0.00    +0.000 A 
ATOM     12  C   UNL     1       0.518   9.401  20.471  0.00  0.00    +0.000 A 
ATOM     13  C   UNL     1       1.280   8.737  19.488  0.00  0.00    +0.000 A 
ATOM     14  C   UNL     1       1.383   9.279  18.208  0.00  0.00    +0.000 A 
ATOM     15  C   UNL     1       0.594  10.389  17.876  0.00  0.00    +0.000 A 
BRANCH  10  17
ATOM     16  N   UNL     1      -1.551  12.174  17.204  0.00  0.00    +0.000 NA
ATOM     17  C   UNL     1      -1.244  12.008  18.448  0.00  0.00    +0.000 C 
ATOM     18  N   UNL     1      -1.773  12.826  19.403  0.00  0.00    +0.000 N 
ATOM     19  H   UNL     1      -2.243  12.917  17.113  0.00  0.00    +0.000 HD
ATOM     20  H   UNL     1      -2.133  13.707  19.070  0.00  0.00    +0.000 HD
ATOM     21  H   UNL     1      -1.193  12.949  20.235  0.00  0.00    +0.000 HD
ENDBRANCH  10  17
ENDBRANCH   1  13
BRANCH   5  22
ATOM     22  C   UNL     1       3.023   2.144  18.301  0.00  0.00    +0.000 C 
ATOM     23  N   UNL     1       2.131   1.908  17.392  0.00  0.00    +0.000 NA
ATOM     24  N   UNL     1       4.071   1.273  18.332  0.00  0.00    +0.000 N 
ATOM     25  H   UNL     1       1.428   2.648  17.343  0.00  0.00    +0.000 HD
ATOM     26  H   UNL     1       4.424   1.002  19.239  0.00  0.00    +0.000 HD
ATOM     27  H   UNL     1       3.901   0.482  17.717  0.00  0.00    +0.000 HD
ENDBRANCH   5  22
TORSDOF 3
ENDMDL
MODEL 9
REMARK VINA RESULT:      -7.3      0.528      1.309
REMARK  Name = 
REMARK  3 active torsions:
REMARK  status: ('A' for Active; 'I' for Inactive)
REMARK    1  A    between atoms: C_2  and  C_4
REMARK    2  A    between atoms: C_7  and  N_8
REMARK    3  A    between atoms: C_12  and  C_13
REMARK                            x       y       z     vdW  Elec       q    Type
REMARK                         _______ _______ _______ _____ _____    ______ ____
ROOT
ATOM      1  N   UNL     1       2.424   7.653  19.022  0.00  0.00    +0.000 N 
ATOM      2  C   UNL     1       2.934   6.486  19.539  0.00  0.00    +0.000 A 
ATOM      3  C   UNL     1       3.996   6.220  18.736  0.00  0.00    +0.000 A 
ATOM      4  C   UNL     1       5.043   5.393  19.085  0.00  0.00    +0.000 A 
ATOM      5  C   UNL     1       6.007   5.375  18.062  0.00  0.00    +0.000 A 
ATOM      6  C   UNL     1       5.768   5.935  16.756  0.00  0.00    +0.000 A 
ATOM      7  C   UNL     1       4.653   6.755  16.436  0.00  0.00    +0.000 A 
ATOM      8  C   UNL     1       3.792   6.966  17.526  0.00  0.00    +0.000 A 
ATOM      9  N   UNL     1       2.747   7.800  17.702  0.00  0.00    +0.000 NA
ENDROOT
BRANCH   1  13
ATOM     10  C   UNL     1      -0.009  10.256  21.250  0.00  0.00    +0.000 A 
ATOM     11  C   UNL     1       0.569   9.149  21.866  0.00  0.00    +0.000 A 
ATOM     12  C   UNL     1       1.410   8.329  21.131  0.00  0.00    +0.000 A 
ATOM     13  C   UNL     1       1.681   8.600  19.775  0.00  0.00    +0.000 A 
ATOM     14  C   UNL     1       1.217   9.783  19.200  0.00  0.00    +0.000 A 
ATOM     15  C   UNL     1       0.353  10.602  19.937  0.00  0.00    +0.000 A 
BRANCH  10  17
ATOM     16  N   UNL     1      -1.309  10.736  23.213  0.00  0.00    +0.000 NA
ATOM     17  C   UNL     1      -1.076  10.996  21.970  0.00  0.00    +0.000 C 
ATOM     18  N   UNL     1      -1.846  11.899  21.297  0.00  0.00    +0.000 N 
ATOM     19  H   UNL     1      -2.062  11.333  23.557  0.00  0.00    +0.000 HD
ATOM     20  H   UNL     1      -2.747  12.093  21.708  0.00  0.00    +0.000 HD
ATOM     21  H   UNL     1      -1.921  11.738  20.291  0.00  0.00    +0.000 HD
ENDBRANCH  10  17
ENDBRANCH   1  13
BRANCH   5  22
ATOM     22  C   UNL     1       7.380   4.907  18.434  0.00  0.00    +0.000 C 
ATOM     23  N   UNL     1       8.090   4.135  17.674  0.00  0.00    +0.000 NA
ATOM     24  N   UNL     1       8.002   5.349  19.563  0.00  0.00    +0.000 N 
ATOM     25  H   UNL     1       7.616   3.922  16.794  0.00  0.00    +0.000 HD
ATOM     26  H   UNL     1       7.450   5.403  20.407  0.00  0.00    +0.000 HD
ATOM     27  H   UNL     1       8.890   4.872  19.695  0.00  0.00    +0.000 HD
ENDBRANCH   5  22
TORSDOF 3
ENDMDL
