MODEL 1
REMARK VINA RESULT:      -6.1      0.000      0.000
REMARK  Name = 
REMARK  4 active torsions:
REMARK  status: ('A' for Active; 'I' for Inactive)
REMARK    1  A    between atoms: S_2  and  C_4
REMARK    2  A    between atoms: S_2  and  N_14
REMARK    3  A    between atoms: N_17  and  C_18
REMARK    4  A    between atoms: C_18  and  C_19
REMARK                            x       y       z     vdW  Elec       q    Type
REMARK                         _______ _______ _______ _____ _____    ______ ____
ROOT
ATOM      1  O   UNL     1       6.352   5.721  19.641  0.00  0.00    +0.000 OA
ATOM      2  S   UNL     1       5.453   4.926  18.837  0.00  0.00    +0.000 S 
ATOM      3  O   UNL     1       5.668   3.498  18.741  0.00  0.00    +0.000 OA
ENDROOT
BRANCH   2   4
ATOM      4  C   UNL     1       3.792   5.138  19.374  0.00  0.00    +0.000 A 
ATOM      5  C   UNL     1       3.026   6.310  19.184  0.00  0.00    +0.000 A 
ATOM      6 CL   UNL     1       3.554   7.669  18.245  0.00  0.00    +0.000 Cl
ATOM      7  C   UNL     1       1.734   6.490  19.756  0.00  0.00    +0.000 A 
ATOM      8  C   UNL     1       1.096   5.541  20.567  0.00  0.00    +0.000 A 
ATOM      9  C   UNL     1       1.815   4.349  20.786  0.00  0.00    +0.000 A 
ATOM     10  N   UNL     1       1.387   3.322  21.533  0.00  0.00    +0.000 NA
ATOM     11  S   UNL     1       2.588   2.181  21.496  0.00  0.00    +0.000 S 
ATOM     12  N   UNL     1       3.686   2.930  20.509  0.00  0.00    +0.000 NA
ATOM     13  C   UNL     1       3.185   4.133  20.178  0.00  0.00    +0.000 A 
ENDBRANCH   2   4
BRANCH   2  14
ATOM     14  N   UNL     1       5.489   5.596  17.264  0.00  0.00    +0.000 NA
ATOM     15  C   UNL     1       6.830   5.982  16.720  0.00  0.00    +0.000 C 
ATOM     16  C   UNL     1       7.577   4.790  16.073  0.00  0.00    +0.000 C 
ATOM     17  N   UNL     1       6.804   3.991  15.095  0.00  0.00    +0.000 NA
ATOM     18  C   UNL     1       5.501   3.630  15.699  0.00  0.00    +0.000 C 
ATOM     19  C   UNL     1       4.703   4.830  16.248  0.00  0.00    +0.000 C 
BRANCH  17  20
ATOM     20  C   UNL     1       6.616   4.661  13.795  0.00  0.00    +0.000 C 
BRANCH  20  21
ATOM     21  C   UNL     1       6.012   3.751  12.759  0.00  0.00    +0.000 A 
ATOM     22  C   UNL     1       4.710   3.712  12.300  0.00  0.00    +0.000 A 
ATOM     23  C   UNL     1       4.500   2.663  11.358  0.00  0.00    +0.000 A 
ATOM     24  C   UNL     1       5.654   1.957  11.107  0.00  0.00    +0.000 A 
ATOM     25  S   UNL     1       6.984   2.563  11.992  0.00  0.00    +0.000 S 
ENDBRANCH  20  21
ENDBRANCH  17  20
ENDBRANCH   2  14
TORSDOF 4
ENDMDL
MODEL 2
REMARK VINA RESULT:      -6.0      1.080      1.589
REMARK  Name = 
REMARK  4 active torsions:
REMARK  status: ('A' for Active; 'I' for Inactive)
REMARK    1  A    between atoms: S_2  and  C_4
REMARK    2  A    between atoms: S_2  and  N_14
REMARK    3  A    between atoms: N_17  and  C_18
REMARK    4  A    between atoms: C_18  and  C_19
REMARK                            x       y       z     vdW  Elec       q    Type
REMARK                         _______ _______ _______ _____ _____    ______ ____
ROOT
ATOM      1  O   UNL     1       5.458   6.864  17.535  0.00  0.00    +0.000 OA
ATOM      2  S   UNL     1       5.621   5.686  18.356  0.00  0.00    +0.000 S 
ATOM      3  O   UNL     1       6.593   5.702  19.429  0.00  0.00    +0.000 OA
ENDROOT
BRANCH   2   4
ATOM      4  C   UNL     1       4.090   5.223  19.087  0.00  0.00    +0.000 A 
ATOM      5  C   UNL     1       2.955   6.059  19.179  0.00  0.00    +0.000 A 
ATOM      6 CL   UNL     1       2.842   7.623  18.439  0.00  0.00    +0.000 Cl
ATOM      7  C   UNL     1       1.783   5.693  19.902  0.00  0.00    +0.000 A 
ATOM      8  C   UNL     1       1.635   4.485  20.598  0.00  0.00    +0.000 A 
ATOM      9  C   UNL     1       2.739   3.611  20.535  0.00  0.00    +0.000 A 
ATOM     10  N   UNL     1       2.802   2.414  21.134  0.00  0.00    +0.000 NA
ATOM     11  S   UNL     1       4.296   1.789  20.780  0.00  0.00    +0.000 S 
ATOM     12  N   UNL     1       4.910   2.998  19.830  0.00  0.00    +0.000 NA
ATOM     13  C   UNL     1       3.989   3.975  19.763  0.00  0.00    +0.000 A 
ENDBRANCH   2   4
BRANCH   2  14
ATOM     14  N   UNL     1       5.998   4.402  17.291  0.00  0.00    +0.000 NA
ATOM     15  C   UNL     1       4.984   4.072  16.239  0.00  0.00    +0.000 C 
ATOM     16  C   UNL     1       5.118   4.963  14.980  0.00  0.00    +0.000 C 
ATOM     17  N   UNL     1       6.478   5.078  14.406  0.00  0.00    +0.000 NA
ATOM     18  C   UNL     1       7.425   5.420  15.491  0.00  0.00    +0.000 C 
ATOM     19  C   UNL     1       7.372   4.468  16.703  0.00  0.00    +0.000 C 
BRANCH  17  20
ATOM     20  C   UNL     1       6.920   3.874  13.679  0.00  0.00    +0.000 C 
BRANCH  20  21
ATOM     21  C   UNL     1       5.935   3.443  12.626  0.00  0.00    +0.000 A 
ATOM     22  C   UNL     1       4.752   4.050  12.252  0.00  0.00    +0.000 A 
ATOM     23  C   UNL     1       4.052   3.305  11.258  0.00  0.00    +0.000 A 
ATOM     24  C   UNL     1       4.738   2.172  10.885  0.00  0.00    +0.000 A 
ATOM     25  S   UNL     1       6.221   2.015  11.719  0.00  0.00    +0.000 S 
ENDBRANCH  20  21
ENDBRANCH  17  20
ENDBRANCH   2  14
TORSDOF 4
ENDMDL
MODEL 3
REMARK VINA RESULT:      -5.7      2.062      2.427
REMARK  Name = 
REMARK  4 active torsions:
REMARK  status: ('A' for Active; 'I' for Inactive)
REMARK    1  A    between atoms: S_2  and  C_4
REMARK    2  A    between atoms: S_2  and  N_14
REMARK    3  A    between atoms: N_17  and  C_18
REMARK    4  A    between atoms: C_18  and  C_19
REMARK                            x       y       z     vdW  Elec       q    Type
REMARK                         _______ _______ _______ _____ _____    ______ ____
ROOT
ATOM      1  O   UNL     1       5.886   5.762  19.534  0.00  0.00    +0.000 OA
ATOM      2  S   UNL     1       5.266   4.652  18.848  0.00  0.00    +0.000 S 
ATOM      3  O   UNL     1       5.968   3.389  18.771  0.00  0.00    +0.000 OA
ENDROOT
BRANCH   2   4
ATOM      4  C   UNL     1       3.689   4.298  19.542  0.00  0.00    +0.000 A 
ATOM      5  C   UNL     1       3.122   3.008  19.637  0.00  0.00    +0.000 A 
ATOM      6 CL   UNL     1       3.963   1.548  19.230  0.00  0.00    +0.000 Cl
ATOM      7  C   UNL     1       1.786   2.783  20.079  0.00  0.00    +0.000 A 
ATOM      8  C   UNL     1       0.900   3.803  20.452  0.00  0.00    +0.000 A 
ATOM      9  C   UNL     1       1.418   5.112  20.379  0.00  0.00    +0.000 A 
ATOM     10  N   UNL     1       0.735   6.223  20.684  0.00  0.00    +0.000 NA
ATOM     11  S   UNL     1       1.764   7.495  20.420  0.00  0.00    +0.000 S 
ATOM     12  N   UNL     1       3.125   6.686  19.935  0.00  0.00    +0.000 NA
ATOM     13  C   UNL     1       2.838   5.373  19.923  0.00  0.00    +0.000 A 
ENDBRANCH   2   4
BRANCH   2  14
ATOM     14  N   UNL     1       4.928   5.192  17.261  0.00  0.00    +0.000 NA
ATOM     15  C   UNL     1       5.834   6.241  16.692  0.00  0.00    +0.000 C 
ATOM     16  C   UNL     1       7.115   5.644  16.060  0.00  0.00    +0.000 C 
ATOM     17  N   UNL     1       6.913   4.527  15.109  0.00  0.00    +0.000 NA
ATOM     18  C   UNL     1       6.026   3.522  15.737  0.00  0.00    +0.000 C 
ATOM     19  C   UNL     1       4.697   4.095  16.270  0.00  0.00    +0.000 C 
BRANCH  17  20
ATOM     20  C   UNL     1       6.389   4.951  13.798  0.00  0.00    +0.000 C 
BRANCH  20  21
ATOM     21  C   UNL     1       6.316   3.816  12.812  0.00  0.00    +0.000 A 
ATOM     22  C   UNL     1       7.351   3.163  12.170  0.00  0.00    +0.000 A 
ATOM     23  C   UNL     1       6.882   2.179  11.252  0.00  0.00    +0.000 A 
ATOM     24  C   UNL     1       5.509   2.090  11.247  0.00  0.00    +0.000 A 
ATOM     25  S   UNL     1       4.791   3.180  12.349  0.00  0.00    +0.000 S 
ENDBRANCH  20  21
ENDBRANCH  17  20
ENDBRANCH   2  14
TORSDOF 4
ENDMDL
MODEL 4
REMARK VINA RESULT:      -5.7      6.822      8.885
REMARK  Name = 
REMARK  4 active torsions:
REMARK  status: ('A' for Active; 'I' for Inactive)
REMARK    1  A    between atoms: S_2  and  C_4
REMARK    2  A    between atoms: S_2  and  N_14
REMARK    3  A    between atoms: N_17  and  C_18
REMARK    4  A    between atoms: C_18  and  C_19
REMARK                            x       y       z     vdW  Elec       q    Type
REMARK                         _______ _______ _______ _____ _____    ______ ____
ROOT
ATOM      1  O   UNL     1       0.552  12.103  19.047  0.00  0.00    +0.000 OA
ATOM      2  S   UNL     1      -0.056  11.568  20.243  0.00  0.00    +0.000 S 
ATOM      3  O   UNL     1       0.630  11.713  21.509  0.00  0.00    +0.000 OA
ENDROOT
BRANCH   2   4
ATOM      4  C   UNL     1      -1.664  12.243  20.475  0.00  0.00    +0.000 A 
ATOM      5  C   UNL     1      -2.105  12.889  21.651  0.00  0.00    +0.000 A 
ATOM      6 CL   UNL     1      -1.076  13.262  22.995  0.00  0.00    +0.000 Cl
ATOM      7  C   UNL     1      -3.457  13.295  21.848  0.00  0.00    +0.000 A 
ATOM      8  C   UNL     1      -4.482  13.093  20.913  0.00  0.00    +0.000 A 
ATOM      9  C   UNL     1      -4.094  12.454  19.718  0.00  0.00    +0.000 A 
ATOM     10  N   UNL     1      -4.919  12.163  18.703  0.00  0.00    +0.000 NA
ATOM     11  S   UNL     1      -3.999  11.407  17.551  0.00  0.00    +0.000 S 
ATOM     12  N   UNL     1      -2.513  11.444  18.280  0.00  0.00    +0.000 NA
ATOM     13  C   UNL     1      -2.661  12.024  19.483  0.00  0.00    +0.000 A 
ENDBRANCH   2   4
BRANCH   2  14
ATOM     14  N   UNL     1      -0.324   9.905  19.948  0.00  0.00    +0.000 NA
ATOM     15  C   UNL     1       0.355   9.309  18.752  0.00  0.00    +0.000 C 
ATOM     16  C   UNL     1       1.811   8.875  19.048  0.00  0.00    +0.000 C 
ATOM     17  N   UNL     1       2.010   8.042  20.256  0.00  0.00    +0.000 NA
ATOM     18  C   UNL     1       1.331   8.693  21.399  0.00  0.00    +0.000 C 
ATOM     19  C   UNL     1      -0.153   9.029  21.148  0.00  0.00    +0.000 C 
BRANCH  17  20
ATOM     20  C   UNL     1       1.559   6.647  20.097  0.00  0.00    +0.000 C 
BRANCH  20  21
ATOM     21  C   UNL     1       2.514   5.822  19.277  0.00  0.00    +0.000 A 
ATOM     22  C   UNL     1       3.891   5.758  19.363  0.00  0.00    +0.000 A 
ATOM     23  C   UNL     1       4.456   4.909  18.368  0.00  0.00    +0.000 A 
ATOM     24  C   UNL     1       3.491   4.330  17.576  0.00  0.00    +0.000 A 
ATOM     25  S   UNL     1       1.915   4.798  18.038  0.00  0.00    +0.000 S 
ENDBRANCH  20  21
ENDBRANCH  17  20
ENDBRANCH   2  14
TORSDOF 4
ENDMDL
MODEL 5
REMARK VINA RESULT:      -5.6      9.598     11.827
REMARK  Name = 
REMARK  4 active torsions:
REMARK  status: ('A' for Active; 'I' for Inactive)
REMARK    1  A    between atoms: S_2  and  C_4
REMARK    2  A    between atoms: S_2  and  N_14
REMARK    3  A    between atoms: N_17  and  C_18
REMARK    4  A    between atoms: C_18  and  C_19
REMARK                            x       y       z     vdW  Elec       q    Type
REMARK                         _______ _______ _______ _____ _____    ______ ____
ROOT
ATOM      1  O   UNL     1       2.309  13.386  20.402  0.00  0.00    +0.000 OA
ATOM      2  S   UNL     1       1.346  14.210  21.096  0.00  0.00    +0.000 S 
ATOM      3  O   UNL     1       1.539  14.491  22.502  0.00  0.00    +0.000 OA
ENDROOT
BRANCH   2   4
ATOM      4  C   UNL     1       1.181  15.771  20.301  0.00  0.00    +0.000 A 
ATOM      5  C   UNL     1       0.236  16.760  20.654  0.00  0.00    +0.000 A 
ATOM      6 CL   UNL     1      -0.805  16.654  22.036  0.00  0.00    +0.000 Cl
ATOM      7  C   UNL     1       0.045  17.951  19.896  0.00  0.00    +0.000 A 
ATOM      8  C   UNL     1       0.756  18.261  18.728  0.00  0.00    +0.000 A 
ATOM      9  C   UNL     1       1.716  17.308  18.332  0.00  0.00    +0.000 A 
ATOM     10  N   UNL     1       2.495  17.411  17.247  0.00  0.00    +0.000 NA
ATOM     11  S   UNL     1       3.430  16.043  17.207  0.00  0.00    +0.000 S 
ATOM     12  N   UNL     1       2.906  15.280  18.580  0.00  0.00    +0.000 NA
ATOM     13  C   UNL     1       1.944  16.041  19.130  0.00  0.00    +0.000 A 
ENDBRANCH   2   4
BRANCH   2  14
ATOM     14  N   UNL     1      -0.175  13.457  20.888  0.00  0.00    +0.000 NA
ATOM     15  C   UNL     1      -0.808  13.565  19.535  0.00  0.00    +0.000 C 
ATOM     16  C   UNL     1      -0.300  12.483  18.550  0.00  0.00    +0.000 C 
ATOM     17  N   UNL     1      -0.319  11.089  19.049  0.00  0.00    +0.000 NA
ATOM     18  C   UNL     1       0.333  11.050  20.377  0.00  0.00    +0.000 C 
ATOM     19  C   UNL     1      -0.244  12.052  21.397  0.00  0.00    +0.000 C 
BRANCH  17  20
ATOM     20  C   UNL     1      -1.667  10.496  19.104  0.00  0.00    +0.000 C 
BRANCH  20  21
ATOM     21  C   UNL     1      -2.356  10.504  17.766  0.00  0.00    +0.000 A 
ATOM     22  C   UNL     1      -1.990   9.853  16.604  0.00  0.00    +0.000 A 
ATOM     23  C   UNL     1      -2.860  10.157  15.517  0.00  0.00    +0.000 A 
ATOM     24  C   UNL     1      -3.877  11.004  15.892  0.00  0.00    +0.000 A 
ATOM     25  S   UNL     1      -3.790  11.420  17.547  0.00  0.00    +0.000 S 
ENDBRANCH  20  21
ENDBRANCH  17  20
ENDBRANCH   2  14
TORSDOF 4
ENDMDL
MODEL 6
REMARK VINA RESULT:      -5.6     10.201     11.375
REMARK  Name = 
REMARK  4 active torsions:
REMARK  status: ('A' for Active; 'I' for Inactive)
REMARK    1  A    between atoms: S_2  and  C_4
REMARK    2  A    between atoms: S_2  and  N_14
REMARK    3  A    between atoms: N_17  and  C_18
REMARK    4  A    between atoms: C_18  and  C_19
REMARK                            x       y       z     vdW  Elec       q    Type
REMARK                         _______ _______ _______ _____ _____    ______ ____
ROOT
ATOM      1  O   UNL     1      -0.975  12.866  21.288  0.00  0.00    +0.000 OA
ATOM      2  S   UNL     1      -1.032  12.240  19.988  0.00  0.00    +0.000 S 
ATOM      3  O   UNL     1      -0.516  10.897  19.827  0.00  0.00    +0.000 OA
ENDROOT
BRANCH   2   4
ATOM      4  C   UNL     1      -2.685  12.207  19.388  0.00  0.00    +0.000 A 
ATOM      5  C   UNL     1      -3.828  12.517  20.157  0.00  0.00    +0.000 A 
ATOM      6 CL   UNL     1      -3.767  13.139  21.774  0.00  0.00    +0.000 Cl
ATOM      7  C   UNL     1      -5.156  12.343  19.672  0.00  0.00    +0.000 A 
ATOM      8  C   UNL     1      -5.468  11.841  18.400  0.00  0.00    +0.000 A 
ATOM      9  C   UNL     1      -4.362  11.518  17.589  0.00  0.00    +0.000 A 
ATOM     10  N   UNL     1      -4.442  11.021  16.347  0.00  0.00    +0.000 NA
ATOM     11  S   UNL     1      -2.885  10.794  15.829  0.00  0.00    +0.000 S 
ATOM     12  N   UNL     1      -2.046  11.344  17.146  0.00  0.00    +0.000 NA
ATOM     13  C   UNL     1      -2.942  11.707  18.080  0.00  0.00    +0.000 A 
ENDBRANCH   2   4
BRANCH   2  14
ATOM     14  N   UNL     1      -0.203  13.280  18.913  0.00  0.00    +0.000 NA
ATOM     15  C   UNL     1      -0.263  14.748  19.205  0.00  0.00    +0.000 C 
ATOM     16  C   UNL     1       0.805  15.195  20.233  0.00  0.00    +0.000 C 
ATOM     17  N   UNL     1       2.192  14.752  19.965  0.00  0.00    +0.000 NA
ATOM     18  C   UNL     1       2.183  13.295  19.701  0.00  0.00    +0.000 C 
ATOM     19  C   UNL     1       1.197  12.857  18.599  0.00  0.00    +0.000 C 
BRANCH  17  20
ATOM     20  C   UNL     1       2.850  15.484  18.868  0.00  0.00    +0.000 C 
BRANCH  20  21
ATOM     21  C   UNL     1       4.338  15.266  18.839  0.00  0.00    +0.000 A 
ATOM     22  C   UNL     1       5.133  14.878  17.777  0.00  0.00    +0.000 A 
ATOM     23  C   UNL     1       6.497  14.711  18.155  0.00  0.00    +0.000 A 
ATOM     24  C   UNL     1       6.704  15.007  19.482  0.00  0.00    +0.000 A 
ATOM     25  S   UNL     1       5.266  15.493  20.264  0.00  0.00    +0.000 S 
ENDBRANCH  20  21
ENDBRANCH  17  20
ENDBRANCH   2  14
TORSDOF 4
ENDMDL
MODEL 7
REMARK VINA RESULT:      -5.6      7.996     10.222
REMARK  Name = 
REMARK  4 active torsions:
REMARK  status: ('A' for Active; 'I' for Inactive)
REMARK    1  A    between atoms: S_2  and  C_4
REMARK    2  A    between atoms: S_2  and  N_14
REMARK    3  A    between atoms: N_17  and  C_18
REMARK    4  A    between atoms: C_18  and  C_19
REMARK                            x       y       z     vdW  Elec       q    Type
REMARK                         _______ _______ _______ _____ _____    ______ ____
ROOT
ATOM      1  O   UNL     1      -1.430  12.138  18.407  0.00  0.00    +0.000 OA
ATOM      2  S   UNL     1      -1.421  12.262  19.846  0.00  0.00    +0.000 S 
ATOM      3  O   UNL     1      -2.677  12.391  20.552  0.00  0.00    +0.000 OA
ENDROOT
BRANCH   2   4
ATOM      4  C   UNL     1      -0.582  10.901  20.579  0.00  0.00    +0.000 A 
ATOM      5  C   UNL     1      -0.587  10.599  21.959  0.00  0.00    +0.000 A 
ATOM      6 CL   UNL     1      -1.557  11.433  23.128  0.00  0.00    +0.000 Cl
ATOM      7  C   UNL     1       0.218   9.569  22.526  0.00  0.00    +0.000 A 
ATOM      8  C   UNL     1       1.097   8.763  21.789  0.00  0.00    +0.000 A 
ATOM      9  C   UNL     1       1.138   9.021  20.404  0.00  0.00    +0.000 A 
ATOM     10  N   UNL     1       1.913   8.369  19.527  0.00  0.00    +0.000 NA
ATOM     11  S   UNL     1       1.616   9.045  18.043  0.00  0.00    +0.000 S 
ATOM     12  N   UNL     1       0.473  10.172  18.449  0.00  0.00    +0.000 NA
ATOM     13  C   UNL     1       0.282  10.102  19.778  0.00  0.00    +0.000 A 
ENDBRANCH   2   4
BRANCH   2  14
ATOM     14  N   UNL     1      -0.443  13.618  20.209  0.00  0.00    +0.000 NA
ATOM     15  C   UNL     1       0.680  13.406  21.177  0.00  0.00    +0.000 C 
ATOM     16  C   UNL     1       1.956  12.850  20.497  0.00  0.00    +0.000 C 
ATOM     17  N   UNL     1       2.412  13.565  19.284  0.00  0.00    +0.000 NA
ATOM     18  C   UNL     1       1.262  13.727  18.366  0.00  0.00    +0.000 C 
ATOM     19  C   UNL     1       0.024  14.382  19.011  0.00  0.00    +0.000 C 
BRANCH  17  20
ATOM     20  C   UNL     1       3.051  14.864  19.565  0.00  0.00    +0.000 C 
BRANCH  20  21
ATOM     21  C   UNL     1       4.498  14.895  19.153  0.00  0.00    +0.000 A 
ATOM     22  C   UNL     1       5.042  14.708  17.896  0.00  0.00    +0.000 A 
ATOM     23  C   UNL     1       6.466  14.745  17.912  0.00  0.00    +0.000 A 
ATOM     24  C   UNL     1       6.962  14.990  19.172  0.00  0.00    +0.000 A 
ATOM     25  S   UNL     1       5.717  15.185  20.325  0.00  0.00    +0.000 S 
ENDBRANCH  20  21
ENDBRANCH  17  20
ENDBRANCH   2  14
TORSDOF 4
ENDMDL
MODEL 8
REMARK VINA RESULT:      -5.6     10.031     12.283
REMARK  Name = 
REMARK  4 active torsions:
REMARK  status: ('A' for Active; 'I' for Inactive)
REMARK    1  A    between atoms: S_2  and  C_4
REMARK    2  A    between atoms: S_2  and  N_14
REMARK    3  A    between atoms: N_17  and  C_18
REMARK    4  A    between atoms: C_18  and  C_19
REMARK                            x       y       z     vdW  Elec       q    Type
REMARK                         _______ _______ _______ _____ _____    ______ ____
ROOT
ATOM      1  O   UNL     1      10.013  15.934  20.473  0.00  0.00    +0.000 OA
ATOM      2  S   UNL     1      10.206  15.424  19.135  0.00  0.00    +0.000 S 
ATOM      3  O   UNL     1      11.385  15.819  18.393  0.00  0.00    +0.000 OA
ENDROOT
BRANCH   2   4
ATOM      4  C   UNL     1      10.192  13.665  19.135  0.00  0.00    +0.000 A 
ATOM      5  C   UNL     1      10.534  12.856  18.029  0.00  0.00    +0.000 A 
ATOM      6 CL   UNL     1      11.180  13.471  16.543  0.00  0.00    +0.000 Cl
ATOM      7  C   UNL     1      10.374  11.440  18.029  0.00  0.00    +0.000 A 
ATOM      8  C   UNL     1       9.858  10.708  19.108  0.00  0.00    +0.000 A 
ATOM      9  C   UNL     1       9.503  11.468  20.241  0.00  0.00    +0.000 A 
ATOM     10  N   UNL     1       8.988  10.964  21.371  0.00  0.00    +0.000 NA
ATOM     11  S   UNL     1       8.726  12.249  22.383  0.00  0.00    +0.000 S 
ATOM     12  N   UNL     1       9.283  13.493  21.442  0.00  0.00    +0.000 NA
ATOM     13  C   UNL     1       9.676  12.973  20.266  0.00  0.00    +0.000 A 
ENDBRANCH   2   4
BRANCH   2  14
ATOM     14  N   UNL     1       8.818  15.868  18.241  0.00  0.00    +0.000 NA
ATOM     15  C   UNL     1       7.640  14.945  18.313  0.00  0.00    +0.000 C 
ATOM     16  C   UNL     1       6.749  15.209  19.552  0.00  0.00    +0.000 C 
ATOM     17  N   UNL     1       6.351  16.617  19.779  0.00  0.00    +0.000 NA
ATOM     18  C   UNL     1       7.558  17.470  19.712  0.00  0.00    +0.000 C 
ATOM     19  C   UNL     1       8.391  17.290  18.426  0.00  0.00    +0.000 C 
BRANCH  17  20
ATOM     20  C   UNL     1       5.311  17.098  18.851  0.00  0.00    +0.000 C 
BRANCH  20  21
ATOM     21  C   UNL     1       4.006  16.367  19.018  0.00  0.00    +0.000 A 
ATOM     22  C   UNL     1       3.173  16.331  20.120  0.00  0.00    +0.000 A 
ATOM     23  C   UNL     1       2.054  15.471  19.923  0.00  0.00    +0.000 A 
ATOM     24  C   UNL     1       2.052  14.905  18.669  0.00  0.00    +0.000 A 
ATOM     25  S   UNL     1       3.386  15.416  17.732  0.00  0.00    +0.000 S 
ENDBRANCH  20  21
ENDBRANCH  17  20
ENDBRANCH   2  14
TORSDOF 4
ENDMDL
MODEL 9
REMARK VINA RESULT:      -5.5     10.849     13.832
REMARK  Name = 
REMARK  4 active torsions:
REMARK  status: ('A' for Active; 'I' for Inactive)
REMARK    1  A    between atoms: S_2  and  C_4
REMARK    2  A    between atoms: S_2  and  N_14
REMARK    3  A    between atoms: N_17  and  C_18
REMARK    4  A    between atoms: C_18  and  C_19
REMARK                            x       y       z     vdW  Elec       q    Type
REMARK                         _______ _______ _______ _____ _____    ______ ____
ROOT
ATOM      1  O   UNL     1      -5.988  16.030  20.824  0.00  0.00    +0.000 OA
ATOM      2  S   UNL     1      -5.561  14.891  21.604  0.00  0.00    +0.000 S 
ATOM      3  O   UNL     1      -5.656  14.947  23.047  0.00  0.00    +0.000 OA
ENDROOT
BRANCH   2   4
ATOM      4  C   UNL     1      -6.428  13.442  21.110  0.00  0.00    +0.000 A 
ATOM      5  C   UNL     1      -6.920  12.457  21.993  0.00  0.00    +0.000 A 
ATOM      6 CL   UNL     1      -6.888  12.602  23.720  0.00  0.00    +0.000 Cl
ATOM      7  C   UNL     1      -7.493  11.232  21.542  0.00  0.00    +0.000 A 
ATOM      8  C   UNL     1      -7.619  10.874  20.193  0.00  0.00    +0.000 A 
ATOM      9  C   UNL     1      -7.146  11.826  19.267  0.00  0.00    +0.000 A 
ATOM     10  N   UNL     1      -7.168  11.676  17.936  0.00  0.00    +0.000 NA
ATOM     11  S   UNL     1      -6.489  13.046  17.296  0.00  0.00    +0.000 S 
ATOM     12  N   UNL     1      -6.166  13.896  18.680  0.00  0.00    +0.000 NA
ATOM     13  C   UNL     1      -6.544  13.138  19.724  0.00  0.00    +0.000 A 
ENDBRANCH   2   4
BRANCH   2  14
ATOM     14  N   UNL     1      -3.934  14.590  21.171  0.00  0.00    +0.000 NA
ATOM     15  C   UNL     1      -2.880  15.338  21.928  0.00  0.00    +0.000 C 
ATOM     16  C   UNL     1      -2.501  14.648  23.262  0.00  0.00    +0.000 C 
ATOM     17  N   UNL     1      -2.190  13.203  23.182  0.00  0.00    +0.000 NA
ATOM     18  C   UNL     1      -3.275  12.523  22.439  0.00  0.00    +0.000 C 
ATOM     19  C   UNL     1      -3.581  13.141  21.059  0.00  0.00    +0.000 C 
BRANCH  17  20
ATOM     20  C   UNL     1      -0.875  12.910  22.584  0.00  0.00    +0.000 C 
BRANCH  20  21
ATOM     21  C   UNL     1      -0.681  11.443  22.308  0.00  0.00    +0.000 A 
ATOM     22  C   UNL     1      -0.775  10.380  23.186  0.00  0.00    +0.000 A 
ATOM     23  C   UNL     1      -0.456   9.137  22.565  0.00  0.00    +0.000 A 
ATOM     24  C   UNL     1      -0.161   9.287  21.230  0.00  0.00    +0.000 A 
ATOM     25  S   UNL     1      -0.278  10.915  20.725  0.00  0.00    +0.000 S 
ENDBRANCH  20  21
ENDBRANCH  17  20
ENDBRANCH   2  14
TORSDOF 4
ENDMDL
