MODEL 1
REMARK VINA RESULT:      -8.4      0.000      0.000
REMARK  Name = 
REMARK  6 active torsions:
REMARK  status: ('A' for Active; 'I' for Inactive)
REMARK    1  A    between atoms: C_1  and  N_2
REMARK    2  A    between atoms: N_2  and  C_3
REMARK    3  A    between atoms: C_7  and  C_8
REMARK    4  A    between atoms: C_12  and  N_13
REMARK    5  A    between atoms: C_14  and  C_15
REMARK    6  A    between atoms: N_24  and  C_25
REMARK                            x       y       z     vdW  Elec       q    Type
REMARK                         _______ _______ _______ _____ _____    ______ ____
ROOT
ATOM      1  C   UNL     1       1.406  11.445  18.461  0.00  0.00    +0.000 A 
ATOM      2  N   UNL     1       2.126  10.509  17.753  0.00  0.00    +0.000 NA
ATOM      3  C   UNL     1       2.159   9.268  18.262  0.00  0.00    +0.000 A 
ATOM      4  N   UNL     1       2.769   8.159  17.747  0.00  0.00    +0.000 N 
ATOM      5  C   UNL     1       2.510   7.052  18.547  0.00  0.00    +0.000 A 
ATOM      6  C   UNL     1       1.755   7.497  19.634  0.00  0.00    +0.000 A 
ATOM      7  C   UNL     1       1.547   8.871  19.420  0.00  0.00    +0.000 A 
ATOM      8  C   UNL     1       0.854   9.787  20.140  0.00  0.00    +0.000 A 
ATOM      9  C   UNL     1       0.767  11.089  19.692  0.00  0.00    +0.000 A 
ATOM     10  N   UNL     1      -0.010  11.815  20.578  0.00  0.00    +0.000 NA
ATOM     11  C   UNL     1      -0.346  10.958  21.522  0.00  0.00    +0.000 A 
ATOM     12  N   UNL     1       0.149   9.697  21.278  0.00  0.00    +0.000 N 
ATOM     13  C   UNL     1      -0.110   8.548  22.107  0.00  0.00    +0.000 C 
ATOM     14  H   UNL     1       3.307   8.140  16.893  0.00  0.00    +0.000 HD
ENDROOT
BRANCH   5  15
ATOM     15  C   UNL     1       2.994   5.716  18.210  0.00  0.00    +0.000 A 
ATOM     16  C   UNL     1       2.113   4.715  17.820  0.00  0.00    +0.000 A 
ATOM     17  C   UNL     1       2.620   3.462  17.528  0.00  0.00    +0.000 A 
ATOM     18  C   UNL     1       3.990   3.254  17.629  0.00  0.00    +0.000 A 
ATOM     19  C   UNL     1       4.822   4.309  18.006  0.00  0.00    +0.000 A 
ATOM     20  N   UNL     1       4.340   5.534  18.297  0.00  0.00    +0.000 NA
BRANCH  19  21
ATOM     21  N   UNL     1       6.186   4.008  18.050  0.00  0.00    +0.000 N 
ATOM     22  C   UNL     1       7.288   4.665  17.615  0.00  0.00    +0.000 C 
ATOM     23  C   UNL     1       7.244   6.000  16.937  0.00  0.00    +0.000 C 
ATOM     24  O   UNL     1       8.379   4.098  17.778  0.00  0.00    +0.000 OA
ATOM     25  H   UNL     1       6.441   3.122  18.465  0.00  0.00    +0.000 HD
ENDBRANCH  19  21
ENDBRANCH   5  15
BRANCH   1  27
ATOM     26  C   UNL     1       2.389  13.613  18.285  0.00  0.00    +0.000 C 
ATOM     27  N   UNL     1       1.276  12.749  17.952  0.00  0.00    +0.000 N 
ATOM     28  H   UNL     1       1.047  12.690  16.960  0.00  0.00    +0.000 HD
ENDBRANCH   1  27
TORSDOF 3
ENDMDL
MODEL 2
REMARK VINA RESULT:      -8.3      1.500      1.708
REMARK  Name = 
REMARK  6 active torsions:
REMARK  status: ('A' for Active; 'I' for Inactive)
REMARK    1  A    between atoms: C_1  and  N_2
REMARK    2  A    between atoms: N_2  and  C_3
REMARK    3  A    between atoms: C_7  and  C_8
REMARK    4  A    between atoms: C_12  and  N_13
REMARK    5  A    between atoms: C_14  and  C_15
REMARK    6  A    between atoms: N_24  and  C_25
REMARK                            x       y       z     vdW  Elec       q    Type
REMARK                         _______ _______ _______ _____ _____    ______ ____
ROOT
ATOM      1  C   UNL     1       0.061  11.049  18.744  0.00  0.00    +0.000 A 
ATOM      2  N   UNL     1       0.802  10.053  18.149  0.00  0.00    +0.000 NA
ATOM      3  C   UNL     1       1.254   9.081  18.956  0.00  0.00    +0.000 A 
ATOM      4  N   UNL     1       1.980   7.973  18.621  0.00  0.00    +0.000 N 
ATOM      5  C   UNL     1       2.193   7.179  19.741  0.00  0.00    +0.000 A 
ATOM      6  C   UNL     1       1.626   7.843  20.830  0.00  0.00    +0.000 A 
ATOM      7  C   UNL     1       1.045   9.012  20.307  0.00  0.00    +0.000 A 
ATOM      8  C   UNL     1       0.336   9.998  20.910  0.00  0.00    +0.000 A 
ATOM      9  C   UNL     1      -0.168  11.039  20.157  0.00  0.00    +0.000 A 
ATOM     10  N   UNL     1      -0.870  11.892  20.990  0.00  0.00    +0.000 NA
ATOM     11  C   UNL     1      -0.758  11.367  22.194  0.00  0.00    +0.000 A 
ATOM     12  N   UNL     1      -0.040  10.192  22.183  0.00  0.00    +0.000 N 
ATOM     13  C   UNL     1       0.189   9.369  23.341  0.00  0.00    +0.000 C 
ATOM     14  H   UNL     1       2.293   7.748  17.687  0.00  0.00    +0.000 HD
ENDROOT
BRANCH   5  15
ATOM     15  C   UNL     1       2.896   5.900  19.669  0.00  0.00    +0.000 A 
ATOM     16  C   UNL     1       2.472   4.809  20.417  0.00  0.00    +0.000 A 
ATOM     17  C   UNL     1       3.183   3.626  20.326  0.00  0.00    +0.000 A 
ATOM     18  C   UNL     1       4.289   3.572  19.488  0.00  0.00    +0.000 A 
ATOM     19  C   UNL     1       4.649   4.700  18.747  0.00  0.00    +0.000 A 
ATOM     20  N   UNL     1       3.966   5.860  18.830  0.00  0.00    +0.000 NA
BRANCH  19  21
ATOM     21  N   UNL     1       5.756   4.537  17.911  0.00  0.00    +0.000 N 
ATOM     22  C   UNL     1       7.045   4.945  17.999  0.00  0.00    +0.000 C 
ATOM     23  C   UNL     1       7.589   5.729  19.154  0.00  0.00    +0.000 C 
ATOM     24  O   UNL     1       7.788   4.662  17.049  0.00  0.00    +0.000 OA
ATOM     25  H   UNL     1       5.601   4.036  17.047  0.00  0.00    +0.000 HD
ENDBRANCH  19  21
ENDBRANCH   5  15
BRANCH   1  27
ATOM     26  C   UNL     1      -1.871  11.807  17.563  0.00  0.00    +0.000 C 
ATOM     27  N   UNL     1      -0.499  12.064  17.949  0.00  0.00    +0.000 N 
ATOM     28  H   UNL     1      -0.331  12.962  18.401  0.00  0.00    +0.000 HD
ENDBRANCH   1  27
TORSDOF 3
ENDMDL
MODEL 3
REMARK VINA RESULT:      -8.3      3.381      7.767
REMARK  Name = 
REMARK  6 active torsions:
REMARK  status: ('A' for Active; 'I' for Inactive)
REMARK    1  A    between atoms: C_1  and  N_2
REMARK    2  A    between atoms: N_2  and  C_3
REMARK    3  A    between atoms: C_7  and  C_8
REMARK    4  A    between atoms: C_12  and  N_13
REMARK    5  A    between atoms: C_14  and  C_15
REMARK    6  A    between atoms: N_24  and  C_25
REMARK                            x       y       z     vdW  Elec       q    Type
REMARK                         _______ _______ _______ _____ _____    ______ ____
ROOT
ATOM      1  C   UNL     1       5.211   4.593  18.121  0.00  0.00    +0.000 A 
ATOM      2  N   UNL     1       4.747   5.850  17.804  0.00  0.00    +0.000 NA
ATOM      3  C   UNL     1       3.687   6.289  18.499  0.00  0.00    +0.000 A 
ATOM      4  N   UNL     1       3.056   7.498  18.406  0.00  0.00    +0.000 N 
ATOM      5  C   UNL     1       2.038   7.585  19.348  0.00  0.00    +0.000 A 
ATOM      6  C   UNL     1       1.995   6.362  20.022  0.00  0.00    +0.000 A 
ATOM      7  C   UNL     1       3.036   5.588  19.478  0.00  0.00    +0.000 A 
ATOM      8  C   UNL     1       3.467   4.339  19.784  0.00  0.00    +0.000 A 
ATOM      9  C   UNL     1       4.552   3.806  19.119  0.00  0.00    +0.000 A 
ATOM     10  N   UNL     1       4.810   2.545  19.626  0.00  0.00    +0.000 NA
ATOM     11  C   UNL     1       3.886   2.348  20.547  0.00  0.00    +0.000 A 
ATOM     12  N   UNL     1       3.054   3.436  20.686  0.00  0.00    +0.000 N 
ATOM     13  C   UNL     1       1.995   3.529  21.657  0.00  0.00    +0.000 C 
ATOM     14  H   UNL     1       3.310   8.233  17.763  0.00  0.00    +0.000 HD
ENDROOT
BRANCH   5  15
ATOM     15  C   UNL     1       1.227   8.788  19.512  0.00  0.00    +0.000 A 
ATOM     16  C   UNL     1       1.162   9.443  20.736  0.00  0.00    +0.000 A 
ATOM     17  C   UNL     1       0.366  10.570  20.843  0.00  0.00    +0.000 A 
ATOM     18  C   UNL     1      -0.331  11.006  19.724  0.00  0.00    +0.000 A 
ATOM     19  C   UNL     1      -0.205  10.313  18.519  0.00  0.00    +0.000 A 
ATOM     20  N   UNL     1       0.565   9.212  18.402  0.00  0.00    +0.000 NA
BRANCH  19  21
ATOM     21  N   UNL     1      -0.921  10.847  17.445  0.00  0.00    +0.000 N 
ATOM     22  C   UNL     1      -2.172  10.630  16.974  0.00  0.00    +0.000 C 
ATOM     23  C   UNL     1      -3.140   9.674  17.601  0.00  0.00    +0.000 C 
ATOM     24  O   UNL     1      -2.503  11.252  15.954  0.00  0.00    +0.000 OA
ATOM     25  H   UNL     1      -0.436  11.519  16.866  0.00  0.00    +0.000 HD
ENDBRANCH  19  21
ENDBRANCH   5  15
BRANCH   1  27
ATOM     26  C   UNL     1       7.493   4.992  17.545  0.00  0.00    +0.000 C 
ATOM     27  N   UNL     1       6.357   4.096  17.477  0.00  0.00    +0.000 N 
ATOM     28  H   UNL     1       6.528   3.145  17.804  0.00  0.00    +0.000 HD
ENDBRANCH   1  27
TORSDOF 3
ENDMDL
MODEL 4
REMARK VINA RESULT:      -8.2      3.403      8.199
REMARK  Name = 
REMARK  6 active torsions:
REMARK  status: ('A' for Active; 'I' for Inactive)
REMARK    1  A    between atoms: C_1  and  N_2
REMARK    2  A    between atoms: N_2  and  C_3
REMARK    3  A    between atoms: C_7  and  C_8
REMARK    4  A    between atoms: C_12  and  N_13
REMARK    5  A    between atoms: C_14  and  C_15
REMARK    6  A    between atoms: N_24  and  C_25
REMARK                            x       y       z     vdW  Elec       q    Type
REMARK                         _______ _______ _______ _____ _____    ______ ____
ROOT
ATOM      1  C   UNL     1       4.733   3.989  19.064  0.00  0.00    +0.000 A 
ATOM      2  N   UNL     1       3.837   4.699  19.832  0.00  0.00    +0.000 NA
ATOM      3  C   UNL     1       3.393   5.856  19.318  0.00  0.00    +0.000 A 
ATOM      4  N   UNL     1       2.488   6.728  19.855  0.00  0.00    +0.000 N 
ATOM      5  C   UNL     1       2.250   7.777  18.976  0.00  0.00    +0.000 A 
ATOM      6  C   UNL     1       3.079   7.584  17.869  0.00  0.00    +0.000 A 
ATOM      7  C   UNL     1       3.765   6.381  18.110  0.00  0.00    +0.000 A 
ATOM      8  C   UNL     1       4.665   5.704  17.353  0.00  0.00    +0.000 A 
ATOM      9  C   UNL     1       5.175   4.504  17.804  0.00  0.00    +0.000 A 
ATOM     10  N   UNL     1       6.041   4.002  16.848  0.00  0.00    +0.000 NA
ATOM     11  C   UNL     1       6.045   4.898  15.881  0.00  0.00    +0.000 A 
ATOM     12  N   UNL     1       5.196   5.950  16.146  0.00  0.00    +0.000 N 
ATOM     13  C   UNL     1       4.950   7.043  15.242  0.00  0.00    +0.000 C 
ATOM     14  H   UNL     1       2.035   6.611  20.750  0.00  0.00    +0.000 HD
ENDROOT
BRANCH   5  15
ATOM     15  C   UNL     1       1.283   8.834  19.266  0.00  0.00    +0.000 A 
ATOM     16  C   UNL     1       1.094   9.291  20.564  0.00  0.00    +0.000 A 
ATOM     17  C   UNL     1       0.155  10.282  20.787  0.00  0.00    +0.000 A 
ATOM     18  C   UNL     1      -0.558  10.785  19.707  0.00  0.00    +0.000 A 
ATOM     19  C   UNL     1      -0.303  10.296  18.424  0.00  0.00    +0.000 A 
ATOM     20  N   UNL     1       0.607   9.328  18.194  0.00  0.00    +0.000 NA
BRANCH  19  21
ATOM     21  N   UNL     1      -1.048  10.886  17.400  0.00  0.00    +0.000 N 
ATOM     22  C   UNL     1      -2.292  10.657  16.917  0.00  0.00    +0.000 C 
ATOM     23  C   UNL     1      -3.215   9.612  17.466  0.00  0.00    +0.000 C 
ATOM     24  O   UNL     1      -2.656  11.347  15.953  0.00  0.00    +0.000 OA
ATOM     25  H   UNL     1      -0.595  11.624  16.878  0.00  0.00    +0.000 HD
ENDBRANCH  19  21
ENDBRANCH   5  15
BRANCH   1  27
ATOM     26  C   UNL     1       4.302   2.107  20.468  0.00  0.00    +0.000 C 
ATOM     27  N   UNL     1       5.189   2.738  19.512  0.00  0.00    +0.000 N 
ATOM     28  H   UNL     1       5.434   2.171  18.700  0.00  0.00    +0.000 HD
ENDBRANCH   1  27
TORSDOF 3
ENDMDL
MODEL 5
REMARK VINA RESULT:      -8.1      3.198      7.755
REMARK  Name = 
REMARK  6 active torsions:
REMARK  status: ('A' for Active; 'I' for Inactive)
REMARK    1  A    between atoms: C_1  and  N_2
REMARK    2  A    between atoms: N_2  and  C_3
REMARK    3  A    between atoms: C_7  and  C_8
REMARK    4  A    between atoms: C_12  and  N_13
REMARK    5  A    between atoms: C_14  and  C_15
REMARK    6  A    between atoms: N_24  and  C_25
REMARK                            x       y       z     vdW  Elec       q    Type
REMARK                         _______ _______ _______ _____ _____    ______ ____
ROOT
ATOM      1  C   UNL     1       4.159   4.951  17.550  0.00  0.00    +0.000 A 
ATOM      2  N   UNL     1       3.699   6.248  17.591  0.00  0.00    +0.000 NA
ATOM      3  C   UNL     1       2.926   6.576  18.638  0.00  0.00    +0.000 A 
ATOM      4  N   UNL     1       2.370   7.789  18.931  0.00  0.00    +0.000 N 
ATOM      5  C   UNL     1       1.693   7.729  20.142  0.00  0.00    +0.000 A 
ATOM      6  C   UNL     1       1.781   6.412  20.599  0.00  0.00    +0.000 A 
ATOM      7  C   UNL     1       2.560   5.729  19.648  0.00  0.00    +0.000 A 
ATOM      8  C   UNL     1       2.987   4.442  19.609  0.00  0.00    +0.000 A 
ATOM      9  C   UNL     1       3.786   4.016  18.568  0.00  0.00    +0.000 A 
ATOM     10  N   UNL     1       4.109   2.685  18.770  0.00  0.00    +0.000 NA
ATOM     11  C   UNL     1       3.496   2.348  19.888  0.00  0.00    +0.000 A 
ATOM     12  N   UNL     1       2.812   3.406  20.444  0.00  0.00    +0.000 N 
ATOM     13  C   UNL     1       2.103   3.348  21.695  0.00  0.00    +0.000 C 
ATOM     14  H   UNL     1       2.463   8.619  18.363  0.00  0.00    +0.000 HD
ENDROOT
BRANCH   5  15
ATOM     15  C   UNL     1       1.043   8.897  20.732  0.00  0.00    +0.000 A 
ATOM     16  C   UNL     1       0.566   8.865  22.037  0.00  0.00    +0.000 A 
ATOM     17  C   UNL     1      -0.056   9.992  22.543  0.00  0.00    +0.000 A 
ATOM     18  C   UNL     1      -0.174  11.113  21.732  0.00  0.00    +0.000 A 
ATOM     19  C   UNL     1       0.347  11.086  20.437  0.00  0.00    +0.000 A 
ATOM     20  N   UNL     1       0.953   9.992  19.931  0.00  0.00    +0.000 NA
BRANCH  19  21
ATOM     21  N   UNL     1       0.206  12.271  19.710  0.00  0.00    +0.000 N 
ATOM     22  C   UNL     1      -0.637  12.650  18.721  0.00  0.00    +0.000 C 
ATOM     23  C   UNL     1      -1.713  11.768  18.166  0.00  0.00    +0.000 C 
ATOM     24  O   UNL     1      -0.476  13.786  18.251  0.00  0.00    +0.000 OA
ATOM     25  H   UNL     1       0.860  13.012  19.923  0.00  0.00    +0.000 HD
ENDBRANCH  19  21
ENDBRANCH   5  15
BRANCH   1  27
ATOM     26  C   UNL     1       6.428   4.702  16.850  0.00  0.00    +0.000 C 
ATOM     27  N   UNL     1       5.026   4.556  16.517  0.00  0.00    +0.000 N 
ATOM     28  H   UNL     1       4.746   3.631  16.192  0.00  0.00    +0.000 HD
ENDBRANCH   1  27
TORSDOF 3
ENDMDL
MODEL 6
REMARK VINA RESULT:      -8.0      1.666      1.817
REMARK  Name = 
REMARK  6 active torsions:
REMARK  status: ('A' for Active; 'I' for Inactive)
REMARK    1  A    between atoms: C_1  and  N_2
REMARK    2  A    between atoms: N_2  and  C_3
REMARK    3  A    between atoms: C_7  and  C_8
REMARK    4  A    between atoms: C_12  and  N_13
REMARK    5  A    between atoms: C_14  and  C_15
REMARK    6  A    between atoms: N_24  and  C_25
REMARK                            x       y       z     vdW  Elec       q    Type
REMARK                         _______ _______ _______ _____ _____    ______ ____
ROOT
ATOM      1  C   UNL     1      -0.462  11.661  19.121  0.00  0.00    +0.000 A 
ATOM      2  N   UNL     1       0.320  10.820  18.361  0.00  0.00    +0.000 NA
ATOM      3  C   UNL     1       0.883   9.784  19.002  0.00  0.00    +0.000 A 
ATOM      4  N   UNL     1       1.670   8.795  18.482  0.00  0.00    +0.000 N 
ATOM      5  C   UNL     1       1.997   7.872  19.467  0.00  0.00    +0.000 A 
ATOM      6  C   UNL     1       1.438   8.329  20.663  0.00  0.00    +0.000 A 
ATOM      7  C   UNL     1       0.748   9.510  20.335  0.00  0.00    +0.000 A 
ATOM      8  C   UNL     1      -0.001  10.342  21.101  0.00  0.00    +0.000 A 
ATOM      9  C   UNL     1      -0.617  11.435  20.526  0.00  0.00    +0.000 A 
ATOM     10  N   UNL     1      -1.337  12.104  21.500  0.00  0.00    +0.000 NA
ATOM     11  C   UNL     1      -1.126  11.426  22.611  0.00  0.00    +0.000 A 
ATOM     12  N   UNL     1      -0.326  10.325  22.403  0.00  0.00    +0.000 N 
ATOM     13  C   UNL     1       0.022   9.369  23.421  0.00  0.00    +0.000 C 
ATOM     14  H   UNL     1       1.951   8.729  17.515  0.00  0.00    +0.000 HD
ENDROOT
BRANCH   5  15
ATOM     15  C   UNL     1       2.788   6.676  19.185  0.00  0.00    +0.000 A 
ATOM     16  C   UNL     1       2.572   5.496  19.885  0.00  0.00    +0.000 A 
ATOM     17  C   UNL     1       3.359   4.398  19.592  0.00  0.00    +0.000 A 
ATOM     18  C   UNL     1       4.330   4.514  18.606  0.00  0.00    +0.000 A 
ATOM     19  C   UNL     1       4.481   5.723  17.926  0.00  0.00    +0.000 A 
ATOM     20  N   UNL     1       3.722   6.803  18.205  0.00  0.00    +0.000 NA
BRANCH  19  21
ATOM     21  N   UNL     1       5.463   5.732  16.932  0.00  0.00    +0.000 N 
ATOM     22  C   UNL     1       6.779   6.051  16.940  0.00  0.00    +0.000 C 
ATOM     23  C   UNL     1       7.517   6.494  18.167  0.00  0.00    +0.000 C 
ATOM     24  O   UNL     1       7.379   5.987  15.857  0.00  0.00    +0.000 OA
ATOM     25  H   UNL     1       5.167   5.473  16.000  0.00  0.00    +0.000 HD
ENDBRANCH  19  21
ENDBRANCH   5  15
BRANCH   1  27
ATOM     26  C   UNL     1      -0.394  13.973  18.534  0.00  0.00    +0.000 C 
ATOM     27  N   UNL     1      -1.134  12.729  18.502  0.00  0.00    +0.000 N 
ATOM     28  H   UNL     1      -1.445  12.427  17.580  0.00  0.00    +0.000 HD
ENDBRANCH   1  27
TORSDOF 3
ENDMDL
MODEL 7
REMARK VINA RESULT:      -8.0      3.115      7.708
REMARK  Name = 
REMARK  6 active torsions:
REMARK  status: ('A' for Active; 'I' for Inactive)
REMARK    1  A    between atoms: C_1  and  N_2
REMARK    2  A    between atoms: N_2  and  C_3
REMARK    3  A    between atoms: C_7  and  C_8
REMARK    4  A    between atoms: C_12  and  N_13
REMARK    5  A    between atoms: C_14  and  C_15
REMARK    6  A    between atoms: N_24  and  C_25
REMARK                            x       y       z     vdW  Elec       q    Type
REMARK                         _______ _______ _______ _____ _____    ______ ____
ROOT
ATOM      1  C   UNL     1       4.831   4.338  17.420  0.00  0.00    +0.000 A 
ATOM      2  N   UNL     1       4.498   5.625  17.062  0.00  0.00    +0.000 NA
ATOM      3  C   UNL     1       3.628   6.262  17.861  0.00  0.00    +0.000 A 
ATOM      4  N   UNL     1       3.158   7.540  17.750  0.00  0.00    +0.000 N 
ATOM      5  C   UNL     1       2.321   7.841  18.818  0.00  0.00    +0.000 A 
ATOM      6  C   UNL     1       2.219   6.687  19.598  0.00  0.00    +0.000 A 
ATOM      7  C   UNL     1       3.048   5.733  18.982  0.00  0.00    +0.000 A 
ATOM      8  C   UNL     1       3.349   4.458  19.334  0.00  0.00    +0.000 A 
ATOM      9  C   UNL     1       4.236   3.727  18.570  0.00  0.00    +0.000 A 
ATOM     10  N   UNL     1       4.397   2.479  19.146  0.00  0.00    +0.000 NA
ATOM     11  C   UNL     1       3.610   2.485  20.204  0.00  0.00    +0.000 A 
ATOM     12  N   UNL     1       2.964   3.690  20.364  0.00  0.00    +0.000 N 
ATOM     13  C   UNL     1       2.091   4.004  21.465  0.00  0.00    +0.000 C 
ATOM     14  H   UNL     1       3.406   8.185  17.014  0.00  0.00    +0.000 HD
ENDROOT
BRANCH   5  15
ATOM     15  C   UNL     1       1.716   9.159  18.988  0.00  0.00    +0.000 A 
ATOM     16  C   UNL     1       1.982  10.188  18.094  0.00  0.00    +0.000 A 
ATOM     17  C   UNL     1       1.397  11.422  18.309  0.00  0.00    +0.000 A 
ATOM     18  C   UNL     1       0.561  11.584  19.406  0.00  0.00    +0.000 A 
ATOM     19  C   UNL     1       0.318  10.503  20.255  0.00  0.00    +0.000 A 
ATOM     20  N   UNL     1       0.886   9.295  20.058  0.00  0.00    +0.000 NA
BRANCH  19  21
ATOM     21  N   UNL     1      -0.559  10.757  21.312  0.00  0.00    +0.000 N 
ATOM     22  C   UNL     1      -0.601  10.331  22.597  0.00  0.00    +0.000 C 
ATOM     23  C   UNL     1       0.414   9.407  23.197  0.00  0.00    +0.000 C 
ATOM     24  O   UNL     1      -1.554  10.721  23.286  0.00  0.00    +0.000 OA
ATOM     25  H   UNL     1      -1.345  11.361  21.113  0.00  0.00    +0.000 HD
ENDBRANCH  19  21
ENDBRANCH   5  15
BRANCH   1  27
ATOM     26  C   UNL     1       5.885   4.087  15.293  0.00  0.00    +0.000 C 
ATOM     27  N   UNL     1       5.786   3.635  16.665  0.00  0.00    +0.000 N 
ATOM     28  H   UNL     1       6.662   3.615  17.186  0.00  0.00    +0.000 HD
ENDBRANCH   1  27
TORSDOF 3
ENDMDL
MODEL 8
REMARK VINA RESULT:      -7.9      2.858      7.443
REMARK  Name = 
REMARK  6 active torsions:
REMARK  status: ('A' for Active; 'I' for Inactive)
REMARK    1  A    between atoms: C_1  and  N_2
REMARK    2  A    between atoms: N_2  and  C_3
REMARK    3  A    between atoms: C_7  and  C_8
REMARK    4  A    between atoms: C_12  and  N_13
REMARK    5  A    between atoms: C_14  and  C_15
REMARK    6  A    between atoms: N_24  and  C_25
REMARK                            x       y       z     vdW  Elec       q    Type
REMARK                         _______ _______ _______ _____ _____    ______ ____
ROOT
ATOM      1  C   UNL     1       5.048   4.692  17.484  0.00  0.00    +0.000 A 
ATOM      2  N   UNL     1       4.706   5.966  17.091  0.00  0.00    +0.000 NA
ATOM      3  C   UNL     1       3.740   6.571  17.799  0.00  0.00    +0.000 A 
ATOM      4  N   UNL     1       3.238   7.832  17.640  0.00  0.00    +0.000 N 
ATOM      5  C   UNL     1       2.292   8.102  18.620  0.00  0.00    +0.000 A 
ATOM      6  C   UNL     1       2.155   6.946  19.391  0.00  0.00    +0.000 A 
ATOM      7  C   UNL     1       3.073   6.022  18.861  0.00  0.00    +0.000 A 
ATOM      8  C   UNL     1       3.384   4.758  19.245  0.00  0.00    +0.000 A 
ATOM      9  C   UNL     1       4.366   4.060  18.572  0.00  0.00    +0.000 A 
ATOM     10  N   UNL     1       4.515   2.819  19.166  0.00  0.00    +0.000 NA
ATOM     11  C   UNL     1       3.629   2.796  20.143  0.00  0.00    +0.000 A 
ATOM     12  N   UNL     1       2.928   3.977  20.235  0.00  0.00    +0.000 N 
ATOM     13  C   UNL     1       1.942   4.260  21.245  0.00  0.00    +0.000 C 
ATOM     14  H   UNL     1       3.534   8.485  16.929  0.00  0.00    +0.000 HD
ENDROOT
BRANCH   5  15
ATOM     15  C   UNL     1       1.626   9.398  18.727  0.00  0.00    +0.000 A 
ATOM     16  C   UNL     1       0.394   9.518  19.358  0.00  0.00    +0.000 A 
ATOM     17  C   UNL     1      -0.203  10.764  19.417  0.00  0.00    +0.000 A 
ATOM     18  C   UNL     1       0.454  11.848  18.850  0.00  0.00    +0.000 A 
ATOM     19  C   UNL     1       1.701  11.663  18.250  0.00  0.00    +0.000 A 
ATOM     20  N   UNL     1       2.291  10.452  18.182  0.00  0.00    +0.000 NA
BRANCH  19  21
ATOM     21  N   UNL     1       2.295  12.818  17.735  0.00  0.00    +0.000 N 
ATOM     22  C   UNL     1       2.891  13.885  18.319  0.00  0.00    +0.000 C 
ATOM     23  C   UNL     1       3.055  14.035  19.800  0.00  0.00    +0.000 C 
ATOM     24  O   UNL     1       3.294  14.783  17.566  0.00  0.00    +0.000 OA
ATOM     25  H   UNL     1       2.279  12.926  16.730  0.00  0.00    +0.000 HD
ENDBRANCH  19  21
ENDBRANCH   5  15
BRANCH   1  27
ATOM     26  C   UNL     1       7.404   4.572  17.120  0.00  0.00    +0.000 C 
ATOM     27  N   UNL     1       6.096   4.023  16.828  0.00  0.00    +0.000 N 
ATOM     28  H   UNL     1       5.995   3.022  16.989  0.00  0.00    +0.000 HD
ENDBRANCH   1  27
TORSDOF 3
ENDMDL
MODEL 9
REMARK VINA RESULT:      -7.9      1.228      2.820
REMARK  Name = 
REMARK  6 active torsions:
REMARK  status: ('A' for Active; 'I' for Inactive)
REMARK    1  A    between atoms: C_1  and  N_2
REMARK    2  A    between atoms: N_2  and  C_3
REMARK    3  A    between atoms: C_7  and  C_8
REMARK    4  A    between atoms: C_12  and  N_13
REMARK    5  A    between atoms: C_14  and  C_15
REMARK    6  A    between atoms: N_24  and  C_25
REMARK                            x       y       z     vdW  Elec       q    Type
REMARK                         _______ _______ _______ _____ _____    ______ ____
ROOT
ATOM      1  C   UNL     1       0.223   9.816  22.125  0.00  0.00    +0.000 A 
ATOM      2  N   UNL     1       0.504   8.472  22.024  0.00  0.00    +0.000 NA
ATOM      3  C   UNL     1       1.132   8.074  20.907  0.00  0.00    +0.000 A 
ATOM      4  N   UNL     1       1.549   6.816  20.573  0.00  0.00    +0.000 N 
ATOM      5  C   UNL     1       2.219   6.837  19.357  0.00  0.00    +0.000 A 
ATOM      6  C   UNL     1       2.173   8.151  18.884  0.00  0.00    +0.000 A 
ATOM      7  C   UNL     1       1.502   8.891  19.873  0.00  0.00    +0.000 A 
ATOM      8  C   UNL     1       1.211  10.213  19.949  0.00  0.00    +0.000 A 
ATOM      9  C   UNL     1       0.565  10.711  21.062  0.00  0.00    +0.000 A 
ATOM     10  N   UNL     1       0.410  12.078  20.913  0.00  0.00    +0.000 NA
ATOM     11  C   UNL     1       0.936  12.358  19.737  0.00  0.00    +0.000 A 
ATOM     12  N   UNL     1       1.456  11.241  19.122  0.00  0.00    +0.000 N 
ATOM     13  C   UNL     1       2.146  11.256  17.859  0.00  0.00    +0.000 C 
ATOM     14  H   UNL     1       1.414   5.993  21.143  0.00  0.00    +0.000 HD
ENDROOT
BRANCH   5  15
ATOM     15  C   UNL     1       2.822   5.640  18.776  0.00  0.00    +0.000 A 
ATOM     16  C   UNL     1       2.038   4.675  18.157  0.00  0.00    +0.000 A 
ATOM     17  C   UNL     1       2.655   3.551  17.639  0.00  0.00    +0.000 A 
ATOM     18  C   UNL     1       4.035   3.433  17.751  0.00  0.00    +0.000 A 
ATOM     19  C   UNL     1       4.766   4.450  18.366  0.00  0.00    +0.000 A 
ATOM     20  N   UNL     1       4.176   5.549  18.879  0.00  0.00    +0.000 NA
BRANCH  19  21
ATOM     21  N   UNL     1       6.149   4.254  18.403  0.00  0.00    +0.000 N 
ATOM     22  C   UNL     1       7.139   4.503  17.513  0.00  0.00    +0.000 C 
ATOM     23  C   UNL     1       6.907   5.120  16.167  0.00  0.00    +0.000 C 
ATOM     24  O   UNL     1       8.287   4.172  17.843  0.00  0.00    +0.000 OA
ATOM     25  H   UNL     1       6.523   3.825  19.238  0.00  0.00    +0.000 HD
ENDBRANCH  19  21
ENDBRANCH   5  15
BRANCH   1  27
ATOM     26  C   UNL     1      -1.563  11.103  23.048  0.00  0.00    +0.000 C 
ATOM     27  N   UNL     1      -0.376  10.311  23.296  0.00  0.00    +0.000 N 
ATOM     28  H   UNL     1      -0.492   9.541  23.954  0.00  0.00    +0.000 HD
ENDBRANCH   1  27
TORSDOF 3
ENDMDL
