MODEL 1
REMARK VINA RESULT:      -7.4      0.000      0.000
REMARK  Name = 
REMARK  4 active torsions:
REMARK  status: ('A' for Active; 'I' for Inactive)
REMARK    1  A    between atoms: C_1  and  C_2
REMARK    2  A    between atoms: C_2  and  C_3
REMARK    3  A    between atoms: C_3  and  C_4
REMARK    4  A    between atoms: C_7  and  N_8
REMARK                            x       y       z     vdW  Elec       q    Type
REMARK                         _______ _______ _______ _____ _____    ______ ____
ROOT
ATOM      1  C   UNL     1       6.819   6.119  17.755  0.00  0.00    +0.000 A 
ATOM      2  N   UNL     1       5.852   5.782  18.646  0.00  0.00    +0.000 NA
ATOM      3  C   UNL     1       4.879   4.922  18.273  0.00  0.00    +0.000 A 
ATOM      4  C   UNL     1       4.717   4.351  17.007  0.00  0.00    +0.000 A 
ATOM      5  C   UNL     1       5.707   4.711  16.061  0.00  0.00    +0.000 A 
ATOM      6  C   UNL     1       6.730   5.581  16.464  0.00  0.00    +0.000 A 
ATOM      7  N   UNL     1       7.564   5.752  15.386  0.00  0.00    +0.000 N 
ATOM      8  C   UNL     1       7.132   5.042  14.297  0.00  0.00    +0.000 A 
ATOM      9  C   UNL     1       7.692   4.941  13.017  0.00  0.00    +0.000 A 
ATOM     10  C   UNL     1       7.036   4.140  12.081  0.00  0.00    +0.000 A 
ATOM     11  C   UNL     1       5.867   3.469  12.417  0.00  0.00    +0.000 A 
ATOM     12  C   UNL     1       5.324   3.577  13.705  0.00  0.00    +0.000 A 
ATOM     13  C   UNL     1       5.965   4.379  14.678  0.00  0.00    +0.000 A 
ATOM     14  H   UNL     1       8.396   6.326  15.390  0.00  0.00    +0.000 HD
ENDROOT
BRANCH   4  15
ATOM     15  N   UNL     1       3.696   3.411  16.790  0.00  0.00    +0.000 N 
ATOM     16  H   UNL     1       4.021   2.533  16.396  0.00  0.00    +0.000 HD
ATOM     17  H   UNL     1       3.083   3.281  17.584  0.00  0.00    +0.000 HD
ENDBRANCH   4  15
BRANCH   1  18
ATOM     18  C   UNL     1       7.914   7.031  18.241  0.00  0.00    +0.000 C 
BRANCH  18  20
ATOM     19  C   UNL     1       8.602   9.451  18.403  0.00  0.00    +0.000 C 
ATOM     20  C   UNL     1       7.793   8.426  17.624  0.00  0.00    +0.000 C 
ENDBRANCH  18  20
ENDBRANCH   1  18
TORSDOF 3
ENDMDL
MODEL 2
REMARK VINA RESULT:      -7.2      2.472      5.341
REMARK  Name = 
REMARK  4 active torsions:
REMARK  status: ('A' for Active; 'I' for Inactive)
REMARK    1  A    between atoms: C_1  and  C_2
REMARK    2  A    between atoms: C_2  and  C_3
REMARK    3  A    between atoms: C_3  and  C_4
REMARK    4  A    between atoms: C_7  and  N_8
REMARK                            x       y       z     vdW  Elec       q    Type
REMARK                         _______ _______ _______ _____ _____    ______ ____
ROOT
ATOM      1  C   UNL     1       5.835   5.285  16.360  0.00  0.00    +0.000 A 
ATOM      2  N   UNL     1       5.801   6.641  16.318  0.00  0.00    +0.000 NA
ATOM      3  C   UNL     1       4.800   7.298  16.943  0.00  0.00    +0.000 A 
ATOM      4  C   UNL     1       3.721   6.718  17.617  0.00  0.00    +0.000 A 
ATOM      5  C   UNL     1       3.732   5.302  17.651  0.00  0.00    +0.000 A 
ATOM      6  C   UNL     1       4.790   4.629  17.025  0.00  0.00    +0.000 A 
ATOM      7  N   UNL     1       4.584   3.284  17.217  0.00  0.00    +0.000 N 
ATOM      8  C   UNL     1       3.440   3.046  17.933  0.00  0.00    +0.000 A 
ATOM      9  C   UNL     1       2.879   1.831  18.342  0.00  0.00    +0.000 A 
ATOM     10  C   UNL     1       1.687   1.875  19.067  0.00  0.00    +0.000 A 
ATOM     11  C   UNL     1       1.084   3.091  19.367  0.00  0.00    +0.000 A 
ATOM     12  C   UNL     1       1.664   4.298  18.953  0.00  0.00    +0.000 A 
ATOM     13  C   UNL     1       2.872   4.288  18.219  0.00  0.00    +0.000 A 
ATOM     14  H   UNL     1       5.199   2.556  16.879  0.00  0.00    +0.000 HD
ENDROOT
BRANCH   4  15
ATOM     15  N   UNL     1       2.794   7.534  18.286  0.00  0.00    +0.000 N 
ATOM     16  H   UNL     1       3.218   8.262  18.853  0.00  0.00    +0.000 HD
ATOM     17  H   UNL     1       2.052   7.882  17.693  0.00  0.00    +0.000 HD
ENDBRANCH   4  15
BRANCH   1  18
ATOM     18  C   UNL     1       7.006   4.605  15.701  0.00  0.00    +0.000 C 
BRANCH  18  20
ATOM     19  C   UNL     1       5.977   3.818  13.540  0.00  0.00    +0.000 C 
ATOM     20  C   UNL     1       6.968   4.775  14.182  0.00  0.00    +0.000 C 
ENDBRANCH  18  20
ENDBRANCH   1  18
TORSDOF 3
ENDMDL
MODEL 3
REMARK VINA RESULT:      -7.1      1.654      4.250
REMARK  Name = 
REMARK  4 active torsions:
REMARK  status: ('A' for Active; 'I' for Inactive)
REMARK    1  A    between atoms: C_1  and  C_2
REMARK    2  A    between atoms: C_2  and  C_3
REMARK    3  A    between atoms: C_3  and  C_4
REMARK    4  A    between atoms: C_7  and  N_8
REMARK                            x       y       z     vdW  Elec       q    Type
REMARK                         _______ _______ _______ _____ _____    ______ ____
ROOT
ATOM      1  C   UNL     1       7.045   6.166  17.319  0.00  0.00    +0.000 A 
ATOM      2  N   UNL     1       7.588   5.901  16.104  0.00  0.00    +0.000 NA
ATOM      3  C   UNL     1       6.913   5.121  15.232  0.00  0.00    +0.000 A 
ATOM      4  C   UNL     1       5.687   4.488  15.462  0.00  0.00    +0.000 A 
ATOM      5  C   UNL     1       5.118   4.738  16.733  0.00  0.00    +0.000 A 
ATOM      6  C   UNL     1       5.812   5.572  17.622  0.00  0.00    +0.000 A 
ATOM      7  N   UNL     1       5.049   5.674  18.761  0.00  0.00    +0.000 N 
ATOM      8  C   UNL     1       3.895   4.942  18.661  0.00  0.00    +0.000 A 
ATOM      9  C   UNL     1       2.856   4.782  19.586  0.00  0.00    +0.000 A 
ATOM     10  C   UNL     1       1.783   3.965  19.226  0.00  0.00    +0.000 A 
ATOM     11  C   UNL     1       1.756   3.335  17.988  0.00  0.00    +0.000 A 
ATOM     12  C   UNL     1       2.803   3.511  17.072  0.00  0.00    +0.000 A 
ATOM     13  C   UNL     1       3.904   4.335  17.405  0.00  0.00    +0.000 A 
ATOM     14  H   UNL     1       5.300   6.222  19.572  0.00  0.00    +0.000 HD
ENDROOT
BRANCH   4  15
ATOM     15  N   UNL     1       5.068   3.767  14.427  0.00  0.00    +0.000 N 
ATOM     16  H   UNL     1       4.545   2.957  14.745  0.00  0.00    +0.000 HD
ATOM     17  H   UNL     1       4.545   4.344  13.782  0.00  0.00    +0.000 HD
ENDBRANCH   4  15
BRANCH   1  18
ATOM     18  C   UNL     1       7.809   7.090  18.228  0.00  0.00    +0.000 C 
BRANCH  18  20
ATOM     19  C   UNL     1       8.687   9.431  18.550  0.00  0.00    +0.000 C 
ATOM     20  C   UNL     1       7.936   8.490  17.623  0.00  0.00    +0.000 C 
ENDBRANCH  18  20
ENDBRANCH   1  18
TORSDOF 3
ENDMDL
MODEL 4
REMARK VINA RESULT:      -7.1      1.866      5.711
REMARK  Name = 
REMARK  4 active torsions:
REMARK  status: ('A' for Active; 'I' for Inactive)
REMARK    1  A    between atoms: C_1  and  C_2
REMARK    2  A    between atoms: C_2  and  C_3
REMARK    3  A    between atoms: C_3  and  C_4
REMARK    4  A    between atoms: C_7  and  N_8
REMARK                            x       y       z     vdW  Elec       q    Type
REMARK                         _______ _______ _______ _____ _____    ______ ____
ROOT
ATOM      1  C   UNL     1       5.996   4.179  15.759  0.00  0.00    +0.000 A 
ATOM      2  N   UNL     1       7.248   4.565  16.114  0.00  0.00    +0.000 NA
ATOM      3  C   UNL     1       7.490   4.936  17.391  0.00  0.00    +0.000 A 
ATOM      4  C   UNL     1       6.550   5.019  18.423  0.00  0.00    +0.000 A 
ATOM      5  C   UNL     1       5.234   4.640  18.062  0.00  0.00    +0.000 A 
ATOM      6  C   UNL     1       4.998   4.228  16.742  0.00  0.00    +0.000 A 
ATOM      7  N   UNL     1       3.668   3.895  16.654  0.00  0.00    +0.000 N 
ATOM      8  C   UNL     1       3.023   4.075  17.850  0.00  0.00    +0.000 A 
ATOM      9  C   UNL     1       1.682   3.852  18.184  0.00  0.00    +0.000 A 
ATOM     10  C   UNL     1       1.282   4.125  19.493  0.00  0.00    +0.000 A 
ATOM     11  C   UNL     1       2.193   4.605  20.426  0.00  0.00    +0.000 A 
ATOM     12  C   UNL     1       3.533   4.818  20.075  0.00  0.00    +0.000 A 
ATOM     13  C   UNL     1       3.971   4.548  18.758  0.00  0.00    +0.000 A 
ATOM     14  H   UNL     1       3.216   3.554  15.816  0.00  0.00    +0.000 HD
ENDROOT
BRANCH   4  15
ATOM     15  N   UNL     1       6.967   5.349  19.723  0.00  0.00    +0.000 N 
ATOM     16  H   UNL     1       7.689   4.738  20.092  0.00  0.00    +0.000 HD
ATOM     17  H   UNL     1       7.181   6.329  19.847  0.00  0.00    +0.000 HD
ENDBRANCH   4  15
BRANCH   1  18
ATOM     18  C   UNL     1       5.795   3.716  14.341  0.00  0.00    +0.000 C 
BRANCH  18  20
ATOM     19  C   UNL     1       6.809   3.686  12.034  0.00  0.00    +0.000 C 
ATOM     20  C   UNL     1       6.801   4.369  13.392  0.00  0.00    +0.000 C 
ENDBRANCH  18  20
ENDBRANCH   1  18
TORSDOF 3
ENDMDL
MODEL 5
REMARK VINA RESULT:      -7.0      2.529      5.819
REMARK  Name = 
REMARK  4 active torsions:
REMARK  status: ('A' for Active; 'I' for Inactive)
REMARK    1  A    between atoms: C_1  and  C_2
REMARK    2  A    between atoms: C_2  and  C_3
REMARK    3  A    between atoms: C_3  and  C_4
REMARK    4  A    between atoms: C_7  and  N_8
REMARK                            x       y       z     vdW  Elec       q    Type
REMARK                         _______ _______ _______ _____ _____    ______ ____
ROOT
ATOM      1  C   UNL     1       5.701   5.175  16.693  0.00  0.00    +0.000 A 
ATOM      2  N   UNL     1       5.458   6.411  16.191  0.00  0.00    +0.000 NA
ATOM      3  C   UNL     1       4.493   7.175  16.748  0.00  0.00    +0.000 A 
ATOM      4  C   UNL     1       3.646   6.805  17.798  0.00  0.00    +0.000 A 
ATOM      5  C   UNL     1       3.874   5.508  18.319  0.00  0.00    +0.000 A 
ATOM      6  C   UNL     1       4.897   4.734  17.753  0.00  0.00    +0.000 A 
ATOM      7  N   UNL     1       4.932   3.544  18.440  0.00  0.00    +0.000 N 
ATOM      8  C   UNL     1       3.977   3.502  19.423  0.00  0.00    +0.000 A 
ATOM      9  C   UNL     1       3.684   2.486  20.339  0.00  0.00    +0.000 A 
ATOM     10  C   UNL     1       2.642   2.703  21.242  0.00  0.00    +0.000 A 
ATOM     11  C   UNL     1       1.925   3.894  21.223  0.00  0.00    +0.000 A 
ATOM     12  C   UNL     1       2.236   4.902  20.301  0.00  0.00    +0.000 A 
ATOM     13  C   UNL     1       3.288   4.714  19.374  0.00  0.00    +0.000 A 
ATOM     14  H   UNL     1       5.581   2.792  18.253  0.00  0.00    +0.000 HD
ENDROOT
BRANCH   4  15
ATOM     15  N   UNL     1       2.737   7.737  18.324  0.00  0.00    +0.000 N 
ATOM     16  H   UNL     1       2.017   8.027  17.669  0.00  0.00    +0.000 HD
ATOM     17  H   UNL     1       2.363   7.480  19.228  0.00  0.00    +0.000 HD
ENDBRANCH   4  15
BRANCH   1  18
ATOM     18  C   UNL     1       6.829   4.391  16.076  0.00  0.00    +0.000 C 
BRANCH  18  20
ATOM     19  C   UNL     1       6.131   3.866  13.712  0.00  0.00    +0.000 C 
ATOM     20  C   UNL     1       7.006   4.738  14.597  0.00  0.00    +0.000 C 
ENDBRANCH  18  20
ENDBRANCH   1  18
TORSDOF 3
ENDMDL
MODEL 6
REMARK VINA RESULT:      -7.0      1.839      5.502
REMARK  Name = 
REMARK  4 active torsions:
REMARK  status: ('A' for Active; 'I' for Inactive)
REMARK    1  A    between atoms: C_1  and  C_2
REMARK    2  A    between atoms: C_2  and  C_3
REMARK    3  A    between atoms: C_3  and  C_4
REMARK    4  A    between atoms: C_7  and  N_8
REMARK                            x       y       z     vdW  Elec       q    Type
REMARK                         _______ _______ _______ _____ _____    ______ ____
ROOT
ATOM      1  C   UNL     1       6.054   5.068  15.610  0.00  0.00    +0.000 A 
ATOM      2  N   UNL     1       7.126   5.763  16.066  0.00  0.00    +0.000 NA
ATOM      3  C   UNL     1       7.385   5.788  17.391  0.00  0.00    +0.000 A 
ATOM      4  C   UNL     1       6.617   5.194  18.398  0.00  0.00    +0.000 A 
ATOM      5  C   UNL     1       5.483   4.482  17.939  0.00  0.00    +0.000 A 
ATOM      6  C   UNL     1       5.238   4.437  16.559  0.00  0.00    +0.000 A 
ATOM      7  N   UNL     1       4.108   3.676  16.373  0.00  0.00    +0.000 N 
ATOM      8  C   UNL     1       3.601   3.227  17.564  0.00  0.00    +0.000 A 
ATOM      9  C   UNL     1       2.478   2.429  17.813  0.00  0.00    +0.000 A 
ATOM     10  C   UNL     1       2.180   2.119  19.141  0.00  0.00    +0.000 A 
ATOM     11  C   UNL     1       2.978   2.594  20.176  0.00  0.00    +0.000 A 
ATOM     12  C   UNL     1       4.101   3.387  19.907  0.00  0.00    +0.000 A 
ATOM     13  C   UNL     1       4.433   3.717  18.572  0.00  0.00    +0.000 A 
ATOM     14  H   UNL     1       3.700   3.466  15.472  0.00  0.00    +0.000 HD
ENDROOT
BRANCH   4  15
ATOM     15  N   UNL     1       7.056   5.241  19.731  0.00  0.00    +0.000 N 
ATOM     16  H   UNL     1       7.574   4.418  20.024  0.00  0.00    +0.000 HD
ATOM     17  H   UNL     1       7.519   6.105  19.980  0.00  0.00    +0.000 HD
ENDBRANCH   4  15
BRANCH   1  18
ATOM     18  C   UNL     1       5.847   5.020  14.120  0.00  0.00    +0.000 C 
BRANCH  18  20
ATOM     19  C   UNL     1       5.611   3.360  12.238  0.00  0.00    +0.000 C 
ATOM     20  C   UNL     1       6.338   3.697  13.529  0.00  0.00    +0.000 C 
ENDBRANCH  18  20
ENDBRANCH   1  18
TORSDOF 3
ENDMDL
MODEL 7
REMARK VINA RESULT:      -6.8      2.854      5.175
REMARK  Name = 
REMARK  4 active torsions:
REMARK  status: ('A' for Active; 'I' for Inactive)
REMARK    1  A    between atoms: C_1  and  C_2
REMARK    2  A    between atoms: C_2  and  C_3
REMARK    3  A    between atoms: C_3  and  C_4
REMARK    4  A    between atoms: C_7  and  N_8
REMARK                            x       y       z     vdW  Elec       q    Type
REMARK                         _______ _______ _______ _____ _____    ______ ____
ROOT
ATOM      1  C   UNL     1       2.759   4.657  20.021  0.00  0.00    +0.000 A 
ATOM      2  N   UNL     1       2.126   5.786  20.428  0.00  0.00    +0.000 NA
ATOM      3  C   UNL     1       2.227   6.908  19.682  0.00  0.00    +0.000 A 
ATOM      4  C   UNL     1       2.979   7.062  18.513  0.00  0.00    +0.000 A 
ATOM      5  C   UNL     1       3.663   5.898  18.088  0.00  0.00    +0.000 A 
ATOM      6  C   UNL     1       3.530   4.730  18.852  0.00  0.00    +0.000 A 
ATOM      7  N   UNL     1       4.261   3.750  18.224  0.00  0.00    +0.000 N 
ATOM      8  C   UNL     1       4.869   4.222  17.091  0.00  0.00    +0.000 A 
ATOM      9  C   UNL     1       5.690   3.556  16.174  0.00  0.00    +0.000 A 
ATOM     10  C   UNL     1       6.188   4.286  15.094  0.00  0.00    +0.000 A 
ATOM     11  C   UNL     1       5.875   5.632  14.944  0.00  0.00    +0.000 A 
ATOM     12  C   UNL     1       5.048   6.282  15.870  0.00  0.00    +0.000 A 
ATOM     13  C   UNL     1       4.524   5.569  16.974  0.00  0.00    +0.000 A 
ATOM     14  H   UNL     1       4.340   2.796  18.550  0.00  0.00    +0.000 HD
ENDROOT
BRANCH   4  15
ATOM     15  N   UNL     1       2.926   8.272  17.802  0.00  0.00    +0.000 N 
ATOM     16  H   UNL     1       3.686   8.396  17.140  0.00  0.00    +0.000 HD
ATOM     17  H   UNL     1       2.020   8.471  17.400  0.00  0.00    +0.000 HD
ENDBRANCH   4  15
BRANCH   1  18
ATOM     18  C   UNL     1       2.563   3.419  20.854  0.00  0.00    +0.000 C 
BRANCH  18  20
ATOM     19  C   UNL     1       0.756   2.563  19.319  0.00  0.00    +0.000 C 
ATOM     20  C   UNL     1       1.128   2.900  20.754  0.00  0.00    +0.000 C 
ENDBRANCH  18  20
ENDBRANCH   1  18
TORSDOF 3
ENDMDL
MODEL 8
REMARK VINA RESULT:      -6.8      2.857      5.734
REMARK  Name = 
REMARK  4 active torsions:
REMARK  status: ('A' for Active; 'I' for Inactive)
REMARK    1  A    between atoms: C_1  and  C_2
REMARK    2  A    between atoms: C_2  and  C_3
REMARK    3  A    between atoms: C_3  and  C_4
REMARK    4  A    between atoms: C_7  and  N_8
REMARK                            x       y       z     vdW  Elec       q    Type
REMARK                         _______ _______ _______ _____ _____    ______ ____
ROOT
ATOM      1  C   UNL     1       4.843   5.311  16.417  0.00  0.00    +0.000 A 
ATOM      2  N   UNL     1       4.841   6.665  16.324  0.00  0.00    +0.000 NA
ATOM      3  C   UNL     1       4.050   7.385  17.149  0.00  0.00    +0.000 A 
ATOM      4  C   UNL     1       3.156   6.874  18.096  0.00  0.00    +0.000 A 
ATOM      5  C   UNL     1       3.131   5.461  18.189  0.00  0.00    +0.000 A 
ATOM      6  C   UNL     1       3.978   4.723  17.350  0.00  0.00    +0.000 A 
ATOM      7  N   UNL     1       3.784   3.395  17.647  0.00  0.00    +0.000 N 
ATOM      8  C   UNL     1       2.849   3.231  18.635  0.00  0.00    +0.000 A 
ATOM      9  C   UNL     1       2.370   2.055  19.225  0.00  0.00    +0.000 A 
ATOM     10  C   UNL     1       1.400   2.174  20.221  0.00  0.00    +0.000 A 
ATOM     11  C   UNL     1       0.930   3.424  20.607  0.00  0.00    +0.000 A 
ATOM     12  C   UNL     1       1.424   4.590  20.008  0.00  0.00    +0.000 A 
ATOM     13  C   UNL     1       2.410   4.505  18.998  0.00  0.00    +0.000 A 
ATOM     14  H   UNL     1       4.271   2.630  17.200  0.00  0.00    +0.000 HD
ENDROOT
BRANCH   4  15
ATOM     15  N   UNL     1       2.453   7.751  18.937  0.00  0.00    +0.000 N 
ATOM     16  H   UNL     1       2.897   7.906  19.837  0.00  0.00    +0.000 HD
ATOM     17  H   UNL     1       2.169   8.611  18.487  0.00  0.00    +0.000 HD
ENDBRANCH   4  15
BRANCH   1  18
ATOM     18  C   UNL     1       5.789   4.560  15.519  0.00  0.00    +0.000 C 
BRANCH  18  20
ATOM     19  C   UNL     1       7.546   4.557  17.326  0.00  0.00    +0.000 C 
ATOM     20  C   UNL     1       7.248   4.863  15.867  0.00  0.00    +0.000 C 
ENDBRANCH  18  20
ENDBRANCH   1  18
TORSDOF 3
ENDMDL
MODEL 9
REMARK VINA RESULT:      -6.6      3.655      6.380
REMARK  Name = 
REMARK  4 active torsions:
REMARK  status: ('A' for Active; 'I' for Inactive)
REMARK    1  A    between atoms: C_1  and  C_2
REMARK    2  A    between atoms: C_2  and  C_3
REMARK    3  A    between atoms: C_3  and  C_4
REMARK    4  A    between atoms: C_7  and  N_8
REMARK                            x       y       z     vdW  Elec       q    Type
REMARK                         _______ _______ _______ _____ _____    ______ ____
ROOT
ATOM      1  C   UNL     1       4.451   5.396  17.414  0.00  0.00    +0.000 A 
ATOM      2  N   UNL     1       4.620   4.291  18.183  0.00  0.00    +0.000 NA
ATOM      3  C   UNL     1       3.975   4.202  19.367  0.00  0.00    +0.000 A 
ATOM      4  C   UNL     1       3.155   5.180  19.940  0.00  0.00    +0.000 A 
ATOM      5  C   UNL     1       2.987   6.348  19.158  0.00  0.00    +0.000 A 
ATOM      6  C   UNL     1       3.636   6.419  17.917  0.00  0.00    +0.000 A 
ATOM      7  N   UNL     1       3.298   7.626  17.352  0.00  0.00    +0.000 N 
ATOM      8  C   UNL     1       2.465   8.347  18.166  0.00  0.00    +0.000 A 
ATOM      9  C   UNL     1       1.892   9.609  17.964  0.00  0.00    +0.000 A 
ATOM     10  C   UNL     1       1.072  10.120  18.971  0.00  0.00    +0.000 A 
ATOM     11  C   UNL     1       0.838   9.394  20.133  0.00  0.00    +0.000 A 
ATOM     12  C   UNL     1       1.416   8.130  20.315  0.00  0.00    +0.000 A 
ATOM     13  C   UNL     1       2.250   7.582  19.313  0.00  0.00    +0.000 A 
ATOM     14  H   UNL     1       3.617   7.945  16.448  0.00  0.00    +0.000 HD
ENDROOT
BRANCH   4  15
ATOM     15  N   UNL     1       2.489   4.913  21.147  0.00  0.00    +0.000 N 
ATOM     16  H   UNL     1       1.980   5.707  21.522  0.00  0.00    +0.000 HD
ATOM     17  H   UNL     1       1.936   4.066  21.131  0.00  0.00    +0.000 HD
ENDBRANCH   4  15
BRANCH   1  18
ATOM     18  C   UNL     1       5.142   5.417  16.077  0.00  0.00    +0.000 C 
BRANCH  18  20
ATOM     19  C   UNL     1       6.231   4.026  14.279  0.00  0.00    +0.000 C 
ATOM     20  C   UNL     1       5.525   4.006  15.624  0.00  0.00    +0.000 C 
ENDBRANCH  18  20
ENDBRANCH   1  18
TORSDOF 3
ENDMDL
