MODEL 1
REMARK VINA RESULT:      -7.7      0.000      0.000
REMARK  Name = 
REMARK  14 active torsions:
REMARK  status: ('A' for Active; 'I' for Inactive)
REMARK    1  A    between atoms: C_1  and  O_2
REMARK    2  A    between atoms: O_2  and  C_3
REMARK    3  A    between atoms: C_3  and  C_5
REMARK    4  A    between atoms: C_5  and  C_6
REMARK    5  A    between atoms: C_7  and  C_8
REMARK    6  A    between atoms: C_12  and  O_13
REMARK    7  A    between atoms: C_14  and  C_15
REMARK    8  A    between atoms: C_15  and  N_16
REMARK    9  A    between atoms: N_16  and  C_17
REMARK   10  A    between atoms: C_17  and  C_18
REMARK   11  A    between atoms: C_21  and  O_22
REMARK   12  A    between atoms: O_22  and  C_23
REMARK   13  A    between atoms: C_24  and  O_25
REMARK   14  A    between atoms: O_25  and  C_26
REMARK                            x       y       z     vdW  Elec       q    Type
REMARK                         _______ _______ _______ _____ _____    ______ ____
ROOT
ATOM      1  C   UNL     1       4.743   5.011  16.688  0.00  0.00    +0.000 A 
ATOM      2  C   UNL     1       4.430   3.733  16.997  0.00  0.00    +0.000 A 
ATOM      3  C   UNL     1       5.055   2.532  16.335  0.00  0.00    +0.000 C 
ATOM      4  C   UNL     1       3.415   3.472  18.035  0.00  0.00    +0.000 A 
ATOM      5  C   UNL     1       3.055   2.185  18.455  0.00  0.00    +0.000 A 
ATOM      6  C   UNL     1       2.128   1.997  19.485  0.00  0.00    +0.000 A 
ATOM      7  C   UNL     1       1.524   3.098  20.088  0.00  0.00    +0.000 A 
ATOM      8  C   UNL     1       1.822   4.398  19.672  0.00  0.00    +0.000 A 
ATOM      9  C   UNL     1       2.789   4.549  18.660  0.00  0.00    +0.000 A 
ATOM     10  O   UNL     1       3.103   5.869  18.280  0.00  0.00    +0.000 OA
ATOM     11  C   UNL     1       4.040   6.161  17.314  0.00  0.00    +0.000 A 
ATOM     12  O   UNL     1       4.291   7.321  17.005  0.00  0.00    +0.000 OA
ENDROOT
BRANCH   7  13
ATOM     13  O   UNL     1       0.624   2.900  21.095  0.00  0.00    +0.000 OA
ATOM     14  H   UNL     1       1.060   3.066  21.948  0.00  0.00    +0.000 HD
ENDBRANCH   7  13
BRANCH   1  15
ATOM     15  C   UNL     1       5.799   5.441  15.698  0.00  0.00    +0.000 C 
BRANCH  15  16
ATOM     16  C   UNL     1       7.159   5.490  16.356  0.00  0.00    +0.000 C 
ATOM     17  O   UNL     1       7.828   4.518  16.697  0.00  0.00    +0.000 OA
BRANCH  16  19
ATOM     18  C   UNL     1       7.690   7.128  17.942  0.00  0.00    +0.000 C 
ATOM     19  O   UNL     1       7.515   6.789  16.565  0.00  0.00    +0.000 OA
ENDBRANCH  16  19
ENDBRANCH  15  16
ENDBRANCH   1  15
BRANCH   8  20
ATOM     20  C   UNL     1       1.144   5.613  20.267  0.00  0.00    +0.000 C 
BRANCH  20  21
ATOM     21  N   UNL     1       2.069   6.643  20.764  0.00  0.00    +0.000 NA
ATOM     22  H   UNL     1       3.025   6.307  20.643  0.00  0.00    +0.000 HD
BRANCH  21  23
ATOM     23  C   UNL     1       1.930   7.923  20.076  0.00  0.00    +0.000 C 
BRANCH  23  24
ATOM     24  C   UNL     1       1.067   8.879  20.876  0.00  0.00    +0.000 A 
ATOM     25  C   UNL     1       1.001   8.786  22.268  0.00  0.00    +0.000 A 
ATOM     26  C   UNL     1       0.169   9.639  22.989  0.00  0.00    +0.000 A 
ATOM     27  C   UNL     1      -0.633  10.594  22.345  0.00  0.00    +0.000 A 
ATOM     28  C   UNL     1      -0.580  10.701  20.943  0.00  0.00    +0.000 A 
ATOM     29  C   UNL     1       0.289   9.855  20.229  0.00  0.00    +0.000 A 
BRANCH  27  30
ATOM     30  O   UNL     1      -1.389  11.318  23.233  0.00  0.00    +0.000 OA
ATOM     31  C   UNL     1      -1.377  12.734  23.147  0.00  0.00    +0.000 C 
ENDBRANCH  27  30
BRANCH  28  32
ATOM     32  O   UNL     1      -1.394  11.615  20.329  0.00  0.00    +0.000 OA
ATOM     33  C   UNL     1      -0.866  12.384  19.258  0.00  0.00    +0.000 C 
ENDBRANCH  28  32
ENDBRANCH  23  24
ENDBRANCH  21  23
ENDBRANCH  20  21
ENDBRANCH   8  20
TORSDOF 10
ENDMDL
MODEL 2
REMARK VINA RESULT:      -7.7      2.304      3.259
REMARK  Name = 
REMARK  14 active torsions:
REMARK  status: ('A' for Active; 'I' for Inactive)
REMARK    1  A    between atoms: C_1  and  O_2
REMARK    2  A    between atoms: O_2  and  C_3
REMARK    3  A    between atoms: C_3  and  C_5
REMARK    4  A    between atoms: C_5  and  C_6
REMARK    5  A    between atoms: C_7  and  C_8
REMARK    6  A    between atoms: C_12  and  O_13
REMARK    7  A    between atoms: C_14  and  C_15
REMARK    8  A    between atoms: C_15  and  N_16
REMARK    9  A    between atoms: N_16  and  C_17
REMARK   10  A    between atoms: C_17  and  C_18
REMARK   11  A    between atoms: C_21  and  O_22
REMARK   12  A    between atoms: O_22  and  C_23
REMARK   13  A    between atoms: C_24  and  O_25
REMARK   14  A    between atoms: O_25  and  C_26
REMARK                            x       y       z     vdW  Elec       q    Type
REMARK                         _______ _______ _______ _____ _____    ______ ____
ROOT
ATOM      1  C   UNL     1       4.793   4.987  16.571  0.00  0.00    +0.000 A 
ATOM      2  C   UNL     1       4.165   4.396  17.611  0.00  0.00    +0.000 A 
ATOM      3  C   UNL     1       4.255   2.924  17.921  0.00  0.00    +0.000 C 
ATOM      4  C   UNL     1       3.329   5.218  18.508  0.00  0.00    +0.000 A 
ATOM      5  C   UNL     1       2.674   4.707  19.636  0.00  0.00    +0.000 A 
ATOM      6  C   UNL     1       1.943   5.543  20.484  0.00  0.00    +0.000 A 
ATOM      7  C   UNL     1       1.830   6.902  20.195  0.00  0.00    +0.000 A 
ATOM      8  C   UNL     1       2.432   7.447  19.058  0.00  0.00    +0.000 A 
ATOM      9  C   UNL     1       3.193   6.581  18.250  0.00  0.00    +0.000 A 
ATOM     10  O   UNL     1       3.823   7.156  17.128  0.00  0.00    +0.000 OA
ATOM     11  C   UNL     1       4.608   6.428  16.262  0.00  0.00    +0.000 A 
ATOM     12  O   UNL     1       5.142   6.958  15.294  0.00  0.00    +0.000 OA
ENDROOT
BRANCH   7  13
ATOM     13  O   UNL     1       1.116   7.708  21.034  0.00  0.00    +0.000 OA
ATOM     14  H   UNL     1       1.300   7.451  21.953  0.00  0.00    +0.000 HD
ENDBRANCH   7  13
BRANCH   1  15
ATOM     15  C   UNL     1       5.727   4.298  15.605  0.00  0.00    +0.000 C 
BRANCH  15  16
ATOM     16  C   UNL     1       7.166   4.654  15.909  0.00  0.00    +0.000 C 
ATOM     17  O   UNL     1       7.722   4.531  16.996  0.00  0.00    +0.000 OA
BRANCH  16  19
ATOM     18  C   UNL     1       7.123   4.790  13.573  0.00  0.00    +0.000 C 
ATOM     19  O   UNL     1       7.745   5.185  14.796  0.00  0.00    +0.000 OA
ENDBRANCH  16  19
ENDBRANCH  15  16
ENDBRANCH   1  15
BRANCH   8  20
ATOM     20  C   UNL     1       2.284   8.906  18.685  0.00  0.00    +0.000 C 
BRANCH  20  21
ATOM     21  N   UNL     1       0.916   9.430  18.809  0.00  0.00    +0.000 NA
ATOM     22  H   UNL     1       0.406   8.851  19.476  0.00  0.00    +0.000 HD
BRANCH  21  23
ATOM     23  C   UNL     1       0.869  10.818  19.259  0.00  0.00    +0.000 C 
BRANCH  23  24
ATOM     24  C   UNL     1      -0.556  11.336  19.274  0.00  0.00    +0.000 A 
ATOM     25  C   UNL     1      -1.073  11.967  20.408  0.00  0.00    +0.000 A 
ATOM     26  C   UNL     1      -2.398  12.397  20.429  0.00  0.00    +0.000 A 
ATOM     27  C   UNL     1      -3.248  12.196  19.330  0.00  0.00    +0.000 A 
ATOM     28  C   UNL     1      -2.744  11.562  18.180  0.00  0.00    +0.000 A 
ATOM     29  C   UNL     1      -1.395  11.160  18.161  0.00  0.00    +0.000 A 
BRANCH  27  30
ATOM     30  O   UNL     1      -4.512  12.677  19.560  0.00  0.00    +0.000 OA
ATOM     31  C   UNL     1      -4.993  12.730  20.894  0.00  0.00    +0.000 C 
ENDBRANCH  27  30
BRANCH  28  32
ATOM     32  O   UNL     1      -3.596  11.343  17.130  0.00  0.00    +0.000 OA
ATOM     33  C   UNL     1      -3.333  10.256  16.256  0.00  0.00    +0.000 C 
ENDBRANCH  28  32
ENDBRANCH  23  24
ENDBRANCH  21  23
ENDBRANCH  20  21
ENDBRANCH   8  20
TORSDOF 10
ENDMDL
MODEL 3
REMARK VINA RESULT:      -7.6      1.994      3.123
REMARK  Name = 
REMARK  14 active torsions:
REMARK  status: ('A' for Active; 'I' for Inactive)
REMARK    1  A    between atoms: C_1  and  O_2
REMARK    2  A    between atoms: O_2  and  C_3
REMARK    3  A    between atoms: C_3  and  C_5
REMARK    4  A    between atoms: C_5  and  C_6
REMARK    5  A    between atoms: C_7  and  C_8
REMARK    6  A    between atoms: C_12  and  O_13
REMARK    7  A    between atoms: C_14  and  C_15
REMARK    8  A    between atoms: C_15  and  N_16
REMARK    9  A    between atoms: N_16  and  C_17
REMARK   10  A    between atoms: C_17  and  C_18
REMARK   11  A    between atoms: C_21  and  O_22
REMARK   12  A    between atoms: O_22  and  C_23
REMARK   13  A    between atoms: C_24  and  O_25
REMARK   14  A    between atoms: O_25  and  C_26
REMARK                            x       y       z     vdW  Elec       q    Type
REMARK                         _______ _______ _______ _____ _____    ______ ____
ROOT
ATOM      1  C   UNL     1       4.588   5.052  16.960  0.00  0.00    +0.000 A 
ATOM      2  C   UNL     1       3.905   4.512  17.993  0.00  0.00    +0.000 A 
ATOM      3  C   UNL     1       3.936   3.048  18.348  0.00  0.00    +0.000 C 
ATOM      4  C   UNL     1       3.067   5.387  18.836  0.00  0.00    +0.000 A 
ATOM      5  C   UNL     1       2.358   4.930  19.954  0.00  0.00    +0.000 A 
ATOM      6  C   UNL     1       1.625   5.815  20.752  0.00  0.00    +0.000 A 
ATOM      7  C   UNL     1       1.567   7.167  20.421  0.00  0.00    +0.000 A 
ATOM      8  C   UNL     1       2.226   7.658  19.291  0.00  0.00    +0.000 A 
ATOM      9  C   UNL     1       2.985   6.745  18.535  0.00  0.00    +0.000 A 
ATOM     10  O   UNL     1       3.672   7.267  17.420  0.00  0.00    +0.000 OA
ATOM     11  C   UNL     1       4.462   6.489  16.604  0.00  0.00    +0.000 A 
ATOM     12  O   UNL     1       5.047   6.973  15.640  0.00  0.00    +0.000 OA
ENDROOT
BRANCH   7  13
ATOM     13  O   UNL     1       0.852   8.020  21.211  0.00  0.00    +0.000 OA
ATOM     14  H   UNL     1       0.435   7.513  21.928  0.00  0.00    +0.000 HD
ENDBRANCH   7  13
BRANCH   1  15
ATOM     15  C   UNL     1       5.532   4.305  16.047  0.00  0.00    +0.000 C 
BRANCH  15  16
ATOM     16  C   UNL     1       6.963   4.472  16.507  0.00  0.00    +0.000 C 
ATOM     17  O   UNL     1       7.349   4.460  17.672  0.00  0.00    +0.000 OA
BRANCH  16  19
ATOM     18  C   UNL     1       7.062   4.728  14.183  0.00  0.00    +0.000 C 
ATOM     19  O   UNL     1       7.763   4.694  15.427  0.00  0.00    +0.000 OA
ENDBRANCH  16  19
ENDBRANCH  15  16
ENDBRANCH   1  15
BRANCH   8  20
ATOM     20  C   UNL     1       2.140   9.110  18.872  0.00  0.00    +0.000 C 
BRANCH  20  21
ATOM     21  N   UNL     1       1.205   9.370  17.767  0.00  0.00    +0.000 NA
ATOM     22  H   UNL     1       0.985   8.483  17.312  0.00  0.00    +0.000 HD
BRANCH  21  23
ATOM     23  C   UNL     1      -0.039   9.998  18.198  0.00  0.00    +0.000 C 
BRANCH  23  24
ATOM     24  C   UNL     1       0.225  11.070  19.237  0.00  0.00    +0.000 A 
ATOM     25  C   UNL     1       1.038  12.166  18.939  0.00  0.00    +0.000 A 
ATOM     26  C   UNL     1       1.313  13.121  19.916  0.00  0.00    +0.000 A 
ATOM     27  C   UNL     1       0.801  13.003  21.217  0.00  0.00    +0.000 A 
ATOM     28  C   UNL     1      -0.020  11.906  21.534  0.00  0.00    +0.000 A 
ATOM     29  C   UNL     1      -0.315  10.965  20.530  0.00  0.00    +0.000 A 
BRANCH  27  30
ATOM     30  O   UNL     1       1.202  14.037  22.026  0.00  0.00    +0.000 OA
ATOM     31  C   UNL     1       2.072  15.024  21.496  0.00  0.00    +0.000 C 
ENDBRANCH  27  30
BRANCH  28  32
ATOM     32  O   UNL     1      -0.483  11.789  22.818  0.00  0.00    +0.000 OA
ATOM     33  C   UNL     1      -1.816  12.191  23.099  0.00  0.00    +0.000 C 
ENDBRANCH  28  32
ENDBRANCH  23  24
ENDBRANCH  21  23
ENDBRANCH  20  21
ENDBRANCH   8  20
TORSDOF 10
ENDMDL
MODEL 4
REMARK VINA RESULT:      -7.6      2.111      7.177
REMARK  Name = 
REMARK  14 active torsions:
REMARK  status: ('A' for Active; 'I' for Inactive)
REMARK    1  A    between atoms: C_1  and  O_2
REMARK    2  A    between atoms: O_2  and  C_3
REMARK    3  A    between atoms: C_3  and  C_5
REMARK    4  A    between atoms: C_5  and  C_6
REMARK    5  A    between atoms: C_7  and  C_8
REMARK    6  A    between atoms: C_12  and  O_13
REMARK    7  A    between atoms: C_14  and  C_15
REMARK    8  A    between atoms: C_15  and  N_16
REMARK    9  A    between atoms: N_16  and  C_17
REMARK   10  A    between atoms: C_17  and  C_18
REMARK   11  A    between atoms: C_21  and  O_22
REMARK   12  A    between atoms: O_22  and  C_23
REMARK   13  A    between atoms: C_24  and  O_25
REMARK   14  A    between atoms: O_25  and  C_26
REMARK                            x       y       z     vdW  Elec       q    Type
REMARK                         _______ _______ _______ _____ _____    ______ ____
ROOT
ATOM      1  C   UNL     1       2.293   7.848  18.957  0.00  0.00    +0.000 A 
ATOM      2  C   UNL     1       1.826   7.090  19.973  0.00  0.00    +0.000 A 
ATOM      3  C   UNL     1       1.300   7.654  21.269  0.00  0.00    +0.000 C 
ATOM      4  C   UNL     1       1.826   5.621  19.834  0.00  0.00    +0.000 A 
ATOM      5  C   UNL     1       1.322   4.754  20.812  0.00  0.00    +0.000 A 
ATOM      6  C   UNL     1       1.294   3.372  20.603  0.00  0.00    +0.000 A 
ATOM      7  C   UNL     1       1.800   2.836  19.421  0.00  0.00    +0.000 A 
ATOM      8  C   UNL     1       2.350   3.661  18.436  0.00  0.00    +0.000 A 
ATOM      9  C   UNL     1       2.325   5.049  18.665  0.00  0.00    +0.000 A 
ATOM     10  O   UNL     1       2.849   5.866  17.644  0.00  0.00    +0.000 OA
ATOM     11  C   UNL     1       2.874   7.241  17.732  0.00  0.00    +0.000 A 
ATOM     12  O   UNL     1       3.339   7.925  16.826  0.00  0.00    +0.000 OA
ENDROOT
BRANCH   7  13
ATOM     13  O   UNL     1       1.762   1.485  19.228  0.00  0.00    +0.000 OA
ATOM     14  H   UNL     1       2.087   1.041  20.029  0.00  0.00    +0.000 HD
ENDBRANCH   7  13
BRANCH   1  15
ATOM     15  C   UNL     1       2.303   9.358  18.921  0.00  0.00    +0.000 C 
BRANCH  15  16
ATOM     16  C   UNL     1       0.931   9.892  18.573  0.00  0.00    +0.000 C 
ATOM     17  O   UNL     1       0.223   9.505  17.648  0.00  0.00    +0.000 OA
BRANCH  16  19
ATOM     18  C   UNL     1      -0.615  10.730  20.118  0.00  0.00    +0.000 C 
ATOM     19  O   UNL     1       0.616  10.914  19.417  0.00  0.00    +0.000 OA
ENDBRANCH  16  19
ENDBRANCH  15  16
ENDBRANCH   1  15
BRANCH   8  20
ATOM     20  C   UNL     1       2.957   3.108  17.165  0.00  0.00    +0.000 C 
BRANCH  20  21
ATOM     21  N   UNL     1       4.417   2.939  17.211  0.00  0.00    +0.000 NA
ATOM     22  H   UNL     1       4.636   1.959  17.031  0.00  0.00    +0.000 HD
BRANCH  21  23
ATOM     23  C   UNL     1       5.125   3.766  16.239  0.00  0.00    +0.000 C 
BRANCH  23  24
ATOM     24  C   UNL     1       5.953   4.831  16.931  0.00  0.00    +0.000 A 
ATOM     25  C   UNL     1       6.451   5.922  16.216  0.00  0.00    +0.000 A 
ATOM     26  C   UNL     1       7.251   6.871  16.851  0.00  0.00    +0.000 A 
ATOM     27  C   UNL     1       7.590   6.749  18.208  0.00  0.00    +0.000 A 
ATOM     28  C   UNL     1       7.096   5.656  18.943  0.00  0.00    +0.000 A 
ATOM     29  C   UNL     1       6.264   4.722  18.297  0.00  0.00    +0.000 A 
BRANCH  27  30
ATOM     30  O   UNL     1       8.395   7.775  18.633  0.00  0.00    +0.000 OA
ATOM     31  C   UNL     1       8.230   9.061  18.056  0.00  0.00    +0.000 C 
ENDBRANCH  27  30
BRANCH  28  32
ATOM     32  O   UNL     1       7.465   5.535  20.257  0.00  0.00    +0.000 OA
ATOM     33  C   UNL     1       8.760   5.037  20.557  0.00  0.00    +0.000 C 
ENDBRANCH  28  32
ENDBRANCH  23  24
ENDBRANCH  21  23
ENDBRANCH  20  21
ENDBRANCH   8  20
TORSDOF 10
ENDMDL
MODEL 5
REMARK VINA RESULT:      -7.4      0.822      1.866
REMARK  Name = 
REMARK  14 active torsions:
REMARK  status: ('A' for Active; 'I' for Inactive)
REMARK    1  A    between atoms: C_1  and  O_2
REMARK    2  A    between atoms: O_2  and  C_3
REMARK    3  A    between atoms: C_3  and  C_5
REMARK    4  A    between atoms: C_5  and  C_6
REMARK    5  A    between atoms: C_7  and  C_8
REMARK    6  A    between atoms: C_12  and  O_13
REMARK    7  A    between atoms: C_14  and  C_15
REMARK    8  A    between atoms: C_15  and  N_16
REMARK    9  A    between atoms: N_16  and  C_17
REMARK   10  A    between atoms: C_17  and  C_18
REMARK   11  A    between atoms: C_21  and  O_22
REMARK   12  A    between atoms: O_22  and  C_23
REMARK   13  A    between atoms: C_24  and  O_25
REMARK   14  A    between atoms: O_25  and  C_26
REMARK                            x       y       z     vdW  Elec       q    Type
REMARK                         _______ _______ _______ _____ _____    ______ ____
ROOT
ATOM      1  C   UNL     1       4.666   5.409  16.835  0.00  0.00    +0.000 A 
ATOM      2  C   UNL     1       4.244   4.129  16.933  0.00  0.00    +0.000 A 
ATOM      3  C   UNL     1       4.664   3.032  15.989  0.00  0.00    +0.000 C 
ATOM      4  C   UNL     1       3.312   3.760  18.015  0.00  0.00    +0.000 A 
ATOM      5  C   UNL     1       2.853   2.453  18.226  0.00  0.00    +0.000 A 
ATOM      6  C   UNL     1       2.016   2.149  19.304  0.00  0.00    +0.000 A 
ATOM      7  C   UNL     1       1.600   3.159  20.169  0.00  0.00    +0.000 A 
ATOM      8  C   UNL     1       1.999   4.484  19.972  0.00  0.00    +0.000 A 
ATOM      9  C   UNL     1       2.874   4.744  18.900  0.00  0.00    +0.000 A 
ATOM     10  O   UNL     1       3.295   6.079  18.741  0.00  0.00    +0.000 OA
ATOM     11  C   UNL     1       4.161   6.471  17.743  0.00  0.00    +0.000 A 
ATOM     12  O   UNL     1       4.508   7.641  17.630  0.00  0.00    +0.000 OA
ENDROOT
BRANCH   7  13
ATOM     13  O   UNL     1       0.786   2.848  21.219  0.00  0.00    +0.000 OA
ATOM     14  H   UNL     1       0.998   3.429  21.968  0.00  0.00    +0.000 HD
ENDBRANCH   7  13
BRANCH   1  15
ATOM     15  C   UNL     1       5.662   5.929  15.826  0.00  0.00    +0.000 C 
BRANCH  15  16
ATOM     16  C   UNL     1       7.077   5.739  16.326  0.00  0.00    +0.000 C 
ATOM     17  O   UNL     1       7.657   4.664  16.447  0.00  0.00    +0.000 OA
BRANCH  16  19
ATOM     18  C   UNL     1       7.854   7.087  18.074  0.00  0.00    +0.000 C 
ATOM     19  O   UNL     1       7.600   6.947  16.676  0.00  0.00    +0.000 OA
ENDBRANCH  16  19
ENDBRANCH  15  16
ENDBRANCH   1  15
BRANCH   8  20
ATOM     20  C   UNL     1       1.523   5.613  20.860  0.00  0.00    +0.000 C 
BRANCH  20  21
ATOM     21  N   UNL     1       1.578   6.943  20.235  0.00  0.00    +0.000 NA
ATOM     22  H   UNL     1       0.826   7.011  19.549  0.00  0.00    +0.000 HD
BRANCH  21  23
ATOM     23  C   UNL     1       1.442   8.036  21.192  0.00  0.00    +0.000 C 
BRANCH  23  24
ATOM     24  C   UNL     1       0.707   9.210  20.576  0.00  0.00    +0.000 A 
ATOM     25  C   UNL     1       0.916   9.560  19.241  0.00  0.00    +0.000 A 
ATOM     26  C   UNL     1       0.271  10.669  18.697  0.00  0.00    +0.000 A 
ATOM     27  C   UNL     1      -0.584  11.469  19.471  0.00  0.00    +0.000 A 
ATOM     28  C   UNL     1      -0.806  11.130  20.819  0.00  0.00    +0.000 A 
ATOM     29  C   UNL     1      -0.173   9.990  21.347  0.00  0.00    +0.000 A 
BRANCH  27  30
ATOM     30  O   UNL     1      -1.103  12.516  18.753  0.00  0.00    +0.000 OA
ATOM     31  C   UNL     1      -0.287  13.652  18.511  0.00  0.00    +0.000 C 
ENDBRANCH  27  30
BRANCH  28  32
ATOM     32  O   UNL     1      -1.617  11.941  21.569  0.00  0.00    +0.000 OA
ATOM     33  C   UNL     1      -1.732  11.687  22.961  0.00  0.00    +0.000 C 
ENDBRANCH  28  32
ENDBRANCH  23  24
ENDBRANCH  21  23
ENDBRANCH  20  21
ENDBRANCH   8  20
TORSDOF 10
ENDMDL
MODEL 6
REMARK VINA RESULT:      -7.4      1.449      2.298
REMARK  Name = 
REMARK  14 active torsions:
REMARK  status: ('A' for Active; 'I' for Inactive)
REMARK    1  A    between atoms: C_1  and  O_2
REMARK    2  A    between atoms: O_2  and  C_3
REMARK    3  A    between atoms: C_3  and  C_5
REMARK    4  A    between atoms: C_5  and  C_6
REMARK    5  A    between atoms: C_7  and  C_8
REMARK    6  A    between atoms: C_12  and  O_13
REMARK    7  A    between atoms: C_14  and  C_15
REMARK    8  A    between atoms: C_15  and  N_16
REMARK    9  A    between atoms: N_16  and  C_17
REMARK   10  A    between atoms: C_17  and  C_18
REMARK   11  A    between atoms: C_21  and  O_22
REMARK   12  A    between atoms: O_22  and  C_23
REMARK   13  A    between atoms: C_24  and  O_25
REMARK   14  A    between atoms: O_25  and  C_26
REMARK                            x       y       z     vdW  Elec       q    Type
REMARK                         _______ _______ _______ _____ _____    ______ ____
ROOT
ATOM      1  C   UNL     1       5.935   4.554  17.810  0.00  0.00    +0.000 A 
ATOM      2  C   UNL     1       4.914   3.927  17.184  0.00  0.00    +0.000 A 
ATOM      3  C   UNL     1       5.006   3.357  15.792  0.00  0.00    +0.000 C 
ATOM      4  C   UNL     1       3.621   3.785  17.881  0.00  0.00    +0.000 A 
ATOM      5  C   UNL     1       2.520   3.114  17.334  0.00  0.00    +0.000 A 
ATOM      6  C   UNL     1       1.337   2.959  18.064  0.00  0.00    +0.000 A 
ATOM      7  C   UNL     1       1.230   3.502  19.342  0.00  0.00    +0.000 A 
ATOM      8  C   UNL     1       2.289   4.216  19.910  0.00  0.00    +0.000 A 
ATOM      9  C   UNL     1       3.477   4.317  19.162  0.00  0.00    +0.000 A 
ATOM     10  O   UNL     1       4.547   5.007  19.767  0.00  0.00    +0.000 OA
ATOM     11  C   UNL     1       5.769   5.168  19.153  0.00  0.00    +0.000 A 
ATOM     12  O   UNL     1       6.680   5.775  19.706  0.00  0.00    +0.000 OA
ENDROOT
BRANCH   7  13
ATOM     13  O   UNL     1       0.071   3.340  20.044  0.00  0.00    +0.000 OA
ATOM     14  H   UNL     1      -0.669   3.689  19.520  0.00  0.00    +0.000 HD
ENDBRANCH   7  13
BRANCH   1  15
ATOM     15  C   UNL     1       7.330   4.724  17.258  0.00  0.00    +0.000 C 
BRANCH  15  16
ATOM     16  C   UNL     1       7.334   5.714  16.115  0.00  0.00    +0.000 C 
ATOM     17  O   UNL     1       7.776   5.507  14.988  0.00  0.00    +0.000 OA
BRANCH  16  19
ATOM     18  C   UNL     1       7.736   7.701  17.284  0.00  0.00    +0.000 C 
ATOM     19  O   UNL     1       6.817   6.900  16.540  0.00  0.00    +0.000 OA
ENDBRANCH  16  19
ENDBRANCH  15  16
ENDBRANCH   1  15
BRANCH   8  20
ATOM     20  C   UNL     1       2.188   4.865  21.273  0.00  0.00    +0.000 C 
BRANCH  20  21
ATOM     21  N   UNL     1       1.907   6.308  21.239  0.00  0.00    +0.000 NA
ATOM     22  H   UNL     1       2.408   6.755  22.008  0.00  0.00    +0.000 HD
BRANCH  21  23
ATOM     23  C   UNL     1       2.303   6.945  19.987  0.00  0.00    +0.000 C 
BRANCH  23  24
ATOM     24  C   UNL     1       1.523   8.224  19.756  0.00  0.00    +0.000 A 
ATOM     25  C   UNL     1       1.738   8.993  18.611  0.00  0.00    +0.000 A 
ATOM     26  C   UNL     1       1.049  10.191  18.431  0.00  0.00    +0.000 A 
ATOM     27  C   UNL     1       0.143  10.664  19.393  0.00  0.00    +0.000 A 
ATOM     28  C   UNL     1      -0.085   9.902  20.553  0.00  0.00    +0.000 A 
ATOM     29  C   UNL     1       0.593   8.678  20.707  0.00  0.00    +0.000 A 
BRANCH  27  30
ATOM     30  O   UNL     1      -0.413  11.865  19.032  0.00  0.00    +0.000 OA
ATOM     31  C   UNL     1      -1.632  11.865  18.305  0.00  0.00    +0.000 C 
ENDBRANCH  27  30
BRANCH  28  32
ATOM     32  O   UNL     1      -0.948  10.394  21.496  0.00  0.00    +0.000 OA
ATOM     33  C   UNL     1      -0.458  11.338  22.438  0.00  0.00    +0.000 C 
ENDBRANCH  28  32
ENDBRANCH  23  24
ENDBRANCH  21  23
ENDBRANCH  20  21
ENDBRANCH   8  20
TORSDOF 10
ENDMDL
MODEL 7
REMARK VINA RESULT:      -7.4      2.242      3.189
REMARK  Name = 
REMARK  14 active torsions:
REMARK  status: ('A' for Active; 'I' for Inactive)
REMARK    1  A    between atoms: C_1  and  O_2
REMARK    2  A    between atoms: O_2  and  C_3
REMARK    3  A    between atoms: C_3  and  C_5
REMARK    4  A    between atoms: C_5  and  C_6
REMARK    5  A    between atoms: C_7  and  C_8
REMARK    6  A    between atoms: C_12  and  O_13
REMARK    7  A    between atoms: C_14  and  C_15
REMARK    8  A    between atoms: C_15  and  N_16
REMARK    9  A    between atoms: N_16  and  C_17
REMARK   10  A    between atoms: C_17  and  C_18
REMARK   11  A    between atoms: C_21  and  O_22
REMARK   12  A    between atoms: O_22  and  C_23
REMARK   13  A    between atoms: C_24  and  O_25
REMARK   14  A    between atoms: O_25  and  C_26
REMARK                            x       y       z     vdW  Elec       q    Type
REMARK                         _______ _______ _______ _____ _____    ______ ____
ROOT
ATOM      1  C   UNL     1       4.703   5.130  16.637  0.00  0.00    +0.000 A 
ATOM      2  C   UNL     1       4.034   4.557  17.662  0.00  0.00    +0.000 A 
ATOM      3  C   UNL     1       4.063   3.080  17.963  0.00  0.00    +0.000 C 
ATOM      4  C   UNL     1       3.214   5.404  18.549  0.00  0.00    +0.000 A 
ATOM      5  C   UNL     1       2.521   4.911  19.662  0.00  0.00    +0.000 A 
ATOM      6  C   UNL     1       1.806   5.769  20.503  0.00  0.00    +0.000 A 
ATOM      7  C   UNL     1       1.749   7.132  20.222  0.00  0.00    +0.000 A 
ATOM      8  C   UNL     1       2.391   7.661  19.099  0.00  0.00    +0.000 A 
ATOM      9  C   UNL     1       3.133   6.773  18.299  0.00  0.00    +0.000 A 
ATOM     10  O   UNL     1       3.804   7.331  17.193  0.00  0.00    +0.000 OA
ATOM     11  C   UNL     1       4.578   6.580  16.336  0.00  0.00    +0.000 A 
ATOM     12  O   UNL     1       5.148   7.096  15.380  0.00  0.00    +0.000 OA
ENDROOT
BRANCH   7  13
ATOM     13  O   UNL     1       1.051   7.959  21.054  0.00  0.00    +0.000 OA
ATOM     14  H   UNL     1       1.360   8.872  20.926  0.00  0.00    +0.000 HD
ENDBRANCH   7  13
BRANCH   1  15
ATOM     15  C   UNL     1       5.628   4.413  15.683  0.00  0.00    +0.000 C 
BRANCH  15  16
ATOM     16  C   UNL     1       7.072   4.723  16.006  0.00  0.00    +0.000 C 
ATOM     17  O   UNL     1       7.605   4.601  17.106  0.00  0.00    +0.000 OA
BRANCH  16  19
ATOM     18  C   UNL     1       7.070   4.825  13.668  0.00  0.00    +0.000 C 
ATOM     19  O   UNL     1       7.690   5.213  14.895  0.00  0.00    +0.000 OA
ENDBRANCH  16  19
ENDBRANCH  15  16
ENDBRANCH   1  15
BRANCH   8  20
ATOM     20  C   UNL     1       2.305   9.127  18.734  0.00  0.00    +0.000 C 
BRANCH  20  21
ATOM     21  N   UNL     1       1.603   9.400  17.472  0.00  0.00    +0.000 NA
ATOM     22  H   UNL     1       2.070   8.887  16.723  0.00  0.00    +0.000 HD
BRANCH  21  23
ATOM     23  C   UNL     1       0.195   9.013  17.499  0.00  0.00    +0.000 C 
BRANCH  23  24
ATOM     24  C   UNL     1      -0.653  10.093  18.141  0.00  0.00    +0.000 A 
ATOM     25  C   UNL     1      -0.231  10.728  19.311  0.00  0.00    +0.000 A 
ATOM     26  C   UNL     1      -1.040  11.686  19.920  0.00  0.00    +0.000 A 
ATOM     27  C   UNL     1      -2.296  12.024  19.391  0.00  0.00    +0.000 A 
ATOM     28  C   UNL     1      -2.736  11.393  18.213  0.00  0.00    +0.000 A 
ATOM     29  C   UNL     1      -1.896  10.451  17.591  0.00  0.00    +0.000 A 
BRANCH  27  30
ATOM     30  O   UNL     1      -2.937  12.972  20.148  0.00  0.00    +0.000 OA
ATOM     31  C   UNL     1      -2.199  14.091  20.613  0.00  0.00    +0.000 C 
ENDBRANCH  27  30
BRANCH  28  32
ATOM     32  O   UNL     1      -3.978  11.710  17.730  0.00  0.00    +0.000 OA
ATOM     33  C   UNL     1      -5.099  10.976  18.201  0.00  0.00    +0.000 C 
ENDBRANCH  28  32
ENDBRANCH  23  24
ENDBRANCH  21  23
ENDBRANCH  20  21
ENDBRANCH   8  20
TORSDOF 10
ENDMDL
MODEL 8
REMARK VINA RESULT:      -7.4      2.537      4.230
REMARK  Name = 
REMARK  14 active torsions:
REMARK  status: ('A' for Active; 'I' for Inactive)
REMARK    1  A    between atoms: C_1  and  O_2
REMARK    2  A    between atoms: O_2  and  C_3
REMARK    3  A    between atoms: C_3  and  C_5
REMARK    4  A    between atoms: C_5  and  C_6
REMARK    5  A    between atoms: C_7  and  C_8
REMARK    6  A    between atoms: C_12  and  O_13
REMARK    7  A    between atoms: C_14  and  C_15
REMARK    8  A    between atoms: C_15  and  N_16
REMARK    9  A    between atoms: N_16  and  C_17
REMARK   10  A    between atoms: C_17  and  C_18
REMARK   11  A    between atoms: C_21  and  O_22
REMARK   12  A    between atoms: O_22  and  C_23
REMARK   13  A    between atoms: C_24  and  O_25
REMARK   14  A    between atoms: O_25  and  C_26
REMARK                            x       y       z     vdW  Elec       q    Type
REMARK                         _______ _______ _______ _____ _____    ______ ____
ROOT
ATOM      1  C   UNL     1       4.345   5.386  17.545  0.00  0.00    +0.000 A 
ATOM      2  C   UNL     1       3.653   5.091  18.667  0.00  0.00    +0.000 A 
ATOM      3  C   UNL     1       3.701   3.751  19.356  0.00  0.00    +0.000 C 
ATOM      4  C   UNL     1       2.785   6.121  19.269  0.00  0.00    +0.000 A 
ATOM      5  C   UNL     1       2.064   5.926  20.454  0.00  0.00    +0.000 A 
ATOM      6  C   UNL     1       1.303   6.958  21.012  0.00  0.00    +0.000 A 
ATOM      7  C   UNL     1       1.229   8.194  20.372  0.00  0.00    +0.000 A 
ATOM      8  C   UNL     1       1.899   8.419  19.166  0.00  0.00    +0.000 A 
ATOM      9  C   UNL     1       2.687   7.369  18.657  0.00  0.00    +0.000 A 
ATOM     10  O   UNL     1       3.385   7.629  17.460  0.00  0.00    +0.000 OA
ATOM     11  C   UNL     1       4.202   6.696  16.860  0.00  0.00    +0.000 A 
ATOM     12  O   UNL     1       4.795   6.952  15.817  0.00  0.00    +0.000 OA
ENDROOT
BRANCH   7  13
ATOM     13  O   UNL     1       0.486   9.193  20.929  0.00  0.00    +0.000 OA
ATOM     14  H   UNL     1      -0.450   8.931  20.929  0.00  0.00    +0.000 HD
ENDBRANCH   7  13
BRANCH   1  15
ATOM     15  C   UNL     1       5.317   4.465  16.846  0.00  0.00    +0.000 C 
BRANCH  15  16
ATOM     16  C   UNL     1       6.718   4.664  17.380  0.00  0.00    +0.000 C 
ATOM     17  O   UNL     1       7.068   4.527  18.549  0.00  0.00    +0.000 OA
BRANCH  16  19
ATOM     18  C   UNL     1       7.135   4.609  15.077  0.00  0.00    +0.000 C 
ATOM     19  O   UNL     1       7.534   5.073  16.368  0.00  0.00    +0.000 OA
ENDBRANCH  16  19
ENDBRANCH  15  16
ENDBRANCH   1  15
BRANCH   8  20
ATOM     20  C   UNL     1       1.797   9.730  18.417  0.00  0.00    +0.000 C 
BRANCH  20  21
ATOM     21  N   UNL     1       0.447  10.047  17.927  0.00  0.00    +0.000 NA
ATOM     22  H   UNL     1      -0.200   9.341  18.279  0.00  0.00    +0.000 HD
BRANCH  21  23
ATOM     23  C   UNL     1      -0.022  11.365  18.343  0.00  0.00    +0.000 C 
BRANCH  23  24
ATOM     24  C   UNL     1      -1.535  11.444  18.293  0.00  0.00    +0.000 A 
ATOM     25  C   UNL     1      -2.229  11.088  17.134  0.00  0.00    +0.000 A 
ATOM     26  C   UNL     1      -3.617  11.208  17.083  0.00  0.00    +0.000 A 
ATOM     27  C   UNL     1      -4.348  11.703  18.175  0.00  0.00    +0.000 A 
ATOM     28  C   UNL     1      -3.664  12.066  19.349  0.00  0.00    +0.000 A 
ATOM     29  C   UNL     1      -2.267  11.910  19.399  0.00  0.00    +0.000 A 
BRANCH  27  30
ATOM     30  O   UNL     1      -5.693  11.757  17.913  0.00  0.00    +0.000 OA
ATOM     31  C   UNL     1      -6.546  10.789  18.503  0.00  0.00    +0.000 C 
ENDBRANCH  27  30
BRANCH  28  32
ATOM     32  O   UNL     1      -4.390  12.578  20.393  0.00  0.00    +0.000 OA
ATOM     33  C   UNL     1      -4.148  13.918  20.796  0.00  0.00    +0.000 C 
ENDBRANCH  28  32
ENDBRANCH  23  24
ENDBRANCH  21  23
ENDBRANCH  20  21
ENDBRANCH   8  20
TORSDOF 10
ENDMDL
MODEL 9
REMARK VINA RESULT:      -7.4      1.875      9.142
REMARK  Name = 
REMARK  14 active torsions:
REMARK  status: ('A' for Active; 'I' for Inactive)
REMARK    1  A    between atoms: C_1  and  O_2
REMARK    2  A    between atoms: O_2  and  C_3
REMARK    3  A    between atoms: C_3  and  C_5
REMARK    4  A    between atoms: C_5  and  C_6
REMARK    5  A    between atoms: C_7  and  C_8
REMARK    6  A    between atoms: C_12  and  O_13
REMARK    7  A    between atoms: C_14  and  C_15
REMARK    8  A    between atoms: C_15  and  N_16
REMARK    9  A    between atoms: N_16  and  C_17
REMARK   10  A    between atoms: C_17  and  C_18
REMARK   11  A    between atoms: C_21  and  O_22
REMARK   12  A    between atoms: O_22  and  C_23
REMARK   13  A    between atoms: C_24  and  O_25
REMARK   14  A    between atoms: O_25  and  C_26
REMARK                            x       y       z     vdW  Elec       q    Type
REMARK                         _______ _______ _______ _____ _____    ______ ____
ROOT
ATOM      1  C   UNL     1      -0.679  10.870  21.509  0.00  0.00    +0.000 A 
ATOM      2  C   UNL     1      -0.395  11.019  20.196  0.00  0.00    +0.000 A 
ATOM      3  C   UNL     1      -0.932  12.138  19.341  0.00  0.00    +0.000 C 
ATOM      4  C   UNL     1       0.484  10.036  19.535  0.00  0.00    +0.000 A 
ATOM      5  C   UNL     1       0.872  10.128  18.192  0.00  0.00    +0.000 A 
ATOM      6  C   UNL     1       1.756   9.200  17.633  0.00  0.00    +0.000 A 
ATOM      7  C   UNL     1       2.239   8.146  18.404  0.00  0.00    +0.000 A 
ATOM      8  C   UNL     1       1.846   7.991  19.736  0.00  0.00    +0.000 A 
ATOM      9  C   UNL     1       0.987   8.967  20.276  0.00  0.00    +0.000 A 
ATOM     10  O   UNL     1       0.632   8.815  21.631  0.00  0.00    +0.000 OA
ATOM     11  C   UNL     1      -0.188   9.705  22.288  0.00  0.00    +0.000 A 
ATOM     12  O   UNL     1      -0.480   9.544  23.469  0.00  0.00    +0.000 OA
ENDROOT
BRANCH   7  13
ATOM     13  O   UNL     1       3.104   7.249  17.847  0.00  0.00    +0.000 OA
ATOM     14  H   UNL     1       2.717   6.904  17.025  0.00  0.00    +0.000 HD
ENDBRANCH   7  13
BRANCH   1  15
ATOM     15  C   UNL     1      -1.509  11.820  22.339  0.00  0.00    +0.000 C 
BRANCH  15  16
ATOM     16  C   UNL     1      -0.832  13.168  22.445  0.00  0.00    +0.000 C 
ATOM     17  O   UNL     1       0.378  13.359  22.529  0.00  0.00    +0.000 OA
BRANCH  16  19
ATOM     18  C   UNL     1      -3.086  13.708  22.124  0.00  0.00    +0.000 C 
ATOM     19  O   UNL     1      -1.777  14.148  22.487  0.00  0.00    +0.000 OA
ENDBRANCH  16  19
ENDBRANCH  15  16
ENDBRANCH   1  15
BRANCH   8  20
ATOM     20  C   UNL     1       2.309   6.828  20.587  0.00  0.00    +0.000 C 
BRANCH  20  21
ATOM     21  N   UNL     1       1.797   5.519  20.157  0.00  0.00    +0.000 NA
ATOM     22  H   UNL     1       1.550   5.575  19.169  0.00  0.00    +0.000 HD
BRANCH  21  23
ATOM     23  C   UNL     1       2.757   4.435  20.341  0.00  0.00    +0.000 C 
BRANCH  23  24
ATOM     24  C   UNL     1       3.703   4.340  19.160  0.00  0.00    +0.000 A 
ATOM     25  C   UNL     1       3.244   3.915  17.911  0.00  0.00    +0.000 A 
ATOM     26  C   UNL     1       4.131   3.787  16.844  0.00  0.00    +0.000 A 
ATOM     27  C   UNL     1       5.500   4.060  16.996  0.00  0.00    +0.000 A 
ATOM     28  C   UNL     1       5.979   4.490  18.247  0.00  0.00    +0.000 A 
ATOM     29  C   UNL     1       5.067   4.645  19.307  0.00  0.00    +0.000 A 
BRANCH  27  30
ATOM     30  O   UNL     1       6.199   3.856  15.833  0.00  0.00    +0.000 OA
ATOM     31  C   UNL     1       6.389   4.948  14.947  0.00  0.00    +0.000 C 
ENDBRANCH  27  30
BRANCH  28  32
ATOM     32  O   UNL     1       7.322   4.720  18.385  0.00  0.00    +0.000 OA
ATOM     33  C   UNL     1       7.748   5.977  18.888  0.00  0.00    +0.000 C 
ENDBRANCH  28  32
ENDBRANCH  23  24
ENDBRANCH  21  23
ENDBRANCH  20  21
ENDBRANCH   8  20
TORSDOF 10
ENDMDL
