MODEL 1
REMARK VINA RESULT:      -7.9      0.000      0.000
REMARK  Name = 
REMARK  5 active torsions:
REMARK  status: ('A' for Active; 'I' for Inactive)
REMARK    1  A    between atoms: C_1  and  N_2
REMARK    2  A    between atoms: N_2  and  O_3
REMARK    3  A    between atoms: C_4  and  C_6
REMARK    4  A    between atoms: C_6  and  C_18
REMARK    5  A    between atoms: C_7  and  C_8
REMARK                            x       y       z     vdW  Elec       q    Type
REMARK                         _______ _______ _______ _____ _____    ______ ____
ROOT
ATOM      1  C   UNL     1       3.732   6.184  17.583  0.00  0.00    +0.000 C 
ATOM      2  C   UNL     1       3.422   7.492  17.449  0.00  0.00    +0.000 C 
ENDROOT
BRANCH   2   3
ATOM      3  C   UNL     1       2.398   8.231  18.205  0.00  0.00    +0.000 A 
ATOM      4  C   UNL     1       1.620   9.213  17.591  0.00  0.00    +0.000 A 
ATOM      5  C   UNL     1       0.701   9.955  18.343  0.00  0.00    +0.000 A 
ATOM      6  C   UNL     1       0.542   9.729  19.721  0.00  0.00    +0.000 A 
ATOM      7  C   UNL     1      -0.359  10.482  20.492  0.00  0.00    +0.000 A 
ATOM      8  C   UNL     1      -0.499  10.244  21.858  0.00  0.00    +0.000 A 
ATOM      9  C   UNL     1       0.258   9.254  22.473  0.00  0.00    +0.000 A 
ATOM     10  C   UNL     1       1.158   8.497  21.721  0.00  0.00    +0.000 A 
ATOM     11  C   UNL     1       1.317   8.725  20.342  0.00  0.00    +0.000 A 
ATOM     12  C   UNL     1       2.236   7.987  19.574  0.00  0.00    +0.000 A 
ENDBRANCH   2   3
BRANCH   1  13
ATOM     13  C   UNL     1       3.042   5.332  18.581  0.00  0.00    +0.000 A 
ATOM     14  C   UNL     1       1.940   4.547  18.219  0.00  0.00    +0.000 A 
ATOM     15  C   UNL     1       1.370   3.664  19.144  0.00  0.00    +0.000 A 
ATOM     16  C   UNL     1       1.900   3.571  20.431  0.00  0.00    +0.000 A 
ATOM     17 BR   UNL     1       1.170   2.333  21.660  0.00  0.00    +0.000 Br
ATOM     18  C   UNL     1       2.979   4.364  20.811  0.00  0.00    +0.000 A 
ATOM     19  C   UNL     1       3.546   5.245  19.887  0.00  0.00    +0.000 A 
ENDBRANCH   1  13
BRANCH   1  22
ATOM     20  C   UNL     1       7.207   4.742  16.848  0.00  0.00    +0.000 C 
ATOM     21  N   UNL     1       6.055   5.200  17.603  0.00  0.00    +0.000 N 
ATOM     22  C   UNL     1       4.927   5.569  16.875  0.00  0.00    +0.000 C 
ATOM     23  O   UNL     1       4.845   5.327  15.666  0.00  0.00    +0.000 OA
BRANCH  21  24
ATOM     24  O   UNL     1       6.470   6.138  18.583  0.00  0.00    +0.000 OA
ATOM     25  H   UNL     1       7.409   5.898  18.690  0.00  0.00    +0.000 HD
ENDBRANCH  21  24
ENDBRANCH   1  22
TORSDOF 4
ENDMDL
MODEL 2
REMARK VINA RESULT:      -7.9      0.857      1.502
REMARK  Name = 
REMARK  5 active torsions:
REMARK  status: ('A' for Active; 'I' for Inactive)
REMARK    1  A    between atoms: C_1  and  N_2
REMARK    2  A    between atoms: N_2  and  O_3
REMARK    3  A    between atoms: C_4  and  C_6
REMARK    4  A    between atoms: C_6  and  C_18
REMARK    5  A    between atoms: C_7  and  C_8
REMARK                            x       y       z     vdW  Elec       q    Type
REMARK                         _______ _______ _______ _____ _____    ______ ____
ROOT
ATOM      1  C   UNL     1       4.049   6.569  17.365  0.00  0.00    +0.000 C 
ATOM      2  C   UNL     1       3.583   7.836  17.324  0.00  0.00    +0.000 C 
ENDROOT
BRANCH   2   3
ATOM      3  C   UNL     1       2.475   8.388  18.119  0.00  0.00    +0.000 A 
ATOM      4  C   UNL     1       1.517   9.220  17.538  0.00  0.00    +0.000 A 
ATOM      5  C   UNL     1       0.511   9.793  18.325  0.00  0.00    +0.000 A 
ATOM      6  C   UNL     1       0.443   9.545  19.707  0.00  0.00    +0.000 A 
ATOM      7  C   UNL     1      -0.546  10.132  20.513  0.00  0.00    +0.000 A 
ATOM      8  C   UNL     1      -0.593   9.877  21.882  0.00  0.00    +0.000 A 
ATOM      9  C   UNL     1       0.346   9.034  22.466  0.00  0.00    +0.000 A 
ATOM     10  C   UNL     1       1.336   8.442  21.678  0.00  0.00    +0.000 A 
ATOM     11  C   UNL     1       1.403   8.692  20.296  0.00  0.00    +0.000 A 
ATOM     12  C   UNL     1       2.407   8.123  19.492  0.00  0.00    +0.000 A 
ENDBRANCH   2   3
BRANCH   1  13
ATOM     13  C   UNL     1       3.463   5.568  18.289  0.00  0.00    +0.000 A 
ATOM     14  C   UNL     1       4.141   5.175  19.450  0.00  0.00    +0.000 A 
ATOM     15  C   UNL     1       3.526   4.314  20.366  0.00  0.00    +0.000 A 
ATOM     16  C   UNL     1       2.236   3.846  20.120  0.00  0.00    +0.000 A 
ATOM     17 BR   UNL     1       1.381   2.736  21.390  0.00  0.00    +0.000 Br
ATOM     18  C   UNL     1       1.560   4.210  18.959  0.00  0.00    +0.000 A 
ATOM     19  C   UNL     1       2.176   5.067  18.044  0.00  0.00    +0.000 A 
ENDBRANCH   1  13
BRANCH   1  22
ATOM     20  C   UNL     1       6.545   4.673  15.159  0.00  0.00    +0.000 C 
ATOM     21  N   UNL     1       5.278   5.099  15.725  0.00  0.00    +0.000 N 
ATOM     22  C   UNL     1       5.312   6.156  16.629  0.00  0.00    +0.000 C 
ATOM     23  O   UNL     1       6.340   6.824  16.786  0.00  0.00    +0.000 OA
BRANCH  21  24
ATOM     24  O   UNL     1       4.543   3.964  16.155  0.00  0.00    +0.000 OA
ATOM     25  H   UNL     1       5.202   3.512  16.714  0.00  0.00    +0.000 HD
ENDBRANCH  21  24
ENDBRANCH   1  22
TORSDOF 4
ENDMDL
MODEL 3
REMARK VINA RESULT:      -7.7      0.831      1.116
REMARK  Name = 
REMARK  5 active torsions:
REMARK  status: ('A' for Active; 'I' for Inactive)
REMARK    1  A    between atoms: C_1  and  N_2
REMARK    2  A    between atoms: N_2  and  O_3
REMARK    3  A    between atoms: C_4  and  C_6
REMARK    4  A    between atoms: C_6  and  C_18
REMARK    5  A    between atoms: C_7  and  C_8
REMARK                            x       y       z     vdW  Elec       q    Type
REMARK                         _______ _______ _______ _____ _____    ______ ____
ROOT
ATOM      1  C   UNL     1       3.689   6.559  17.613  0.00  0.00    +0.000 C 
ATOM      2  C   UNL     1       3.270   7.839  17.507  0.00  0.00    +0.000 C 
ENDROOT
BRANCH   2   3
ATOM      3  C   UNL     1       2.203   8.479  18.293  0.00  0.00    +0.000 A 
ATOM      4  C   UNL     1       1.275   9.327  17.689  0.00  0.00    +0.000 A 
ATOM      5  C   UNL     1       0.311   9.984  18.464  0.00  0.00    +0.000 A 
ATOM      6  C   UNL     1       0.257   9.804  19.857  0.00  0.00    +0.000 A 
ATOM      7  C   UNL     1      -0.689  10.474  20.650  0.00  0.00    +0.000 A 
ATOM      8  C   UNL     1      -0.723  10.285  22.030  0.00  0.00    +0.000 A 
ATOM      9  C   UNL     1       0.185   9.426  22.638  0.00  0.00    +0.000 A 
ATOM     10  C   UNL     1       1.132   8.752  21.863  0.00  0.00    +0.000 A 
ATOM     11  C   UNL     1       1.186   8.934  20.470  0.00  0.00    +0.000 A 
ATOM     12  C   UNL     1       2.148   8.281  19.678  0.00  0.00    +0.000 A 
ENDBRANCH   2   3
BRANCH   1  13
ATOM     13  C   UNL     1       3.088   5.637  18.607  0.00  0.00    +0.000 A 
ATOM     14  C   UNL     1       1.846   5.033  18.372  0.00  0.00    +0.000 A 
ATOM     15  C   UNL     1       1.346   4.081  19.268  0.00  0.00    +0.000 A 
ATOM     16  C   UNL     1       2.086   3.736  20.398  0.00  0.00    +0.000 A 
ATOM     17 BR   UNL     1       1.439   2.403  21.573  0.00  0.00    +0.000 Br
ATOM     18  C   UNL     1       3.310   4.346  20.657  0.00  0.00    +0.000 A 
ATOM     19  C   UNL     1       3.807   5.297  19.763  0.00  0.00    +0.000 A 
ENDBRANCH   1  13
BRANCH   1  22
ATOM     20  C   UNL     1       6.055   4.442  15.465  0.00  0.00    +0.000 C 
ATOM     21  N   UNL     1       4.819   4.949  16.033  0.00  0.00    +0.000 N 
ATOM     22  C   UNL     1       4.916   6.054  16.875  0.00  0.00    +0.000 C 
ATOM     23  O   UNL     1       5.973   6.688  16.970  0.00  0.00    +0.000 OA
BRANCH  21  24
ATOM     24  O   UNL     1       4.052   3.871  16.544  0.00  0.00    +0.000 OA
ATOM     25  H   UNL     1       3.190   4.032  16.116  0.00  0.00    +0.000 HD
ENDBRANCH  21  24
ENDBRANCH   1  22
TORSDOF 4
ENDMDL
MODEL 4
REMARK VINA RESULT:      -7.7      0.373      1.051
REMARK  Name = 
REMARK  5 active torsions:
REMARK  status: ('A' for Active; 'I' for Inactive)
REMARK    1  A    between atoms: C_1  and  N_2
REMARK    2  A    between atoms: N_2  and  O_3
REMARK    3  A    between atoms: C_4  and  C_6
REMARK    4  A    between atoms: C_6  and  C_18
REMARK    5  A    between atoms: C_7  and  C_8
REMARK                            x       y       z     vdW  Elec       q    Type
REMARK                         _______ _______ _______ _____ _____    ______ ____
ROOT
ATOM      1  C   UNL     1       3.940   6.273  17.315  0.00  0.00    +0.000 C 
ATOM      2  C   UNL     1       3.539   7.561  17.251  0.00  0.00    +0.000 C 
ENDROOT
BRANCH   2   3
ATOM      3  C   UNL     1       2.491   8.194  18.067  0.00  0.00    +0.000 A 
ATOM      4  C   UNL     1       1.583   9.090  17.502  0.00  0.00    +0.000 A 
ATOM      5  C   UNL     1       0.638   9.737  18.308  0.00  0.00    +0.000 A 
ATOM      6  C   UNL     1       0.583   9.500  19.693  0.00  0.00    +0.000 A 
ATOM      7  C   UNL     1      -0.343  10.159  20.517  0.00  0.00    +0.000 A 
ATOM      8  C   UNL     1      -0.378   9.914  21.888  0.00  0.00    +0.000 A 
ATOM      9  C   UNL     1       0.510   9.008  22.456  0.00  0.00    +0.000 A 
ATOM     10  C   UNL     1       1.438   8.344  21.650  0.00  0.00    +0.000 A 
ATOM     11  C   UNL     1       1.492   8.582  20.265  0.00  0.00    +0.000 A 
ATOM     12  C   UNL     1       2.435   7.940  19.443  0.00  0.00    +0.000 A 
ENDBRANCH   2   3
BRANCH   1  13
ATOM     13  C   UNL     1       3.338   5.332  18.290  0.00  0.00    +0.000 A 
ATOM     14  C   UNL     1       3.917   5.129  19.549  0.00  0.00    +0.000 A 
ATOM     15  C   UNL     1       3.275   4.324  20.498  0.00  0.00    +0.000 A 
ATOM     16  C   UNL     1       2.057   3.721  20.185  0.00  0.00    +0.000 A 
ATOM     17 BR   UNL     1       1.160   2.686  21.489  0.00  0.00    +0.000 Br
ATOM     18  C   UNL     1       1.483   3.894  18.929  0.00  0.00    +0.000 A 
ATOM     19  C   UNL     1       2.125   4.696  17.983  0.00  0.00    +0.000 A 
ENDBRANCH   1  13
BRANCH   1  22
ATOM     20  C   UNL     1       7.482   5.109  16.422  0.00  0.00    +0.000 C 
ATOM     21  N   UNL     1       6.325   5.454  17.228  0.00  0.00    +0.000 N 
ATOM     22  C   UNL     1       5.152   5.772  16.549  0.00  0.00    +0.000 C 
ATOM     23  O   UNL     1       5.050   5.575  15.333  0.00  0.00    +0.000 OA
BRANCH  21  24
ATOM     24  O   UNL     1       6.704   6.377  18.236  0.00  0.00    +0.000 OA
ATOM     25  H   UNL     1       7.673   6.268  18.239  0.00  0.00    +0.000 HD
ENDBRANCH  21  24
ENDBRANCH   1  22
TORSDOF 4
ENDMDL
MODEL 5
REMARK VINA RESULT:      -7.6      3.981      5.797
REMARK  Name = 
REMARK  5 active torsions:
REMARK  status: ('A' for Active; 'I' for Inactive)
REMARK    1  A    between atoms: C_1  and  N_2
REMARK    2  A    between atoms: N_2  and  O_3
REMARK    3  A    between atoms: C_4  and  C_6
REMARK    4  A    between atoms: C_6  and  C_18
REMARK    5  A    between atoms: C_7  and  C_8
REMARK                            x       y       z     vdW  Elec       q    Type
REMARK                         _______ _______ _______ _____ _____    ______ ____
ROOT
ATOM      1  C   UNL     1       6.271   4.961  15.732  0.00  0.00    +0.000 C 
ATOM      2  C   UNL     1       5.126   4.299  16.007  0.00  0.00    +0.000 C 
ENDROOT
BRANCH   2   3
ATOM      3  C   UNL     1       4.297   4.445  17.214  0.00  0.00    +0.000 A 
ATOM      4  C   UNL     1       3.664   5.653  17.509  0.00  0.00    +0.000 A 
ATOM      5  C   UNL     1       2.937   5.795  18.697  0.00  0.00    +0.000 A 
ATOM      6  C   UNL     1       2.830   4.733  19.612  0.00  0.00    +0.000 A 
ATOM      7  C   UNL     1       2.125   4.869  20.819  0.00  0.00    +0.000 A 
ATOM      8  C   UNL     1       2.034   3.806  21.715  0.00  0.00    +0.000 A 
ATOM      9  C   UNL     1       2.645   2.592  21.419  0.00  0.00    +0.000 A 
ATOM     10  C   UNL     1       3.350   2.441  20.223  0.00  0.00    +0.000 A 
ATOM     11  C   UNL     1       3.457   3.504  19.309  0.00  0.00    +0.000 A 
ATOM     12  C   UNL     1       4.183   3.376  18.111  0.00  0.00    +0.000 A 
ENDBRANCH   2   3
BRANCH   1  13
ATOM     13  C   UNL     1       6.814   5.972  16.672  0.00  0.00    +0.000 A 
ATOM     14  C   UNL     1       7.573   5.588  17.784  0.00  0.00    +0.000 A 
ATOM     15  C   UNL     1       8.171   6.558  18.597  0.00  0.00    +0.000 A 
ATOM     16  C   UNL     1       8.006   7.910  18.298  0.00  0.00    +0.000 A 
ATOM     17 BR   UNL     1       8.867   9.218  19.359  0.00  0.00    +0.000 Br
ATOM     18  C   UNL     1       7.234   8.307  17.210  0.00  0.00    +0.000 A 
ATOM     19  C   UNL     1       6.636   7.337  16.401  0.00  0.00    +0.000 A 
ENDBRANCH   1  13
BRANCH   1  22
ATOM     20  C   UNL     1       7.139   3.942  12.141  0.00  0.00    +0.000 C 
ATOM     21  N   UNL     1       6.372   4.101  13.363  0.00  0.00    +0.000 N 
ATOM     22  C   UNL     1       6.949   4.861  14.377  0.00  0.00    +0.000 C 
ATOM     23  O   UNL     1       7.968   5.528  14.169  0.00  0.00    +0.000 OA
BRANCH  21  24
ATOM     24  O   UNL     1       5.860   2.843  13.772  0.00  0.00    +0.000 OA
ATOM     25  H   UNL     1       5.530   2.488  12.926  0.00  0.00    +0.000 HD
ENDBRANCH  21  24
ENDBRANCH   1  22
TORSDOF 4
ENDMDL
MODEL 6
REMARK VINA RESULT:      -7.5      0.937      2.006
REMARK  Name = 
REMARK  5 active torsions:
REMARK  status: ('A' for Active; 'I' for Inactive)
REMARK    1  A    between atoms: C_1  and  N_2
REMARK    2  A    between atoms: N_2  and  O_3
REMARK    3  A    between atoms: C_4  and  C_6
REMARK    4  A    between atoms: C_6  and  C_18
REMARK    5  A    between atoms: C_7  and  C_8
REMARK                            x       y       z     vdW  Elec       q    Type
REMARK                         _______ _______ _______ _____ _____    ______ ____
ROOT
ATOM      1  C   UNL     1       3.881   5.804  17.299  0.00  0.00    +0.000 C 
ATOM      2  C   UNL     1       3.593   7.124  17.295  0.00  0.00    +0.000 C 
ENDROOT
BRANCH   2   3
ATOM      3  C   UNL     1       2.708   7.830  18.236  0.00  0.00    +0.000 A 
ATOM      4  C   UNL     1       2.599   7.420  19.566  0.00  0.00    +0.000 A 
ATOM      5  C   UNL     1       1.700   8.058  20.428  0.00  0.00    +0.000 A 
ATOM      6  C   UNL     1       0.893   9.118  19.977  0.00  0.00    +0.000 A 
ATOM      7  C   UNL     1      -0.030   9.752  20.824  0.00  0.00    +0.000 A 
ATOM      8  C   UNL     1      -0.824  10.798  20.358  0.00  0.00    +0.000 A 
ATOM      9  C   UNL     1      -0.707  11.226  19.040  0.00  0.00    +0.000 A 
ATOM     10  C   UNL     1       0.207  10.606  18.185  0.00  0.00    +0.000 A 
ATOM     11  C   UNL     1       1.012   9.545  18.636  0.00  0.00    +0.000 A 
ATOM     12  C   UNL     1       1.921   8.894  17.782  0.00  0.00    +0.000 A 
ENDBRANCH   2   3
BRANCH   1  13
ATOM     13  C   UNL     1       3.314   4.900  18.328  0.00  0.00    +0.000 A 
ATOM     14  C   UNL     1       4.080   4.485  19.425  0.00  0.00    +0.000 A 
ATOM     15  C   UNL     1       3.496   3.723  20.443  0.00  0.00    +0.000 A 
ATOM     16  C   UNL     1       2.148   3.374  20.363  0.00  0.00    +0.000 A 
ATOM     17 BR   UNL     1       1.345   2.400  21.770  0.00  0.00    +0.000 Br
ATOM     18  C   UNL     1       1.381   3.759  19.266  0.00  0.00    +0.000 A 
ATOM     19  C   UNL     1       1.966   4.518  18.249  0.00  0.00    +0.000 A 
ENDBRANCH   1  13
BRANCH   1  22
ATOM     20  C   UNL     1       7.215   5.104  15.541  0.00  0.00    +0.000 C 
ATOM     21  N   UNL     1       6.275   5.605  16.527  0.00  0.00    +0.000 N 
ATOM     22  C   UNL     1       4.945   5.215  16.389  0.00  0.00    +0.000 C 
ATOM     23  O   UNL     1       4.624   4.329  15.590  0.00  0.00    +0.000 OA
BRANCH  21  24
ATOM     24  O   UNL     1       6.475   6.998  16.712  0.00  0.00    +0.000 OA
ATOM     25  H   UNL     1       7.218   7.165  16.102  0.00  0.00    +0.000 HD
ENDBRANCH  21  24
ENDBRANCH   1  22
TORSDOF 4
ENDMDL
MODEL 7
REMARK VINA RESULT:      -7.4      3.214      4.946
REMARK  Name = 
REMARK  5 active torsions:
REMARK  status: ('A' for Active; 'I' for Inactive)
REMARK    1  A    between atoms: C_1  and  N_2
REMARK    2  A    between atoms: N_2  and  O_3
REMARK    3  A    between atoms: C_4  and  C_6
REMARK    4  A    between atoms: C_6  and  C_18
REMARK    5  A    between atoms: C_7  and  C_8
REMARK                            x       y       z     vdW  Elec       q    Type
REMARK                         _______ _______ _______ _____ _____    ______ ____
ROOT
ATOM      1  C   UNL     1       6.054   5.512  16.758  0.00  0.00    +0.000 C 
ATOM      2  C   UNL     1       4.755   5.274  17.043  0.00  0.00    +0.000 C 
ENDROOT
BRANCH   2   3
ATOM      3  C   UNL     1       3.923   6.006  18.011  0.00  0.00    +0.000 A 
ATOM      4  C   UNL     1       3.682   5.493  19.286  0.00  0.00    +0.000 A 
ATOM      5  C   UNL     1       2.830   6.168  20.168  0.00  0.00    +0.000 A 
ATOM      6  C   UNL     1       2.203   7.369  19.792  0.00  0.00    +0.000 A 
ATOM      7  C   UNL     1       1.327   8.044  20.657  0.00  0.00    +0.000 A 
ATOM      8  C   UNL     1       0.712   9.231  20.264  0.00  0.00    +0.000 A 
ATOM      9  C   UNL     1       0.962   9.760  19.003  0.00  0.00    +0.000 A 
ATOM     10  C   UNL     1       1.830   9.100  18.130  0.00  0.00    +0.000 A 
ATOM     11  C   UNL     1       2.456   7.899  18.507  0.00  0.00    +0.000 A 
ATOM     12  C   UNL     1       3.315   7.209  17.632  0.00  0.00    +0.000 A 
ENDBRANCH   2   3
BRANCH   1  13
ATOM     13  C   UNL     1       6.793   6.614  17.420  0.00  0.00    +0.000 A 
ATOM     14  C   UNL     1       7.659   6.360  18.492  0.00  0.00    +0.000 A 
ATOM     15  C   UNL     1       8.432   7.394  19.032  0.00  0.00    +0.000 A 
ATOM     16  C   UNL     1       8.337   8.681  18.502  0.00  0.00    +0.000 A 
ATOM     17 BR   UNL     1       9.430  10.062  19.190  0.00  0.00    +0.000 Br
ATOM     18  C   UNL     1       7.463   8.952  17.454  0.00  0.00    +0.000 A 
ATOM     19  C   UNL     1       6.690   7.920  16.917  0.00  0.00    +0.000 A 
ENDBRANCH   1  13
BRANCH   1  22
ATOM     20  C   UNL     1       6.846   3.956  13.346  0.00  0.00    +0.000 C 
ATOM     21  N   UNL     1       6.175   4.755  14.355  0.00  0.00    +0.000 N 
ATOM     22  C   UNL     1       6.765   4.809  15.615  0.00  0.00    +0.000 C 
ATOM     23  O   UNL     1       7.902   4.364  15.802  0.00  0.00    +0.000 OA
BRANCH  21  24
ATOM     24  O   UNL     1       4.788   4.458  14.353  0.00  0.00    +0.000 OA
ATOM     25  H   UNL     1       4.803   3.483  14.342  0.00  0.00    +0.000 HD
ENDBRANCH  21  24
ENDBRANCH   1  22
TORSDOF 4
ENDMDL
MODEL 8
REMARK VINA RESULT:      -7.3      3.314      7.020
REMARK  Name = 
REMARK  5 active torsions:
REMARK  status: ('A' for Active; 'I' for Inactive)
REMARK    1  A    between atoms: C_1  and  N_2
REMARK    2  A    between atoms: N_2  and  O_3
REMARK    3  A    between atoms: C_4  and  C_6
REMARK    4  A    between atoms: C_6  and  C_18
REMARK    5  A    between atoms: C_7  and  C_8
REMARK                            x       y       z     vdW  Elec       q    Type
REMARK                         _______ _______ _______ _____ _____    ______ ____
ROOT
ATOM      1  C   UNL     1       2.552   3.887  19.251  0.00  0.00    +0.000 C 
ATOM      2  C   UNL     1       3.556   3.166  18.706  0.00  0.00    +0.000 C 
ENDROOT
BRANCH   2   3
ATOM      3  C   UNL     1       4.639   3.679  17.852  0.00  0.00    +0.000 A 
ATOM      4  C   UNL     1       5.694   4.414  18.394  0.00  0.00    +0.000 A 
ATOM      5  C   UNL     1       6.679   4.955  17.557  0.00  0.00    +0.000 A 
ATOM      6  C   UNL     1       6.627   4.770  16.165  0.00  0.00    +0.000 A 
ATOM      7  C   UNL     1       7.593   5.325  15.311  0.00  0.00    +0.000 A 
ATOM      8  C   UNL     1       7.522   5.134  13.933  0.00  0.00    +0.000 A 
ATOM      9  C   UNL     1       6.485   4.385  13.387  0.00  0.00    +0.000 A 
ATOM     10  C   UNL     1       5.516   3.826  14.222  0.00  0.00    +0.000 A 
ATOM     11  C   UNL     1       5.568   4.012  15.615  0.00  0.00    +0.000 A 
ATOM     12  C   UNL     1       4.587   3.475  16.468  0.00  0.00    +0.000 A 
ENDBRANCH   2   3
BRANCH   1  13
ATOM     13  C   UNL     1       2.461   5.353  19.042  0.00  0.00    +0.000 A 
ATOM     14  C   UNL     1       2.501   5.901  17.754  0.00  0.00    +0.000 A 
ATOM     15  C   UNL     1       2.302   7.274  17.567  0.00  0.00    +0.000 A 
ATOM     16  C   UNL     1       2.067   8.097  18.667  0.00  0.00    +0.000 A 
ATOM     17 BR   UNL     1       1.735   9.940  18.408  0.00  0.00    +0.000 Br
ATOM     18  C   UNL     1       2.050   7.569  19.955  0.00  0.00    +0.000 A 
ATOM     19  C   UNL     1       2.250   6.199  20.141  0.00  0.00    +0.000 A 
ENDBRANCH   1  13
BRANCH   1  22
ATOM     20  C   UNL     1       1.086   2.327  22.431  0.00  0.00    +0.000 C 
ATOM     21  N   UNL     1       2.015   3.023  21.560  0.00  0.00    +0.000 N 
ATOM     22  C   UNL     1       1.590   3.285  20.260  0.00  0.00    +0.000 C 
ATOM     23  O   UNL     1       0.411   3.113  19.932  0.00  0.00    +0.000 OA
BRANCH  21  24
ATOM     24  O   UNL     1       3.300   2.430  21.663  0.00  0.00    +0.000 OA
ATOM     25  H   UNL     1       3.104   1.647  22.210  0.00  0.00    +0.000 HD
ENDBRANCH  21  24
ENDBRANCH   1  22
TORSDOF 4
ENDMDL
MODEL 9
REMARK VINA RESULT:      -7.1      1.116      2.221
REMARK  Name = 
REMARK  5 active torsions:
REMARK  status: ('A' for Active; 'I' for Inactive)
REMARK    1  A    between atoms: C_1  and  N_2
REMARK    2  A    between atoms: N_2  and  O_3
REMARK    3  A    between atoms: C_4  and  C_6
REMARK    4  A    between atoms: C_6  and  C_18
REMARK    5  A    between atoms: C_7  and  C_8
REMARK                            x       y       z     vdW  Elec       q    Type
REMARK                         _______ _______ _______ _____ _____    ______ ____
ROOT
ATOM      1  C   UNL     1       3.934   6.374  17.308  0.00  0.00    +0.000 C 
ATOM      2  C   UNL     1       3.557   7.670  17.359  0.00  0.00    +0.000 C 
ENDROOT
BRANCH   2   3
ATOM      3  C   UNL     1       2.592   8.266  18.296  0.00  0.00    +0.000 A 
ATOM      4  C   UNL     1       2.425   7.749  19.582  0.00  0.00    +0.000 A 
ATOM      5  C   UNL     1       1.453   8.284  20.435  0.00  0.00    +0.000 A 
ATOM      6  C   UNL     1       0.629   9.345  20.019  0.00  0.00    +0.000 A 
ATOM      7  C   UNL     1      -0.367   9.875  20.856  0.00  0.00    +0.000 A 
ATOM      8  C   UNL     1      -1.176  10.924  20.423  0.00  0.00    +0.000 A 
ATOM      9  C   UNL     1      -1.003  11.457  19.151  0.00  0.00    +0.000 A 
ATOM     10  C   UNL     1      -0.018  10.941  18.307  0.00  0.00    +0.000 A 
ATOM     11  C   UNL     1       0.805   9.880  18.724  0.00  0.00    +0.000 A 
ATOM     12  C   UNL     1       1.787   9.332  17.878  0.00  0.00    +0.000 A 
ENDBRANCH   2   3
BRANCH   1  13
ATOM     13  C   UNL     1       3.390   5.381  18.267  0.00  0.00    +0.000 A 
ATOM     14  C   UNL     1       4.125   4.988  19.392  0.00  0.00    +0.000 A 
ATOM     15  C   UNL     1       3.553   4.136  20.344  0.00  0.00    +0.000 A 
ATOM     16  C   UNL     1       2.248   3.677  20.169  0.00  0.00    +0.000 A 
ATOM     17 BR   UNL     1       1.454   2.579  21.488  0.00  0.00    +0.000 Br
ATOM     18  C   UNL     1       1.514   4.040  19.043  0.00  0.00    +0.000 A 
ATOM     19  C   UNL     1       2.088   4.889  18.092  0.00  0.00    +0.000 A 
ENDBRANCH   1  13
BRANCH   1  22
ATOM     20  C   UNL     1       6.097   4.281  14.935  0.00  0.00    +0.000 C 
ATOM     21  N   UNL     1       4.928   4.742  15.661  0.00  0.00    +0.000 N 
ATOM     22  C   UNL     1       5.069   5.903  16.416  0.00  0.00    +0.000 C 
ATOM     23  O   UNL     1       6.077   6.610  16.310  0.00  0.00    +0.000 OA
BRANCH  21  24
ATOM     24  O   UNL     1       4.329   3.652  16.343  0.00  0.00    +0.000 OA
ATOM     25  H   UNL     1       3.462   3.603  15.898  0.00  0.00    +0.000 HD
ENDBRANCH  21  24
ENDBRANCH   1  22
TORSDOF 4
ENDMDL
