MODEL 1
REMARK VINA RESULT:      -6.7      0.000      0.000
REMARK  Name = 
REMARK  9 active torsions:
REMARK  status: ('A' for Active; 'I' for Inactive)
REMARK    1  A    between atoms: C_1  and  C_2
REMARK    2  A    between atoms: C_2  and  N_3
REMARK    3  A    between atoms: N_6  and  C_7
REMARK    4  A    between atoms: C_9  and  N_10
REMARK    5  A    between atoms: C_11  and  C_13
REMARK    6  A    between atoms: C_17  and  N_18
REMARK    7  A    between atoms: N_18  and  C_19
REMARK    8  A    between atoms: C_21  and  O_22
REMARK    9  A    between atoms: O_22  and  C_23
REMARK                            x       y       z     vdW  Elec       q    Type
REMARK                         _______ _______ _______ _____ _____    ______ ____
ROOT
ATOM      1  N   UNL     1       1.505   8.842  18.977  0.00  0.00    +0.000 N 
ATOM      2  C   UNL     1       1.666   8.013  20.073  0.00  0.00    +0.000 C 
ATOM      3  O   UNL     1       1.345   8.331  21.203  0.00  0.00    +0.000 OA
ATOM      4  H   UNL     1       1.683   8.497  18.043  0.00  0.00    +0.000 HD
ENDROOT
BRANCH   1  11
ATOM      5  N   UNL     1       1.858  12.616  19.030  0.00  0.00    +0.000 NA
ATOM      6  C   UNL     1       0.496  13.037  19.380  0.00  0.00    +0.000 C 
ATOM      7  C   UNL     1      -0.611  12.709  18.357  0.00  0.00    +0.000 C 
ATOM      8  N   UNL     1      -1.300  11.457  18.707  0.00  0.00    +0.000 NA
ATOM      9  C   UNL     1      -2.555  11.344  17.955  0.00  0.00    +0.000 C 
ATOM     10  C   UNL     1      -0.466  10.272  18.429  0.00  0.00    +0.000 C 
ATOM     11  C   UNL     1       0.946  10.200  19.082  0.00  0.00    +0.000 C 
ATOM     12  C   UNL     1       1.932  11.240  18.493  0.00  0.00    +0.000 C 
BRANCH   5  14
ATOM     13  C   UNL     1       2.396  15.012  18.500  0.00  0.00    +0.000 C 
ATOM     14  C   UNL     1       2.561  13.541  18.127  0.00  0.00    +0.000 C 
ENDBRANCH   5  14
ENDBRANCH   1  11
BRANCH   2  15
ATOM     15  C   UNL     1       2.323   6.707  19.813  0.00  0.00    +0.000 A 
ATOM     16  C   UNL     1       1.933   5.638  20.637  0.00  0.00    +0.000 A 
ATOM     17  C   UNL     1       2.403   4.333  20.433  0.00  0.00    +0.000 A 
ATOM     18 CL   UNL     1       1.913   3.209  21.656  0.00  0.00    +0.000 Cl
ATOM     19  C   UNL     1       3.236   4.032  19.347  0.00  0.00    +0.000 A 
ATOM     20  C   UNL     1       3.617   5.131  18.537  0.00  0.00    +0.000 A 
ATOM     21  C   UNL     1       3.184   6.457  18.745  0.00  0.00    +0.000 A 
BRANCH  19  22
ATOM     22  N   UNL     1       3.841   2.811  19.043  0.00  0.00    +0.000 N 
ATOM     23  C   UNL     1       3.243   1.741  18.264  0.00  0.00    +0.000 C 
ATOM     24  H   UNL     1       4.819   2.923  18.785  0.00  0.00    +0.000 HD
ENDBRANCH  19  22
BRANCH  21  25
ATOM     25  O   UNL     1       3.629   7.315  17.778  0.00  0.00    +0.000 OA
ATOM     26  C   UNL     1       4.649   6.872  16.890  0.00  0.00    +0.000 C 
ENDBRANCH  21  25
ENDBRANCH   2  15
TORSDOF 5
ENDMDL
MODEL 2
REMARK VINA RESULT:      -6.7      2.437      3.707
REMARK  Name = 
REMARK  9 active torsions:
REMARK  status: ('A' for Active; 'I' for Inactive)
REMARK    1  A    between atoms: C_1  and  C_2
REMARK    2  A    between atoms: C_2  and  N_3
REMARK    3  A    between atoms: N_6  and  C_7
REMARK    4  A    between atoms: C_9  and  N_10
REMARK    5  A    between atoms: C_11  and  C_13
REMARK    6  A    between atoms: C_17  and  N_18
REMARK    7  A    between atoms: N_18  and  C_19
REMARK    8  A    between atoms: C_21  and  O_22
REMARK    9  A    between atoms: O_22  and  C_23
REMARK                            x       y       z     vdW  Elec       q    Type
REMARK                         _______ _______ _______ _____ _____    ______ ____
ROOT
ATOM      1  N   UNL     1       1.219   9.056  19.318  0.00  0.00    +0.000 N 
ATOM      2  C   UNL     1       2.089   8.835  18.265  0.00  0.00    +0.000 C 
ATOM      3  O   UNL     1       2.266   9.635  17.365  0.00  0.00    +0.000 OA
ATOM      4  H   UNL     1       1.185   8.415  20.099  0.00  0.00    +0.000 HD
ENDROOT
BRANCH   1  11
ATOM      5  N   UNL     1      -1.346  11.516  17.997  0.00  0.00    +0.000 NA
ATOM      6  C   UNL     1      -1.281  12.582  19.004  0.00  0.00    +0.000 C 
ATOM      7  C   UNL     1      -1.719  12.208  20.433  0.00  0.00    +0.000 C 
ATOM      8  N   UNL     1      -0.560  11.852  21.266  0.00  0.00    +0.000 NA
ATOM      9  C   UNL     1      -0.938  11.849  22.685  0.00  0.00    +0.000 C 
ATOM     10  C   UNL     1      -0.014  10.528  20.913  0.00  0.00    +0.000 C 
ATOM     11  C   UNL     1       0.408  10.280  19.435  0.00  0.00    +0.000 C 
ATOM     12  C   UNL     1      -0.802  10.224  18.468  0.00  0.00    +0.000 C 
BRANCH   5  14
ATOM     13  C   UNL     1      -3.181   9.870  17.510  0.00  0.00    +0.000 C 
ATOM     14  C   UNL     1      -2.685  11.311  17.423  0.00  0.00    +0.000 C 
ENDBRANCH   5  14
ENDBRANCH   1  11
BRANCH   2  15
ATOM     15  C   UNL     1       2.770   7.515  18.248  0.00  0.00    +0.000 A 
ATOM     16  C   UNL     1       3.711   7.313  17.225  0.00  0.00    +0.000 A 
ATOM     17  C   UNL     1       4.492   6.151  17.154  0.00  0.00    +0.000 A 
ATOM     18 CL   UNL     1       5.473   6.047  15.730  0.00  0.00    +0.000 Cl
ATOM     19  C   UNL     1       4.409   5.168  18.149  0.00  0.00    +0.000 A 
ATOM     20  C   UNL     1       3.447   5.397  19.165  0.00  0.00    +0.000 A 
ATOM     21  C   UNL     1       2.626   6.541  19.236  0.00  0.00    +0.000 A 
BRANCH  19  22
ATOM     22  N   UNL     1       5.061   3.934  18.192  0.00  0.00    +0.000 N 
ATOM     23  C   UNL     1       4.666   2.795  19.003  0.00  0.00    +0.000 C 
ATOM     24  H   UNL     1       5.342   3.619  17.265  0.00  0.00    +0.000 HD
ENDBRANCH  19  22
BRANCH  21  25
ATOM     25  O   UNL     1       1.840   6.559  20.355  0.00  0.00    +0.000 OA
ATOM     26  C   UNL     1       1.487   5.320  20.960  0.00  0.00    +0.000 C 
ENDBRANCH  21  25
ENDBRANCH   2  15
TORSDOF 5
ENDMDL
MODEL 3
REMARK VINA RESULT:      -6.5      1.810      2.771
REMARK  Name = 
REMARK  9 active torsions:
REMARK  status: ('A' for Active; 'I' for Inactive)
REMARK    1  A    between atoms: C_1  and  C_2
REMARK    2  A    between atoms: C_2  and  N_3
REMARK    3  A    between atoms: N_6  and  C_7
REMARK    4  A    between atoms: C_9  and  N_10
REMARK    5  A    between atoms: C_11  and  C_13
REMARK    6  A    between atoms: C_17  and  N_18
REMARK    7  A    between atoms: N_18  and  C_19
REMARK    8  A    between atoms: C_21  and  O_22
REMARK    9  A    between atoms: O_22  and  C_23
REMARK                            x       y       z     vdW  Elec       q    Type
REMARK                         _______ _______ _______ _____ _____    ______ ____
ROOT
ATOM      1  N   UNL     1       1.295   8.889  19.554  0.00  0.00    +0.000 N 
ATOM      2  C   UNL     1       2.092   8.464  18.506  0.00  0.00    +0.000 C 
ATOM      3  O   UNL     1       2.250   9.106  17.484  0.00  0.00    +0.000 OA
ATOM      4  H   UNL     1       1.279   8.379  20.427  0.00  0.00    +0.000 HD
ENDROOT
BRANCH   1  11
ATOM      5  N   UNL     1      -1.098  11.322  17.901  0.00  0.00    +0.000 NA
ATOM      6  C   UNL     1      -1.010  12.480  18.799  0.00  0.00    +0.000 C 
ATOM      7  C   UNL     1      -1.513  12.274  20.241  0.00  0.00    +0.000 C 
ATOM      8  N   UNL     1      -0.401  11.949  21.148  0.00  0.00    +0.000 NA
ATOM      9  C   UNL     1      -0.824  12.107  22.544  0.00  0.00    +0.000 C 
ATOM     10  C   UNL     1       0.088  10.571  20.949  0.00  0.00    +0.000 C 
ATOM     11  C   UNL     1       0.544  10.155  19.519  0.00  0.00    +0.000 C 
ATOM     12  C   UNL     1      -0.635  10.060  18.518  0.00  0.00    +0.000 C 
BRANCH   5  14
ATOM     13  C   UNL     1      -3.037   9.756  17.591  0.00  0.00    +0.000 C 
ATOM     14  C   UNL     1      -2.427  11.124  17.301  0.00  0.00    +0.000 C 
ENDBRANCH   5  14
ENDBRANCH   1  11
BRANCH   2  15
ATOM     15  C   UNL     1       2.715   7.125  18.661  0.00  0.00    +0.000 A 
ATOM     16  C   UNL     1       2.241   6.337  19.724  0.00  0.00    +0.000 A 
ATOM     17  C   UNL     1       2.674   5.019  19.922  0.00  0.00    +0.000 A 
ATOM     18 CL   UNL     1       2.077   4.291  21.375  0.00  0.00    +0.000 Cl
ATOM     19  C   UNL     1       3.556   4.410  19.018  0.00  0.00    +0.000 A 
ATOM     20  C   UNL     1       4.020   5.231  17.960  0.00  0.00    +0.000 A 
ATOM     21  C   UNL     1       3.625   6.569  17.762  0.00  0.00    +0.000 A 
BRANCH  19  22
ATOM     22  N   UNL     1       4.131   3.141  19.105  0.00  0.00    +0.000 N 
ATOM     23  C   UNL     1       3.567   1.916  18.565  0.00  0.00    +0.000 C 
ATOM     24  H   UNL     1       5.135   3.165  18.935  0.00  0.00    +0.000 HD
ENDBRANCH  19  22
BRANCH  21  25
ATOM     25  O   UNL     1       4.154   7.114  16.625  0.00  0.00    +0.000 OA
ATOM     26  C   UNL     1       5.282   6.484  16.028  0.00  0.00    +0.000 C 
ENDBRANCH  21  25
ENDBRANCH   2  15
TORSDOF 5
ENDMDL
MODEL 4
REMARK VINA RESULT:      -6.5      2.291      2.895
REMARK  Name = 
REMARK  9 active torsions:
REMARK  status: ('A' for Active; 'I' for Inactive)
REMARK    1  A    between atoms: C_1  and  C_2
REMARK    2  A    between atoms: C_2  and  N_3
REMARK    3  A    between atoms: N_6  and  C_7
REMARK    4  A    between atoms: C_9  and  N_10
REMARK    5  A    between atoms: C_11  and  C_13
REMARK    6  A    between atoms: C_17  and  N_18
REMARK    7  A    between atoms: N_18  and  C_19
REMARK    8  A    between atoms: C_21  and  O_22
REMARK    9  A    between atoms: O_22  and  C_23
REMARK                            x       y       z     vdW  Elec       q    Type
REMARK                         _______ _______ _______ _____ _____    ______ ____
ROOT
ATOM      1  N   UNL     1       1.938   8.631  17.960  0.00  0.00    +0.000 N 
ATOM      2  C   UNL     1       2.391   7.588  18.749  0.00  0.00    +0.000 C 
ATOM      3  O   UNL     1       2.181   7.516  19.946  0.00  0.00    +0.000 OA
ATOM      4  H   UNL     1       2.040   8.595  16.955  0.00  0.00    +0.000 HD
ENDROOT
BRANCH   1  11
ATOM      5  N   UNL     1       1.673  12.207  19.190  0.00  0.00    +0.000 NA
ATOM      6  C   UNL     1       0.295  12.246  19.695  0.00  0.00    +0.000 C 
ATOM      7  C   UNL     1      -0.826  12.050  18.655  0.00  0.00    +0.000 C 
ATOM      8  N   UNL     1      -1.269  10.647  18.612  0.00  0.00    +0.000 NA
ATOM      9  C   UNL     1      -2.548  10.543  17.901  0.00  0.00    +0.000 C 
ATOM     10  C   UNL     1      -0.279   9.777  17.950  0.00  0.00    +0.000 C 
ATOM     11  C   UNL     1       1.175   9.767  18.504  0.00  0.00    +0.000 C 
ATOM     12  C   UNL     1       1.925  11.098  18.245  0.00  0.00    +0.000 C 
BRANCH   5  14
ATOM     13  C   UNL     1       1.774  14.706  19.430  0.00  0.00    +0.000 C 
ATOM     14  C   UNL     1       2.135  13.475  18.603  0.00  0.00    +0.000 C 
ENDBRANCH   5  14
ENDBRANCH   1  11
BRANCH   2  15
ATOM     15  C   UNL     1       3.218   6.563  18.063  0.00  0.00    +0.000 A 
ATOM     16  C   UNL     1       4.557   6.907  17.814  0.00  0.00    +0.000 A 
ATOM     17  C   UNL     1       5.468   5.996  17.263  0.00  0.00    +0.000 A 
ATOM     18 CL   UNL     1       7.017   6.679  16.902  0.00  0.00    +0.000 Cl
ATOM     19  C   UNL     1       5.088   4.672  16.999  0.00  0.00    +0.000 A 
ATOM     20  C   UNL     1       3.731   4.356  17.256  0.00  0.00    +0.000 A 
ATOM     21  C   UNL     1       2.789   5.267  17.776  0.00  0.00    +0.000 A 
BRANCH  19  22
ATOM     22  N   UNL     1       5.847   3.668  16.395  0.00  0.00    +0.000 N 
ATOM     23  C   UNL     1       6.327   3.678  15.024  0.00  0.00    +0.000 C 
ATOM     24  H   UNL     1       6.573   3.313  17.015  0.00  0.00    +0.000 HD
ENDBRANCH  19  22
BRANCH  21  25
ATOM     25  O   UNL     1       1.570   4.692  18.007  0.00  0.00    +0.000 OA
ATOM     26  C   UNL     1       1.397   3.907  19.181  0.00  0.00    +0.000 C 
ENDBRANCH  21  25
ENDBRANCH   2  15
TORSDOF 5
ENDMDL
MODEL 5
REMARK VINA RESULT:      -6.4      2.978      7.913
REMARK  Name = 
REMARK  9 active torsions:
REMARK  status: ('A' for Active; 'I' for Inactive)
REMARK    1  A    between atoms: C_1  and  C_2
REMARK    2  A    between atoms: C_2  and  N_3
REMARK    3  A    between atoms: N_6  and  C_7
REMARK    4  A    between atoms: C_9  and  N_10
REMARK    5  A    between atoms: C_11  and  C_13
REMARK    6  A    between atoms: C_17  and  N_18
REMARK    7  A    between atoms: N_18  and  C_19
REMARK    8  A    between atoms: C_21  and  O_22
REMARK    9  A    between atoms: O_22  and  C_23
REMARK                            x       y       z     vdW  Elec       q    Type
REMARK                         _______ _______ _______ _____ _____    ______ ____
ROOT
ATOM      1  N   UNL     1       2.195   7.227  18.994  0.00  0.00    +0.000 N 
ATOM      2  C   UNL     1       2.059   8.417  18.301  0.00  0.00    +0.000 C 
ATOM      3  O   UNL     1       2.339   8.540  17.122  0.00  0.00    +0.000 OA
ATOM      4  H   UNL     1       1.848   7.141  19.939  0.00  0.00    +0.000 HD
ENDROOT
BRANCH   1  11
ATOM      5  N   UNL     1       5.025   5.074  17.679  0.00  0.00    +0.000 NA
ATOM      6  C   UNL     1       4.291   3.960  17.066  0.00  0.00    +0.000 C 
ATOM      7  C   UNL     1       3.464   3.073  18.018  0.00  0.00    +0.000 C 
ATOM      8  N   UNL     1       2.056   3.502  18.052  0.00  0.00    +0.000 NA
ATOM      9  C   UNL     1       1.224   2.459  18.662  0.00  0.00    +0.000 C 
ATOM     10  C   UNL     1       1.881   4.758  18.807  0.00  0.00    +0.000 C 
ATOM     11  C   UNL     1       2.714   5.998  18.369  0.00  0.00    +0.000 C 
ATOM     12  C   UNL     1       4.227   5.838  18.662  0.00  0.00    +0.000 C 
BRANCH   5  14
ATOM     13  C   UNL     1       7.452   4.575  17.266  0.00  0.00    +0.000 C 
ATOM     14  C   UNL     1       6.314   4.689  18.276  0.00  0.00    +0.000 C 
ENDBRANCH   5  14
ENDBRANCH   1  11
BRANCH   2  15
ATOM     15  C   UNL     1       1.602   9.586  19.095  0.00  0.00    +0.000 A 
ATOM     16  C   UNL     1       1.743  10.845  18.488  0.00  0.00    +0.000 A 
ATOM     17  C   UNL     1       1.263  12.017  19.089  0.00  0.00    +0.000 A 
ATOM     18 CL   UNL     1       1.680  13.467  18.239  0.00  0.00    +0.000 Cl
ATOM     19  C   UNL     1       0.557  11.965  20.300  0.00  0.00    +0.000 A 
ATOM     20  C   UNL     1       0.435  10.683  20.890  0.00  0.00    +0.000 A 
ATOM     21  C   UNL     1       0.942   9.496  20.320  0.00  0.00    +0.000 A 
BRANCH  19  22
ATOM     22  N   UNL     1       0.075  13.035  21.057  0.00  0.00    +0.000 N 
ATOM     23  C   UNL     1      -0.654  12.926  22.308  0.00  0.00    +0.000 C 
ATOM     24  H   UNL     1       0.750  13.796  21.113  0.00  0.00    +0.000 HD
ENDBRANCH  19  22
BRANCH  21  25
ATOM     25  O   UNL     1       0.622   8.383  21.047  0.00  0.00    +0.000 OA
ATOM     26  C   UNL     1      -0.432   8.470  22.000  0.00  0.00    +0.000 C 
ENDBRANCH  21  25
ENDBRANCH   2  15
TORSDOF 5
ENDMDL
MODEL 6
REMARK VINA RESULT:      -6.4      2.063      2.895
REMARK  Name = 
REMARK  9 active torsions:
REMARK  status: ('A' for Active; 'I' for Inactive)
REMARK    1  A    between atoms: C_1  and  C_2
REMARK    2  A    between atoms: C_2  and  N_3
REMARK    3  A    between atoms: N_6  and  C_7
REMARK    4  A    between atoms: C_9  and  N_10
REMARK    5  A    between atoms: C_11  and  C_13
REMARK    6  A    between atoms: C_17  and  N_18
REMARK    7  A    between atoms: N_18  and  C_19
REMARK    8  A    between atoms: C_21  and  O_22
REMARK    9  A    between atoms: O_22  and  C_23
REMARK                            x       y       z     vdW  Elec       q    Type
REMARK                         _______ _______ _______ _____ _____    ______ ____
ROOT
ATOM      1  N   UNL     1       1.577   8.297  19.487  0.00  0.00    +0.000 N 
ATOM      2  C   UNL     1       2.284   8.047  18.323  0.00  0.00    +0.000 C 
ATOM      3  O   UNL     1       2.423   8.870  17.437  0.00  0.00    +0.000 OA
ATOM      4  H   UNL     1       1.580   7.625  20.243  0.00  0.00    +0.000 HD
ENDROOT
BRANCH   1  11
ATOM      5  N   UNL     1      -0.440  11.312  18.387  0.00  0.00    +0.000 NA
ATOM      6  C   UNL     1      -0.408  12.147  19.594  0.00  0.00    +0.000 C 
ATOM      7  C   UNL     1      -1.107  11.578  20.844  0.00  0.00    +0.000 C 
ATOM      8  N   UNL     1      -0.143  10.903  21.728  0.00  0.00    +0.000 NA
ATOM      9  C   UNL     1      -0.737  10.688  23.053  0.00  0.00    +0.000 C 
ATOM     10  C   UNL     1       0.292   9.605  21.180  0.00  0.00    +0.000 C 
ATOM     11  C   UNL     1       0.908   9.582  19.751  0.00  0.00    +0.000 C 
ATOM     12  C   UNL     1      -0.132   9.889  18.644  0.00  0.00    +0.000 C 
BRANCH   5  14
ATOM     13  C   UNL     1      -2.390  10.084  17.387  0.00  0.00    +0.000 C 
ATOM     14  C   UNL     1      -1.687  11.420  17.613  0.00  0.00    +0.000 C 
ENDBRANCH   5  14
ENDBRANCH   1  11
BRANCH   2  15
ATOM     15  C   UNL     1       2.828   6.674  18.172  0.00  0.00    +0.000 A 
ATOM     16  C   UNL     1       1.929   5.619  18.404  0.00  0.00    +0.000 A 
ATOM     17  C   UNL     1       2.288   4.279  18.201  0.00  0.00    +0.000 A 
ATOM     18 CL   UNL     1       1.078   3.143  18.694  0.00  0.00    +0.000 Cl
ATOM     19  C   UNL     1       3.549   3.944  17.689  0.00  0.00    +0.000 A 
ATOM     20  C   UNL     1       4.435   5.028  17.470  0.00  0.00    +0.000 A 
ATOM     21  C   UNL     1       4.107   6.380  17.701  0.00  0.00    +0.000 A 
BRANCH  19  22
ATOM     22  N   UNL     1       4.083   2.669  17.494  0.00  0.00    +0.000 N 
ATOM     23  C   UNL     1       3.771   1.490  18.282  0.00  0.00    +0.000 C 
ATOM     24  H   UNL     1       4.132   2.423  16.506  0.00  0.00    +0.000 HD
ENDBRANCH  19  22
BRANCH  21  25
ATOM     25  O   UNL     1       5.108   7.236  17.335  0.00  0.00    +0.000 OA
ATOM     26  C   UNL     1       6.431   6.726  17.212  0.00  0.00    +0.000 C 
ENDBRANCH  21  25
ENDBRANCH   2  15
TORSDOF 5
ENDMDL
MODEL 7
REMARK VINA RESULT:      -6.3      1.745      2.420
REMARK  Name = 
REMARK  9 active torsions:
REMARK  status: ('A' for Active; 'I' for Inactive)
REMARK    1  A    between atoms: C_1  and  C_2
REMARK    2  A    between atoms: C_2  and  N_3
REMARK    3  A    between atoms: N_6  and  C_7
REMARK    4  A    between atoms: C_9  and  N_10
REMARK    5  A    between atoms: C_11  and  C_13
REMARK    6  A    between atoms: C_17  and  N_18
REMARK    7  A    between atoms: N_18  and  C_19
REMARK    8  A    between atoms: C_21  and  O_22
REMARK    9  A    between atoms: O_22  and  C_23
REMARK                            x       y       z     vdW  Elec       q    Type
REMARK                         _______ _______ _______ _____ _____    ______ ____
ROOT
ATOM      1  N   UNL     1       1.496   8.770  18.478  0.00  0.00    +0.000 N 
ATOM      2  C   UNL     1       1.923   7.882  19.451  0.00  0.00    +0.000 C 
ATOM      3  O   UNL     1       1.902   8.135  20.641  0.00  0.00    +0.000 OA
ATOM      4  H   UNL     1       1.427   8.478  17.513  0.00  0.00    +0.000 HD
ENDROOT
BRANCH   1  11
ATOM      5  N   UNL     1       1.992  12.490  19.009  0.00  0.00    +0.000 NA
ATOM      6  C   UNL     1       0.669  12.900  19.495  0.00  0.00    +0.000 C 
ATOM      7  C   UNL     1      -0.506  12.745  18.508  0.00  0.00    +0.000 C 
ATOM      8  N   UNL     1      -1.220  11.478  18.731  0.00  0.00    +0.000 NA
ATOM      9  C   UNL     1      -2.520  11.504  18.050  0.00  0.00    +0.000 C 
ATOM     10  C   UNL     1      -0.448  10.318  18.247  0.00  0.00    +0.000 C 
ATOM     11  C   UNL     1       0.995  10.117  18.796  0.00  0.00    +0.000 C 
ATOM     12  C   UNL     1       1.984  11.198  18.291  0.00  0.00    +0.000 C 
BRANCH   5  14
ATOM     13  C   UNL     1       2.572  14.922  18.758  0.00  0.00    +0.000 C 
ATOM     14  C   UNL     1       2.676  13.508  18.194  0.00  0.00    +0.000 C 
ENDBRANCH   5  14
ENDBRANCH   1  11
BRANCH   2  15
ATOM     15  C   UNL     1       2.479   6.596  18.961  0.00  0.00    +0.000 A 
ATOM     16  C   UNL     1       3.429   6.680  17.929  0.00  0.00    +0.000 A 
ATOM     17  C   UNL     1       4.102   5.551  17.444  0.00  0.00    +0.000 A 
ATOM     18 CL   UNL     1       5.112   5.866  16.073  0.00  0.00    +0.000 Cl
ATOM     19  C   UNL     1       3.898   4.290  18.023  0.00  0.00    +0.000 A 
ATOM     20  C   UNL     1       2.931   4.235  19.058  0.00  0.00    +0.000 A 
ATOM     21  C   UNL     1       2.217   5.353  19.536  0.00  0.00    +0.000 A 
BRANCH  19  22
ATOM     22  N   UNL     1       4.432   3.065  17.620  0.00  0.00    +0.000 N 
ATOM     23  C   UNL     1       3.861   1.759  17.898  0.00  0.00    +0.000 C 
ATOM     24  H   UNL     1       4.777   3.096  16.661  0.00  0.00    +0.000 HD
ENDBRANCH  19  22
BRANCH  21  25
ATOM     25  O   UNL     1       1.403   5.047  20.592  0.00  0.00    +0.000 OA
ATOM     26  C   UNL     1       1.537   3.771  21.209  0.00  0.00    +0.000 C 
ENDBRANCH  21  25
ENDBRANCH   2  15
TORSDOF 5
ENDMDL
MODEL 8
REMARK VINA RESULT:      -6.3      2.117      2.812
REMARK  Name = 
REMARK  9 active torsions:
REMARK  status: ('A' for Active; 'I' for Inactive)
REMARK    1  A    between atoms: C_1  and  C_2
REMARK    2  A    between atoms: C_2  and  N_3
REMARK    3  A    between atoms: N_6  and  C_7
REMARK    4  A    between atoms: C_9  and  N_10
REMARK    5  A    between atoms: C_11  and  C_13
REMARK    6  A    between atoms: C_17  and  N_18
REMARK    7  A    between atoms: N_18  and  C_19
REMARK    8  A    between atoms: C_21  and  O_22
REMARK    9  A    between atoms: O_22  and  C_23
REMARK                            x       y       z     vdW  Elec       q    Type
REMARK                         _______ _______ _______ _____ _____    ______ ____
ROOT
ATOM      1  N   UNL     1       1.563   8.861  18.493  0.00  0.00    +0.000 N 
ATOM      2  C   UNL     1       1.907   7.871  19.396  0.00  0.00    +0.000 C 
ATOM      3  O   UNL     1       1.513   7.852  20.548  0.00  0.00    +0.000 OA
ATOM      4  H   UNL     1       1.822   8.780  17.519  0.00  0.00    +0.000 HD
ENDROOT
BRANCH   1  11
ATOM      5  N   UNL     1       1.034  12.439  19.632  0.00  0.00    +0.000 NA
ATOM      6  C   UNL     1      -0.422  12.481  19.812  0.00  0.00    +0.000 C 
ATOM      7  C   UNL     1      -1.280  12.287  18.545  0.00  0.00    +0.000 C 
ATOM      8  N   UNL     1      -1.705  10.885  18.404  0.00  0.00    +0.000 NA
ATOM      9  C   UNL     1      -2.790  10.783  17.422  0.00  0.00    +0.000 C 
ATOM     10  C   UNL     1      -0.593  10.012  17.982  0.00  0.00    +0.000 C 
ATOM     11  C   UNL     1       0.699   9.999  18.851  0.00  0.00    +0.000 C 
ATOM     12  C   UNL     1       1.491  11.329  18.768  0.00  0.00    +0.000 C 
BRANCH   5  14
ATOM     13  C   UNL     1       2.837  13.527  18.263  0.00  0.00    +0.000 C 
ATOM     14  C   UNL     1       1.620  13.705  19.165  0.00  0.00    +0.000 C 
ENDBRANCH   5  14
ENDBRANCH   1  11
BRANCH   2  15
ATOM     15  C   UNL     1       2.854   6.839  18.903  0.00  0.00    +0.000 A 
ATOM     16  C   UNL     1       3.541   7.141  17.715  0.00  0.00    +0.000 A 
ATOM     17  C   UNL     1       4.533   6.297  17.196  0.00  0.00    +0.000 A 
ATOM     18 CL   UNL     1       5.136   6.788  15.649  0.00  0.00    +0.000 Cl
ATOM     19  C   UNL     1       4.926   5.142  17.887  0.00  0.00    +0.000 A 
ATOM     20  C   UNL     1       4.211   4.861  19.078  0.00  0.00    +0.000 A 
ATOM     21  C   UNL     1       3.187   5.678  19.600  0.00  0.00    +0.000 A 
BRANCH  19  22
ATOM     22  N   UNL     1       5.840   4.169  17.478  0.00  0.00    +0.000 N 
ATOM     23  C   UNL     1       7.223   4.410  17.108  0.00  0.00    +0.000 C 
ATOM     24  H   UNL     1       5.774   3.323  18.042  0.00  0.00    +0.000 HD
ENDBRANCH  19  22
BRANCH  21  25
ATOM     25  O   UNL     1       2.713   5.228  20.801  0.00  0.00    +0.000 OA
ATOM     26  C   UNL     1       1.679   4.251  20.804  0.00  0.00    +0.000 C 
ENDBRANCH  21  25
ENDBRANCH   2  15
TORSDOF 5
ENDMDL
MODEL 9
REMARK VINA RESULT:      -6.3      2.577      7.426
REMARK  Name = 
REMARK  9 active torsions:
REMARK  status: ('A' for Active; 'I' for Inactive)
REMARK    1  A    between atoms: C_1  and  C_2
REMARK    2  A    between atoms: C_2  and  N_3
REMARK    3  A    between atoms: N_6  and  C_7
REMARK    4  A    between atoms: C_9  and  N_10
REMARK    5  A    between atoms: C_11  and  C_13
REMARK    6  A    between atoms: C_17  and  N_18
REMARK    7  A    between atoms: N_18  and  C_19
REMARK    8  A    between atoms: C_21  and  O_22
REMARK    9  A    between atoms: O_22  and  C_23
REMARK                            x       y       z     vdW  Elec       q    Type
REMARK                         _______ _______ _______ _____ _____    ______ ____
ROOT
ATOM      1  N   UNL     1       2.202   7.245  18.841  0.00  0.00    +0.000 N 
ATOM      2  C   UNL     1       2.016   8.504  18.296  0.00  0.00    +0.000 C 
ATOM      3  O   UNL     1       2.388   8.809  17.179  0.00  0.00    +0.000 OA
ATOM      4  H   UNL     1       1.780   7.003  19.728  0.00  0.00    +0.000 HD
ENDROOT
BRANCH   1  11
ATOM      5  N   UNL     1       5.301   5.656  17.345  0.00  0.00    +0.000 NA
ATOM      6  C   UNL     1       4.734   4.491  16.654  0.00  0.00    +0.000 C 
ATOM      7  C   UNL     1       4.070   3.420  17.542  0.00  0.00    +0.000 C 
ATOM      8  N   UNL     1       2.614   3.624  17.618  0.00  0.00    +0.000 NA
ATOM      9  C   UNL     1       1.963   2.423  18.153  0.00  0.00    +0.000 C 
ATOM     10  C   UNL     1       2.264   4.778  18.469  0.00  0.00    +0.000 C 
ATOM     11  C   UNL     1       2.890   6.161  18.121  0.00  0.00    +0.000 C 
ATOM     12  C   UNL     1       4.415   6.213  18.390  0.00  0.00    +0.000 C 
BRANCH   5  14
ATOM     13  C   UNL     1       7.518   6.681  17.934  0.00  0.00    +0.000 C 
ATOM     14  C   UNL     1       6.645   5.430  17.902  0.00  0.00    +0.000 C 
ENDBRANCH   5  14
ENDBRANCH   1  11
BRANCH   2  15
ATOM     15  C   UNL     1       1.379   9.511  19.183  0.00  0.00    +0.000 A 
ATOM     16  C   UNL     1       0.777   9.019  20.354  0.00  0.00    +0.000 A 
ATOM     17  C   UNL     1       0.228   9.871  21.321  0.00  0.00    +0.000 A 
ATOM     18 CL   UNL     1      -0.594   9.046  22.602  0.00  0.00    +0.000 Cl
ATOM     19  C   UNL     1       0.321  11.264  21.186  0.00  0.00    +0.000 A 
ATOM     20  C   UNL     1       0.928  11.730  19.994  0.00  0.00    +0.000 A 
ATOM     21  C   UNL     1       1.455  10.890  18.991  0.00  0.00    +0.000 A 
BRANCH  19  22
ATOM     22  N   UNL     1      -0.227  12.243  22.017  0.00  0.00    +0.000 N 
ATOM     23  C   UNL     1       0.031  13.670  21.928  0.00  0.00    +0.000 C 
ATOM     24  H   UNL     1      -1.216  12.080  22.198  0.00  0.00    +0.000 HD
ENDBRANCH  19  22
BRANCH  21  25
ATOM     25  O   UNL     1       2.057  11.588  17.981  0.00  0.00    +0.000 OA
ATOM     26  C   UNL     1       2.592  12.876  18.266  0.00  0.00    +0.000 C 
ENDBRANCH  21  25
ENDBRANCH   2  15
TORSDOF 5
ENDMDL
