MODEL 1
REMARK VINA RESULT:      -8.0      0.000      0.000
REMARK  Name = 
REMARK  4 active torsions:
REMARK  status: ('A' for Active; 'I' for Inactive)
REMARK    1  A    between atoms: C_1  and  O_2
REMARK    2  A    between atoms: O_2  and  C_3
REMARK    3  A    between atoms: C_3  and  C_5
REMARK    4  A    between atoms: C_9  and  C_10
REMARK                            x       y       z     vdW  Elec       q    Type
REMARK                         _______ _______ _______ _____ _____    ______ ____
ROOT
ATOM      1  C   UNL     1       2.674   6.570  19.161  0.00  0.00    +0.000 A 
ATOM      2  C   UNL     1       2.134   6.247  20.405  0.00  0.00    +0.000 A 
ATOM      3  C   UNL     1       1.317   7.176  21.074  0.00  0.00    +0.000 A 
ATOM      4  C   UNL     1       1.049   8.412  20.474  0.00  0.00    +0.000 A 
ATOM      5  C   UNL     1       1.624   8.643  19.245  0.00  0.00    +0.000 A 
ATOM      6  N   UNL     1       2.436   7.784  18.604  0.00  0.00    +0.000 NA
ATOM      7  C   UNL     1       1.206   9.810  18.460  0.00  0.00    +0.000 C 
ATOM      8  O   UNL     1       1.892  10.311  17.580  0.00  0.00    +0.000 OA
ATOM      9  C   UNL     1      -0.146  10.295  18.799  0.00  0.00    +0.000 C 
ATOM     10 BR   UNL     1      -1.446  10.167  17.463  0.00  0.00    +0.000 Br
ATOM     11  C   UNL     1      -0.507  10.375  20.084  0.00  0.00    +0.000 C 
ATOM     12  C   UNL     1       0.097   9.391  21.020  0.00  0.00    +0.000 C 
ATOM     13  O   UNL     1      -0.335   9.296  22.164  0.00  0.00    +0.000 OA
ENDROOT
BRANCH   1  18
ATOM     14  C   UNL     1       5.426   5.164  17.152  0.00  0.00    +0.000 A 
ATOM     15  C   UNL     1       4.909   3.972  16.648  0.00  0.00    +0.000 A 
ATOM     16  C   UNL     1       3.615   3.622  16.985  0.00  0.00    +0.000 A 
ATOM     17  C   UNL     1       2.897   4.485  17.798  0.00  0.00    +0.000 A 
ATOM     18  C   UNL     1       3.459   5.674  18.277  0.00  0.00    +0.000 A 
ATOM     19  N   UNL     1       4.739   6.025  17.967  0.00  0.00    +0.000 NA
BRANCH  14  20
ATOM     20  C   UNL     1       6.822   5.514  16.761  0.00  0.00    +0.000 C 
ATOM     21  O   UNL     1       7.716   4.671  16.654  0.00  0.00    +0.000 OA
BRANCH  20  23
ATOM     22  C   UNL     1       7.699   7.506  17.566  0.00  0.00    +0.000 C 
ATOM     23  O   UNL     1       6.971   6.843  16.539  0.00  0.00    +0.000 OA
ENDBRANCH  20  23
ENDBRANCH  14  20
ENDBRANCH   1  18
TORSDOF 3
ENDMDL
MODEL 2
REMARK VINA RESULT:      -7.9      2.796      7.444
REMARK  Name = 
REMARK  4 active torsions:
REMARK  status: ('A' for Active; 'I' for Inactive)
REMARK    1  A    between atoms: C_1  and  O_2
REMARK    2  A    between atoms: O_2  and  C_3
REMARK    3  A    between atoms: C_3  and  C_5
REMARK    4  A    between atoms: C_9  and  C_10
REMARK                            x       y       z     vdW  Elec       q    Type
REMARK                         _______ _______ _______ _____ _____    ______ ____
ROOT
ATOM      1  C   UNL     1       2.346   7.845  18.905  0.00  0.00    +0.000 A 
ATOM      2  C   UNL     1       3.170   7.844  17.781  0.00  0.00    +0.000 A 
ATOM      3  C   UNL     1       3.944   6.707  17.485  0.00  0.00    +0.000 A 
ATOM      4  C   UNL     1       3.865   5.586  18.319  0.00  0.00    +0.000 A 
ATOM      5  C   UNL     1       3.023   5.678  19.405  0.00  0.00    +0.000 A 
ATOM      6  N   UNL     1       2.303   6.766  19.726  0.00  0.00    +0.000 NA
ATOM      7  C   UNL     1       2.717   4.474  20.185  0.00  0.00    +0.000 C 
ATOM      8  O   UNL     1       2.320   4.503  21.341  0.00  0.00    +0.000 OA
ATOM      9  C   UNL     1       2.886   3.220  19.425  0.00  0.00    +0.000 C 
ATOM     10 BR   UNL     1       1.345   2.211  19.112  0.00  0.00    +0.000 Br
ATOM     11  C   UNL     1       3.958   3.073  18.640  0.00  0.00    +0.000 C 
ATOM     12  C   UNL     1       4.518   4.303  18.020  0.00  0.00    +0.000 C 
ATOM     13  O   UNL     1       5.377   4.208  17.149  0.00  0.00    +0.000 OA
ENDROOT
BRANCH   1  18
ATOM     14  C   UNL     1       0.202  10.050  20.937  0.00  0.00    +0.000 A 
ATOM     15  C   UNL     1      -0.374  10.918  20.011  0.00  0.00    +0.000 A 
ATOM     16  C   UNL     1      -0.042  10.772  18.678  0.00  0.00    +0.000 A 
ATOM     17  C   UNL     1       0.840   9.759  18.333  0.00  0.00    +0.000 A 
ATOM     18  C   UNL     1       1.390   8.909  19.300  0.00  0.00    +0.000 A 
ATOM     19  N   UNL     1       1.084   9.051  20.620  0.00  0.00    +0.000 NA
BRANCH  14  20
ATOM     20  C   UNL     1      -0.186  10.231  22.366  0.00  0.00    +0.000 C 
ATOM     21  O   UNL     1      -0.330   9.284  23.142  0.00  0.00    +0.000 OA
BRANCH  20  23
ATOM     22  C   UNL     1      -1.645  11.837  23.188  0.00  0.00    +0.000 C 
ATOM     23  O   UNL     1      -0.346  11.538  22.689  0.00  0.00    +0.000 OA
ENDBRANCH  20  23
ENDBRANCH  14  20
ENDBRANCH   1  18
TORSDOF 3
ENDMDL
MODEL 3
REMARK VINA RESULT:      -7.8      0.762      1.048
REMARK  Name = 
REMARK  4 active torsions:
REMARK  status: ('A' for Active; 'I' for Inactive)
REMARK    1  A    between atoms: C_1  and  O_2
REMARK    2  A    between atoms: O_2  and  C_3
REMARK    3  A    between atoms: C_3  and  C_5
REMARK    4  A    between atoms: C_9  and  C_10
REMARK                            x       y       z     vdW  Elec       q    Type
REMARK                         _______ _______ _______ _____ _____    ______ ____
ROOT
ATOM      1  C   UNL     1       2.596   6.555  19.147  0.00  0.00    +0.000 A 
ATOM      2  C   UNL     1       2.125   6.304  20.435  0.00  0.00    +0.000 A 
ATOM      3  C   UNL     1       1.391   7.294  21.114  0.00  0.00    +0.000 A 
ATOM      4  C   UNL     1       1.135   8.515  20.480  0.00  0.00    +0.000 A 
ATOM      5  C   UNL     1       1.639   8.673  19.208  0.00  0.00    +0.000 A 
ATOM      6  N   UNL     1       2.373   7.755  18.555  0.00  0.00    +0.000 NA
ATOM      7  C   UNL     1       1.219   9.824  18.403  0.00  0.00    +0.000 C 
ATOM      8  O   UNL     1       1.867  10.260  17.461  0.00  0.00    +0.000 OA
ATOM      9  C   UNL     1      -0.088  10.380  18.805  0.00  0.00    +0.000 C 
ATOM     10 BR   UNL     1      -1.475  10.255  17.559  0.00  0.00    +0.000 Br
ATOM     11  C   UNL     1      -0.362  10.527  20.105  0.00  0.00    +0.000 C 
ATOM     12  C   UNL     1       0.261   9.555  21.043  0.00  0.00    +0.000 C 
ATOM     13  O   UNL     1      -0.100   9.524  22.214  0.00  0.00    +0.000 OA
ENDROOT
BRANCH   1  18
ATOM     14  C   UNL     1       5.102   5.011  16.927  0.00  0.00    +0.000 A 
ATOM     15  C   UNL     1       4.562   3.765  16.614  0.00  0.00    +0.000 A 
ATOM     16  C   UNL     1       3.337   3.425  17.155  0.00  0.00    +0.000 A 
ATOM     17  C   UNL     1       2.705   4.349  17.973  0.00  0.00    +0.000 A 
ATOM     18  C   UNL     1       3.287   5.591  18.255  0.00  0.00    +0.000 A 
ATOM     19  N   UNL     1       4.501   5.935  17.742  0.00  0.00    +0.000 NA
BRANCH  14  20
ATOM     20  C   UNL     1       6.421   5.349  16.319  0.00  0.00    +0.000 C 
ATOM     21  O   UNL     1       7.481   5.281  16.945  0.00  0.00    +0.000 OA
BRANCH  20  23
ATOM     22  C   UNL     1       7.001   4.864  14.125  0.00  0.00    +0.000 C 
ATOM     23  O   UNL     1       6.303   5.722  15.021  0.00  0.00    +0.000 OA
ENDBRANCH  20  23
ENDBRANCH  14  20
ENDBRANCH   1  18
TORSDOF 3
ENDMDL
MODEL 4
REMARK VINA RESULT:      -7.7      0.849      1.068
REMARK  Name = 
REMARK  4 active torsions:
REMARK  status: ('A' for Active; 'I' for Inactive)
REMARK    1  A    between atoms: C_1  and  O_2
REMARK    2  A    between atoms: O_2  and  C_3
REMARK    3  A    between atoms: C_3  and  C_5
REMARK    4  A    between atoms: C_9  and  C_10
REMARK                            x       y       z     vdW  Elec       q    Type
REMARK                         _______ _______ _______ _____ _____    ______ ____
ROOT
ATOM      1  C   UNL     1       2.314   6.563  19.277  0.00  0.00    +0.000 A 
ATOM      2  C   UNL     1       1.832   6.355  20.568  0.00  0.00    +0.000 A 
ATOM      3  C   UNL     1       1.161   7.394  21.237  0.00  0.00    +0.000 A 
ATOM      4  C   UNL     1       0.977   8.622  20.590  0.00  0.00    +0.000 A 
ATOM      5  C   UNL     1       1.486   8.735  19.315  0.00  0.00    +0.000 A 
ATOM      6  N   UNL     1       2.161   7.767  18.671  0.00  0.00    +0.000 NA
ATOM      7  C   UNL     1       1.133   9.900  18.498  0.00  0.00    +0.000 C 
ATOM      8  O   UNL     1       1.803  10.286  17.550  0.00  0.00    +0.000 OA
ATOM      9  C   UNL     1      -0.137  10.538  18.897  0.00  0.00    +0.000 C 
ATOM     10 BR   UNL     1      -1.533  10.482  17.655  0.00  0.00    +0.000 Br
ATOM     11  C   UNL     1      -0.398  10.715  20.196  0.00  0.00    +0.000 C 
ATOM     12  C   UNL     1       0.168   9.719  21.143  0.00  0.00    +0.000 C 
ATOM     13  O   UNL     1      -0.191   9.722  22.316  0.00  0.00    +0.000 OA
ENDROOT
BRANCH   1  18
ATOM     14  C   UNL     1       4.655   4.898  16.966  0.00  0.00    +0.000 A 
ATOM     15  C   UNL     1       4.106   3.632  16.773  0.00  0.00    +0.000 A 
ATOM     16  C   UNL     1       2.931   3.319  17.428  0.00  0.00    +0.000 A 
ATOM     17  C   UNL     1       2.355   4.289  18.234  0.00  0.00    +0.000 A 
ATOM     18  C   UNL     1       2.943   5.549  18.393  0.00  0.00    +0.000 A 
ATOM     19  N   UNL     1       4.110   5.868  17.766  0.00  0.00    +0.000 NA
BRANCH  14  20
ATOM     20  C   UNL     1       5.920   5.206  16.236  0.00  0.00    +0.000 C 
ATOM     21  O   UNL     1       6.007   6.115  15.408  0.00  0.00    +0.000 OA
BRANCH  20  23
ATOM     22  C   UNL     1       7.544   4.756  17.829  0.00  0.00    +0.000 C 
ATOM     23  O   UNL     1       6.932   4.381  16.601  0.00  0.00    +0.000 OA
ENDBRANCH  20  23
ENDBRANCH  14  20
ENDBRANCH   1  18
TORSDOF 3
ENDMDL
MODEL 5
REMARK VINA RESULT:      -7.6      2.867      7.507
REMARK  Name = 
REMARK  4 active torsions:
REMARK  status: ('A' for Active; 'I' for Inactive)
REMARK    1  A    between atoms: C_1  and  O_2
REMARK    2  A    between atoms: O_2  and  C_3
REMARK    3  A    between atoms: C_3  and  C_5
REMARK    4  A    between atoms: C_9  and  C_10
REMARK                            x       y       z     vdW  Elec       q    Type
REMARK                         _______ _______ _______ _____ _____    ______ ____
ROOT
ATOM      1  C   UNL     1       1.799   8.135  19.736  0.00  0.00    +0.000 A 
ATOM      2  C   UNL     1       2.349   8.419  18.487  0.00  0.00    +0.000 A 
ATOM      3  C   UNL     1       3.053   7.420  17.791  0.00  0.00    +0.000 A 
ATOM      4  C   UNL     1       3.182   6.148  18.359  0.00  0.00    +0.000 A 
ATOM      5  C   UNL     1       2.605   5.958  19.595  0.00  0.00    +0.000 A 
ATOM      6  N   UNL     1       1.959   6.908  20.293  0.00  0.00    +0.000 NA
ATOM      7  C   UNL     1       2.502   4.602  20.143  0.00  0.00    +0.000 C 
ATOM      8  O   UNL     1       2.375   4.365  21.337  0.00  0.00    +0.000 OA
ATOM      9  C   UNL     1       2.515   3.546  19.112  0.00  0.00    +0.000 C 
ATOM     10 BR   UNL     1       0.958   2.529  18.930  0.00  0.00    +0.000 Br
ATOM     11  C   UNL     1       3.384   3.634  18.100  0.00  0.00    +0.000 C 
ATOM     12  C   UNL     1       3.770   4.999  17.655  0.00  0.00    +0.000 C 
ATOM     13  O   UNL     1       4.412   5.142  16.619  0.00  0.00    +0.000 OA
ENDROOT
BRANCH   1  18
ATOM     14  C   UNL     1      -0.582  10.777  20.704  0.00  0.00    +0.000 A 
ATOM     15  C   UNL     1      -0.670  10.670  22.090  0.00  0.00    +0.000 A 
ATOM     16  C   UNL     1       0.077   9.694  22.722  0.00  0.00    +0.000 A 
ATOM     17  C   UNL     1       0.884   8.881  21.941  0.00  0.00    +0.000 A 
ATOM     18  C   UNL     1       0.941   9.031  20.550  0.00  0.00    +0.000 A 
ATOM     19  N   UNL     1       0.199   9.978  19.911  0.00  0.00    +0.000 NA
BRANCH  14  20
ATOM     20  C   UNL     1      -1.395  11.848  20.055  0.00  0.00    +0.000 C 
ATOM     21  O   UNL     1      -2.304  12.440  20.640  0.00  0.00    +0.000 OA
BRANCH  20  23
ATOM     22  C   UNL     1      -0.444  13.374  18.589  0.00  0.00    +0.000 C 
ATOM     23  O   UNL     1      -1.005  12.080  18.778  0.00  0.00    +0.000 OA
ENDBRANCH  20  23
ENDBRANCH  14  20
ENDBRANCH   1  18
TORSDOF 3
ENDMDL
MODEL 6
REMARK VINA RESULT:      -7.6      2.779      7.273
REMARK  Name = 
REMARK  4 active torsions:
REMARK  status: ('A' for Active; 'I' for Inactive)
REMARK    1  A    between atoms: C_1  and  O_2
REMARK    2  A    between atoms: O_2  and  C_3
REMARK    3  A    between atoms: C_3  and  C_5
REMARK    4  A    between atoms: C_9  and  C_10
REMARK                            x       y       z     vdW  Elec       q    Type
REMARK                         _______ _______ _______ _____ _____    ______ ____
ROOT
ATOM      1  C   UNL     1       2.423   7.841  18.669  0.00  0.00    +0.000 A 
ATOM      2  C   UNL     1       3.315   7.794  17.599  0.00  0.00    +0.000 A 
ATOM      3  C   UNL     1       4.127   6.660  17.417  0.00  0.00    +0.000 A 
ATOM      4  C   UNL     1       4.020   5.587  18.309  0.00  0.00    +0.000 A 
ATOM      5  C   UNL     1       3.110   5.722  19.335  0.00  0.00    +0.000 A 
ATOM      6  N   UNL     1       2.350   6.810  19.548  0.00  0.00    +0.000 NA
ATOM      7  C   UNL     1       2.781   4.558  20.164  0.00  0.00    +0.000 C 
ATOM      8  O   UNL     1       2.313   4.644  21.291  0.00  0.00    +0.000 OA
ATOM      9  C   UNL     1       3.021   3.267  19.491  0.00  0.00    +0.000 C 
ATOM     10 BR   UNL     1       1.522   2.206  19.146  0.00  0.00    +0.000 Br
ATOM     11  C   UNL     1       4.142   3.100  18.782  0.00  0.00    +0.000 C 
ATOM     12  C   UNL     1       4.715   4.305  18.126  0.00  0.00    +0.000 C 
ATOM     13  O   UNL     1       5.627   4.180  17.316  0.00  0.00    +0.000 OA
ENDROOT
BRANCH   1  18
ATOM     14  C   UNL     1       0.449  10.433  20.392  0.00  0.00    +0.000 A 
ATOM     15  C   UNL     1      -0.431  10.900  19.417  0.00  0.00    +0.000 A 
ATOM     16  C   UNL     1      -0.368  10.344  18.154  0.00  0.00    +0.000 A 
ATOM     17  C   UNL     1       0.563   9.341  17.928  0.00  0.00    +0.000 A 
ATOM     18  C   UNL     1       1.423   8.903  18.942  0.00  0.00    +0.000 A 
ATOM     19  N   UNL     1       1.384   9.453  20.189  0.00  0.00    +0.000 NA
BRANCH  14  20
ATOM     20  C   UNL     1       0.346  11.050  21.747  0.00  0.00    +0.000 C 
ATOM     21  O   UNL     1       0.009  12.223  21.921  0.00  0.00    +0.000 OA
BRANCH  20  23
ATOM     22  C   UNL     1      -0.485   9.534  23.293  0.00  0.00    +0.000 C 
ATOM     23  O   UNL     1       0.656  10.172  22.731  0.00  0.00    +0.000 OA
ENDBRANCH  20  23
ENDBRANCH  14  20
ENDBRANCH   1  18
TORSDOF 3
ENDMDL
MODEL 7
REMARK VINA RESULT:      -7.6      2.760      7.345
REMARK  Name = 
REMARK  4 active torsions:
REMARK  status: ('A' for Active; 'I' for Inactive)
REMARK    1  A    between atoms: C_1  and  O_2
REMARK    2  A    between atoms: O_2  and  C_3
REMARK    3  A    between atoms: C_3  and  C_5
REMARK    4  A    between atoms: C_9  and  C_10
REMARK                            x       y       z     vdW  Elec       q    Type
REMARK                         _______ _______ _______ _____ _____    ______ ____
ROOT
ATOM      1  C   UNL     1       2.072   7.196  19.689  0.00  0.00    +0.000 A 
ATOM      2  C   UNL     1       1.961   6.093  20.533  0.00  0.00    +0.000 A 
ATOM      3  C   UNL     1       2.754   4.955  20.302  0.00  0.00    +0.000 A 
ATOM      4  C   UNL     1       3.654   4.951  19.230  0.00  0.00    +0.000 A 
ATOM      5  C   UNL     1       3.697   6.086  18.451  0.00  0.00    +0.000 A 
ATOM      6  N   UNL     1       2.923   7.170  18.632  0.00  0.00    +0.000 NA
ATOM      7  C   UNL     1       4.767   6.242  17.461  0.00  0.00    +0.000 C 
ATOM      8  O   UNL     1       4.686   6.982  16.491  0.00  0.00    +0.000 OA
ATOM      9  C   UNL     1       5.978   5.456  17.772  0.00  0.00    +0.000 C 
ATOM     10 BR   UNL     1       7.533   6.421  18.151  0.00  0.00    +0.000 Br
ATOM     11  C   UNL     1       5.845   4.197  18.202  0.00  0.00    +0.000 C 
ATOM     12  C   UNL     1       4.626   3.874  18.989  0.00  0.00    +0.000 C 
ATOM     13  O   UNL     1       4.542   2.794  19.564  0.00  0.00    +0.000 OA
ENDROOT
BRANCH   1  18
ATOM     14  C   UNL     1       0.385  10.104  21.201  0.00  0.00    +0.000 A 
ATOM     15  C   UNL     1       0.163  10.968  20.130  0.00  0.00    +0.000 A 
ATOM     16  C   UNL     1       0.586  10.579  18.873  0.00  0.00    +0.000 A 
ATOM     17  C   UNL     1       1.199   9.342  18.745  0.00  0.00    +0.000 A 
ATOM     18  C   UNL     1       1.396   8.508  19.852  0.00  0.00    +0.000 A 
ATOM     19  N   UNL     1       0.999   8.884  21.099  0.00  0.00    +0.000 NA
BRANCH  14  20
ATOM     20  C   UNL     1      -0.093  10.552  22.542  0.00  0.00    +0.000 C 
ATOM     21  O   UNL     1       0.077   9.887  23.565  0.00  0.00    +0.000 OA
BRANCH  20  23
ATOM     22  C   UNL     1      -2.007  11.749  23.073  0.00  0.00    +0.000 C 
ATOM     23  O   UNL     1      -0.711  11.757  22.486  0.00  0.00    +0.000 OA
ENDBRANCH  20  23
ENDBRANCH  14  20
ENDBRANCH   1  18
TORSDOF 3
ENDMDL
MODEL 8
REMARK VINA RESULT:      -7.6      2.916      7.722
REMARK  Name = 
REMARK  4 active torsions:
REMARK  status: ('A' for Active; 'I' for Inactive)
REMARK    1  A    between atoms: C_1  and  O_2
REMARK    2  A    between atoms: O_2  and  C_3
REMARK    3  A    between atoms: C_3  and  C_5
REMARK    4  A    between atoms: C_9  and  C_10
REMARK                            x       y       z     vdW  Elec       q    Type
REMARK                         _______ _______ _______ _____ _____    ______ ____
ROOT
ATOM      1  C   UNL     1       1.744   8.202  19.793  0.00  0.00    +0.000 A 
ATOM      2  C   UNL     1       2.270   8.506  18.539  0.00  0.00    +0.000 A 
ATOM      3  C   UNL     1       2.980   7.526  17.823  0.00  0.00    +0.000 A 
ATOM      4  C   UNL     1       3.139   6.250  18.378  0.00  0.00    +0.000 A 
ATOM      5  C   UNL     1       2.583   6.041  19.621  0.00  0.00    +0.000 A 
ATOM      6  N   UNL     1       1.932   6.973  20.337  0.00  0.00    +0.000 NA
ATOM      7  C   UNL     1       2.510   4.678  20.158  0.00  0.00    +0.000 C 
ATOM      8  O   UNL     1       2.406   4.428  21.351  0.00  0.00    +0.000 OA
ATOM      9  C   UNL     1       2.526   3.632  19.117  0.00  0.00    +0.000 C 
ATOM     10 BR   UNL     1       0.983   2.590  18.948  0.00  0.00    +0.000 Br
ATOM     11  C   UNL     1       3.378   3.743  18.093  0.00  0.00    +0.000 C 
ATOM     12  C   UNL     1       3.735   5.118  17.655  0.00  0.00    +0.000 C 
ATOM     13  O   UNL     1       4.359   5.281  16.611  0.00  0.00    +0.000 OA
ENDROOT
BRANCH   1  18
ATOM     14  C   UNL     1      -0.646  10.814  20.822  0.00  0.00    +0.000 A 
ATOM     15  C   UNL     1      -0.733  10.674  22.205  0.00  0.00    +0.000 A 
ATOM     16  C   UNL     1       0.017   9.686  22.815  0.00  0.00    +0.000 A 
ATOM     17  C   UNL     1       0.826   8.894  22.015  0.00  0.00    +0.000 A 
ATOM     18  C   UNL     1       0.883   9.076  20.628  0.00  0.00    +0.000 A 
ATOM     19  N   UNL     1       0.137  10.035  20.010  0.00  0.00    +0.000 NA
BRANCH  14  20
ATOM     20  C   UNL     1      -1.462  11.896  20.198  0.00  0.00    +0.000 C 
ATOM     21  O   UNL     1      -1.384  12.184  19.002  0.00  0.00    +0.000 OA
BRANCH  20  23
ATOM     22  C   UNL     1      -3.510  12.935  20.525  0.00  0.00    +0.000 C 
ATOM     23  O   UNL     1      -2.281  12.497  21.095  0.00  0.00    +0.000 OA
ENDBRANCH  20  23
ENDBRANCH  14  20
ENDBRANCH   1  18
TORSDOF 3
ENDMDL
MODEL 9
REMARK VINA RESULT:      -7.5      2.835      7.494
REMARK  Name = 
REMARK  4 active torsions:
REMARK  status: ('A' for Active; 'I' for Inactive)
REMARK    1  A    between atoms: C_1  and  O_2
REMARK    2  A    between atoms: O_2  and  C_3
REMARK    3  A    between atoms: C_3  and  C_5
REMARK    4  A    between atoms: C_9  and  C_10
REMARK                            x       y       z     vdW  Elec       q    Type
REMARK                         _______ _______ _______ _____ _____    ______ ____
ROOT
ATOM      1  C   UNL     1       1.914   8.323  19.216  0.00  0.00    +0.000 A 
ATOM      2  C   UNL     1       2.562   8.469  17.991  0.00  0.00    +0.000 A 
ATOM      3  C   UNL     1       3.306   7.399  17.462  0.00  0.00    +0.000 A 
ATOM      4  C   UNL     1       3.376   6.194  18.172  0.00  0.00    +0.000 A 
ATOM      5  C   UNL     1       2.702   6.141  19.372  0.00  0.00    +0.000 A 
ATOM      6  N   UNL     1       2.016   7.163  19.912  0.00  0.00    +0.000 NA
ATOM      7  C   UNL     1       2.541   4.852  20.052  0.00  0.00    +0.000 C 
ATOM      8  O   UNL     1       2.320   4.744  21.250  0.00  0.00    +0.000 OA
ATOM      9  C   UNL     1       2.621   3.691  19.143  0.00  0.00    +0.000 C 
ATOM     10 BR   UNL     1       1.071   2.665  18.950  0.00  0.00    +0.000 Br
ATOM     11  C   UNL     1       3.567   3.667  18.199  0.00  0.00    +0.000 C 
ATOM     12  C   UNL     1       4.003   4.974  17.642  0.00  0.00    +0.000 C 
ATOM     13  O   UNL     1       4.724   5.003  16.651  0.00  0.00    +0.000 OA
ENDROOT
BRANCH   1  18
ATOM     14  C   UNL     1      -0.451  11.105  19.713  0.00  0.00    +0.000 A 
ATOM     15  C   UNL     1      -0.701  11.104  21.084  0.00  0.00    +0.000 A 
ATOM     16  C   UNL     1      -0.071  10.154  21.866  0.00  0.00    +0.000 A 
ATOM     17  C   UNL     1       0.785   9.259  21.242  0.00  0.00    +0.000 A 
ATOM     18  C   UNL     1       1.006   9.304  19.860  0.00  0.00    +0.000 A 
ATOM     19  N   UNL     1       0.381  10.225  19.074  0.00  0.00    +0.000 NA
BRANCH  14  20
ATOM     20  C   UNL     1      -1.141  12.151  18.901  0.00  0.00    +0.000 C 
ATOM     21  O   UNL     1      -0.532  13.050  18.318  0.00  0.00    +0.000 OA
BRANCH  20  23
ATOM     22  C   UNL     1      -2.949  11.305  17.720  0.00  0.00    +0.000 C 
ATOM     23  O   UNL     1      -2.485  11.979  18.885  0.00  0.00    +0.000 OA
ENDBRANCH  20  23
ENDBRANCH  14  20
ENDBRANCH   1  18
TORSDOF 3
ENDMDL
