MODEL 1
REMARK VINA RESULT:      -7.9      0.000      0.000
REMARK  Name = 
REMARK  8 active torsions:
REMARK  status: ('A' for Active; 'I' for Inactive)
REMARK    1  A    between atoms: C_1  and  C_2
REMARK    2  A    between atoms: C_2  and  C_3
REMARK    3  A    between atoms: C_3  and  N_4
REMARK    4  A    between atoms: C_6  and  N_7
REMARK    5  A    between atoms: N_7  and  C_8
REMARK    6  A    between atoms: C_8  and  C_9
REMARK    7  A    between atoms: C_14  and  C_15
REMARK    8  A    between atoms: C_18  and  C_19
REMARK                            x       y       z     vdW  Elec       q    Type
REMARK                         _______ _______ _______ _____ _____    ______ ____
ROOT
ATOM      1  C   UNL     1       5.033   4.573  19.261  0.00  0.00    +0.000 C 
ENDROOT
BRANCH   1   2
ATOM      2  C   UNL     1       3.729   3.806  19.076  0.00  0.00    +0.000 A 
ATOM      3  C   UNL     1       3.757   2.397  18.948  0.00  0.00    +0.000 A 
ATOM      4  C   UNL     1       2.610   1.664  18.661  0.00  0.00    +0.000 A 
ATOM      5  C   UNL     1       1.394   2.316  18.548  0.00  0.00    +0.000 A 
ATOM      6  C   UNL     1       1.328   3.698  18.727  0.00  0.00    +0.000 A 
ATOM      7  C   UNL     1       2.483   4.468  18.982  0.00  0.00    +0.000 A 
BRANCH   7   8
ATOM      8  C   UNL     1       2.324   5.926  19.063  0.00  0.00    +0.000 A 
ATOM      9  C   UNL     1       2.563   6.954  18.169  0.00  0.00    +0.000 A 
ATOM     10  C   UNL     1       2.270   8.164  18.844  0.00  0.00    +0.000 A 
ATOM     11  C   UNL     1       1.829   7.806  20.097  0.00  0.00    +0.000 A 
ATOM     12  C   UNL     1       1.375   8.582  21.269  0.00  0.00    +0.000 C 
ATOM     13  O   UNL     1       1.848   6.451  20.232  0.00  0.00    +0.000 OA
ENDBRANCH   7   8
ENDBRANCH   1   2
BRANCH   1  14
ATOM     14  N   UNL     1       6.102   4.079  18.382  0.00  0.00    +0.000 NA
ATOM     15  H   UNL     1       6.068   3.060  18.385  0.00  0.00    +0.000 HD
BRANCH  14  18
ATOM     16  N   UNL     1       6.323   4.095  14.758  0.00  0.00    +0.000 N 
ATOM     17  C   UNL     1       5.757   3.501  15.945  0.00  0.00    +0.000 C 
ATOM     18  C   UNL     1       5.998   4.568  17.013  0.00  0.00    +0.000 C 
ATOM     19  C   UNL     1       7.327   5.189  16.570  0.00  0.00    +0.000 C 
ATOM     20  C   UNL     1       7.278   5.053  15.071  0.00  0.00    +0.000 C 
ATOM     21  O   UNL     1       8.009   5.638  14.285  0.00  0.00    +0.000 OA
BRANCH  16  22
ATOM     22  C   UNL     1       6.165   3.516  13.437  0.00  0.00    +0.000 C 
BRANCH  22  24
ATOM     23  C   UNL     1       4.559   3.095  11.531  0.00  0.00    +0.000 C 
ATOM     24  C   UNL     1       4.881   3.956  12.744  0.00  0.00    +0.000 C 
ENDBRANCH  22  24
ENDBRANCH  16  22
ENDBRANCH  14  18
ENDBRANCH   1  14
TORSDOF 6
ENDMDL
MODEL 2
REMARK VINA RESULT:      -7.6      1.585      3.405
REMARK  Name = 
REMARK  8 active torsions:
REMARK  status: ('A' for Active; 'I' for Inactive)
REMARK    1  A    between atoms: C_1  and  C_2
REMARK    2  A    between atoms: C_2  and  C_3
REMARK    3  A    between atoms: C_3  and  N_4
REMARK    4  A    between atoms: C_6  and  N_7
REMARK    5  A    between atoms: N_7  and  C_8
REMARK    6  A    between atoms: C_8  and  C_9
REMARK    7  A    between atoms: C_14  and  C_15
REMARK    8  A    between atoms: C_18  and  C_19
REMARK                            x       y       z     vdW  Elec       q    Type
REMARK                         _______ _______ _______ _____ _____    ______ ____
ROOT
ATOM      1  C   UNL     1       5.242   4.606  18.038  0.00  0.00    +0.000 C 
ENDROOT
BRANCH   1   2
ATOM      2  C   UNL     1       4.196   5.707  17.912  0.00  0.00    +0.000 A 
ATOM      3  C   UNL     1       4.581   6.992  17.461  0.00  0.00    +0.000 A 
ATOM      4  C   UNL     1       3.689   8.060  17.441  0.00  0.00    +0.000 A 
ATOM      5  C   UNL     1       2.373   7.857  17.820  0.00  0.00    +0.000 A 
ATOM      6  C   UNL     1       1.952   6.586  18.213  0.00  0.00    +0.000 A 
ATOM      7  C   UNL     1       2.846   5.495  18.278  0.00  0.00    +0.000 A 
BRANCH   7   8
ATOM      8  C   UNL     1       2.329   4.221  18.793  0.00  0.00    +0.000 A 
ATOM      9  C   UNL     1       1.815   3.093  18.180  0.00  0.00    +0.000 A 
ATOM     10  C   UNL     1       1.425   2.205  19.211  0.00  0.00    +0.000 A 
ATOM     11  C   UNL     1       1.759   2.821  20.394  0.00  0.00    +0.000 A 
ATOM     12  C   UNL     1       1.617   2.433  21.812  0.00  0.00    +0.000 C 
ATOM     13  O   UNL     1       2.318   4.039  20.147  0.00  0.00    +0.000 OA
ENDBRANCH   7   8
ENDBRANCH   1   2
BRANCH   1  14
ATOM     14  N   UNL     1       5.227   3.686  16.892  0.00  0.00    +0.000 NA
ATOM     15  H   UNL     1       4.306   3.248  16.852  0.00  0.00    +0.000 HD
BRANCH  14  18
ATOM     16  N   UNL     1       6.426   4.116  13.492  0.00  0.00    +0.000 N 
ATOM     17  C   UNL     1       5.540   3.423  14.398  0.00  0.00    +0.000 C 
ATOM     18  C   UNL     1       5.513   4.339  15.622  0.00  0.00    +0.000 C 
ATOM     19  C   UNL     1       6.931   4.922  15.633  0.00  0.00    +0.000 C 
ATOM     20  C   UNL     1       7.287   4.968  14.171  0.00  0.00    +0.000 C 
ATOM     21  O   UNL     1       8.221   5.594  13.692  0.00  0.00    +0.000 OA
BRANCH  16  22
ATOM     22  C   UNL     1       6.616   3.709  12.113  0.00  0.00    +0.000 C 
BRANCH  22  24
ATOM     23  C   UNL     1       6.697   1.418  11.047  0.00  0.00    +0.000 C 
ATOM     24  C   UNL     1       5.831   2.454  11.749  0.00  0.00    +0.000 C 
ENDBRANCH  22  24
ENDBRANCH  16  22
ENDBRANCH  14  18
ENDBRANCH   1  14
TORSDOF 6
ENDMDL
MODEL 3
REMARK VINA RESULT:      -7.5      1.195      1.614
REMARK  Name = 
REMARK  8 active torsions:
REMARK  status: ('A' for Active; 'I' for Inactive)
REMARK    1  A    between atoms: C_1  and  C_2
REMARK    2  A    between atoms: C_2  and  C_3
REMARK    3  A    between atoms: C_3  and  N_4
REMARK    4  A    between atoms: C_6  and  N_7
REMARK    5  A    between atoms: N_7  and  C_8
REMARK    6  A    between atoms: C_8  and  C_9
REMARK    7  A    between atoms: C_14  and  C_15
REMARK    8  A    between atoms: C_18  and  C_19
REMARK                            x       y       z     vdW  Elec       q    Type
REMARK                         _______ _______ _______ _____ _____    ______ ____
ROOT
ATOM      1  C   UNL     1       4.811   4.421  19.751  0.00  0.00    +0.000 C 
ENDROOT
BRANCH   1   2
ATOM      2  C   UNL     1       3.500   3.698  19.468  0.00  0.00    +0.000 A 
ATOM      3  C   UNL     1       3.504   2.302  19.237  0.00  0.00    +0.000 A 
ATOM      4  C   UNL     1       2.353   1.618  18.860  0.00  0.00    +0.000 A 
ATOM      5  C   UNL     1       1.155   2.303  18.756  0.00  0.00    +0.000 A 
ATOM      6  C   UNL     1       1.111   3.670  19.035  0.00  0.00    +0.000 A 
ATOM      7  C   UNL     1       2.271   4.394  19.383  0.00  0.00    +0.000 A 
BRANCH   7   8
ATOM      8  C   UNL     1       2.138   5.845  19.566  0.00  0.00    +0.000 A 
ATOM      9  C   UNL     1       1.839   6.636  20.660  0.00  0.00    +0.000 A 
ATOM     10  C   UNL     1       1.799   7.975  20.202  0.00  0.00    +0.000 A 
ATOM     11  C   UNL     1       2.115   7.932  18.864  0.00  0.00    +0.000 A 
ATOM     12  C   UNL     1       2.242   8.970  17.821  0.00  0.00    +0.000 C 
ATOM     13  O   UNL     1       2.334   6.645  18.475  0.00  0.00    +0.000 OA
ENDBRANCH   7   8
ENDBRANCH   1   2
BRANCH   1  14
ATOM     14  N   UNL     1       5.851   4.100  18.763  0.00  0.00    +0.000 NA
ATOM     15  H   UNL     1       6.097   3.116  18.872  0.00  0.00    +0.000 HD
BRANCH  14  18
ATOM     16  N   UNL     1       6.128   4.871  15.225  0.00  0.00    +0.000 N 
ATOM     17  C   UNL     1       6.463   3.983  16.313  0.00  0.00    +0.000 C 
ATOM     18  C   UNL     1       5.441   4.352  17.388  0.00  0.00    +0.000 C 
ATOM     19  C   UNL     1       5.245   5.855  17.160  0.00  0.00    +0.000 C 
ATOM     20  C   UNL     1       5.457   6.000  15.676  0.00  0.00    +0.000 C 
ATOM     21  O   UNL     1       5.151   6.979  15.012  0.00  0.00    +0.000 OA
BRANCH  16  22
ATOM     22  C   UNL     1       6.722   4.759  13.907  0.00  0.00    +0.000 C 
BRANCH  22  24
ATOM     23  C   UNL     1       6.866   3.370  11.801  0.00  0.00    +0.000 C 
ATOM     24  C   UNL     1       6.045   3.707  13.036  0.00  0.00    +0.000 C 
ENDBRANCH  22  24
ENDBRANCH  16  22
ENDBRANCH  14  18
ENDBRANCH   1  14
TORSDOF 6
ENDMDL
MODEL 4
REMARK VINA RESULT:      -7.4      1.644      2.099
REMARK  Name = 
REMARK  8 active torsions:
REMARK  status: ('A' for Active; 'I' for Inactive)
REMARK    1  A    between atoms: C_1  and  C_2
REMARK    2  A    between atoms: C_2  and  C_3
REMARK    3  A    between atoms: C_3  and  N_4
REMARK    4  A    between atoms: C_6  and  N_7
REMARK    5  A    between atoms: N_7  and  C_8
REMARK    6  A    between atoms: C_8  and  C_9
REMARK    7  A    between atoms: C_14  and  C_15
REMARK    8  A    between atoms: C_18  and  C_19
REMARK                            x       y       z     vdW  Elec       q    Type
REMARK                         _______ _______ _______ _____ _____    ______ ____
ROOT
ATOM      1  C   UNL     1       4.374   6.003  19.400  0.00  0.00    +0.000 C 
ENDROOT
BRANCH   1   2
ATOM      2  C   UNL     1       3.238   5.088  19.842  0.00  0.00    +0.000 A 
ATOM      3  C   UNL     1       3.419   3.685  19.823  0.00  0.00    +0.000 A 
ATOM      4  C   UNL     1       2.377   2.807  20.104  0.00  0.00    +0.000 A 
ATOM      5  C   UNL     1       1.139   3.311  20.465  0.00  0.00    +0.000 A 
ATOM      6  C   UNL     1       0.949   4.690  20.548  0.00  0.00    +0.000 A 
ATOM      7  C   UNL     1       1.979   5.602  20.232  0.00  0.00    +0.000 A 
BRANCH   7   8
ATOM      8  C   UNL     1       1.653   7.034  20.261  0.00  0.00    +0.000 A 
ATOM      9  C   UNL     1       1.142   7.867  21.238  0.00  0.00    +0.000 A 
ATOM     10  C   UNL     1       0.992   9.147  20.652  0.00  0.00    +0.000 A 
ATOM     11  C   UNL     1       1.457   9.034  19.362  0.00  0.00    +0.000 A 
ATOM     12  C   UNL     1       1.572   9.990  18.242  0.00  0.00    +0.000 C 
ATOM     13  O   UNL     1       1.871   7.759  19.123  0.00  0.00    +0.000 OA
ENDBRANCH   7   8
ENDBRANCH   1   2
BRANCH   1  14
ATOM     14  N   UNL     1       4.237   6.429  18.001  0.00  0.00    +0.000 NA
ATOM     15  H   UNL     1       3.953   7.408  17.996  0.00  0.00    +0.000 HD
BRANCH  14  18
ATOM     16  N   UNL     1       6.573   5.030  15.599  0.00  0.00    +0.000 N 
ATOM     17  C   UNL     1       5.288   5.641  15.841  0.00  0.00    +0.000 C 
ATOM     18  C   UNL     1       5.459   6.269  17.224  0.00  0.00    +0.000 C 
ATOM     19  C   UNL     1       6.406   5.286  17.922  0.00  0.00    +0.000 C 
ATOM     20  C   UNL     1       7.243   4.763  16.785  0.00  0.00    +0.000 C 
ATOM     21  O   UNL     1       8.291   4.146  16.907  0.00  0.00    +0.000 OA
BRANCH  16  22
ATOM     22  C   UNL     1       6.945   4.463  14.317  0.00  0.00    +0.000 C 
BRANCH  22  24
ATOM     23  C   UNL     1       6.166   3.319  12.202  0.00  0.00    +0.000 C 
ATOM     24  C   UNL     1       5.758   3.889  13.552  0.00  0.00    +0.000 C 
ENDBRANCH  22  24
ENDBRANCH  16  22
ENDBRANCH  14  18
ENDBRANCH   1  14
TORSDOF 6
ENDMDL
MODEL 5
REMARK VINA RESULT:      -7.3      3.368      7.268
REMARK  Name = 
REMARK  8 active torsions:
REMARK  status: ('A' for Active; 'I' for Inactive)
REMARK    1  A    between atoms: C_1  and  C_2
REMARK    2  A    between atoms: C_2  and  C_3
REMARK    3  A    between atoms: C_3  and  N_4
REMARK    4  A    between atoms: C_6  and  N_7
REMARK    5  A    between atoms: N_7  and  C_8
REMARK    6  A    between atoms: C_8  and  C_9
REMARK    7  A    between atoms: C_14  and  C_15
REMARK    8  A    between atoms: C_18  and  C_19
REMARK                            x       y       z     vdW  Elec       q    Type
REMARK                         _______ _______ _______ _____ _____    ______ ____
ROOT
ATOM      1  C   UNL     1       2.339   6.756  19.813  0.00  0.00    +0.000 C 
ENDROOT
BRANCH   1   2
ATOM      2  C   UNL     1       2.245   5.235  19.800  0.00  0.00    +0.000 A 
ATOM      3  C   UNL     1       1.207   4.590  20.514  0.00  0.00    +0.000 A 
ATOM      4  C   UNL     1       1.147   3.205  20.630  0.00  0.00    +0.000 A 
ATOM      5  C   UNL     1       2.094   2.425  19.987  0.00  0.00    +0.000 A 
ATOM      6  C   UNL     1       3.094   3.033  19.228  0.00  0.00    +0.000 A 
ATOM      7  C   UNL     1       3.199   4.437  19.126  0.00  0.00    +0.000 A 
BRANCH   7   8
ATOM      8  C   UNL     1       4.341   4.982  18.380  0.00  0.00    +0.000 A 
ATOM      9  C   UNL     1       4.552   5.253  17.041  0.00  0.00    +0.000 A 
ATOM     10  C   UNL     1       5.883   5.718  16.919  0.00  0.00    +0.000 A 
ATOM     11  C   UNL     1       6.398   5.745  18.195  0.00  0.00    +0.000 A 
ATOM     12  C   UNL     1       7.714   6.125  18.747  0.00  0.00    +0.000 C 
ATOM     13  O   UNL     1       5.463   5.311  19.086  0.00  0.00    +0.000 OA
ENDBRANCH   7   8
ENDBRANCH   1   2
BRANCH   1  14
ATOM     14  N   UNL     1       1.908   7.332  21.094  0.00  0.00    +0.000 NA
ATOM     15  H   UNL     1       2.731   7.714  21.561  0.00  0.00    +0.000 HD
BRANCH  14  18
ATOM     16  N   UNL     1       0.395  10.477  20.091  0.00  0.00    +0.000 N 
ATOM     17  C   UNL     1       1.008   9.232  19.691  0.00  0.00    +0.000 C 
ATOM     18  C   UNL     1       0.899   8.373  20.951  0.00  0.00    +0.000 C 
ATOM     19  C   UNL     1       1.042   9.408  22.073  0.00  0.00    +0.000 C 
ATOM     20  C   UNL     1       0.433  10.645  21.468  0.00  0.00    +0.000 C 
ATOM     21  O   UNL     1       0.101  11.644  22.089  0.00  0.00    +0.000 OA
BRANCH  16  22
ATOM     22  C   UNL     1       0.105  11.546  19.155  0.00  0.00    +0.000 C 
BRANCH  22  24
ATOM     23  C   UNL     1      -1.772  10.651  17.719  0.00  0.00    +0.000 C 
ATOM     24  C   UNL     1      -1.374  11.644  18.801  0.00  0.00    +0.000 C 
ENDBRANCH  22  24
ENDBRANCH  16  22
ENDBRANCH  14  18
ENDBRANCH   1  14
TORSDOF 6
ENDMDL
MODEL 6
REMARK VINA RESULT:      -7.3      3.102      7.450
REMARK  Name = 
REMARK  8 active torsions:
REMARK  status: ('A' for Active; 'I' for Inactive)
REMARK    1  A    between atoms: C_1  and  C_2
REMARK    2  A    between atoms: C_2  and  C_3
REMARK    3  A    between atoms: C_3  and  N_4
REMARK    4  A    between atoms: C_6  and  N_7
REMARK    5  A    between atoms: N_7  and  C_8
REMARK    6  A    between atoms: C_8  and  C_9
REMARK    7  A    between atoms: C_14  and  C_15
REMARK    8  A    between atoms: C_18  and  C_19
REMARK                            x       y       z     vdW  Elec       q    Type
REMARK                         _______ _______ _______ _____ _____    ______ ____
ROOT
ATOM      1  C   UNL     1       2.853   6.876  18.559  0.00  0.00    +0.000 C 
ENDROOT
BRANCH   1   2
ATOM      2  C   UNL     1       3.717   5.993  17.667  0.00  0.00    +0.000 A 
ATOM      3  C   UNL     1       4.675   6.584  16.810  0.00  0.00    +0.000 A 
ATOM      4  C   UNL     1       5.404   5.832  15.895  0.00  0.00    +0.000 A 
ATOM      5  C   UNL     1       5.233   4.459  15.850  0.00  0.00    +0.000 A 
ATOM      6  C   UNL     1       4.337   3.842  16.725  0.00  0.00    +0.000 A 
ATOM      7  C   UNL     1       3.559   4.587  17.636  0.00  0.00    +0.000 A 
BRANCH   7   8
ATOM      8  C   UNL     1       2.578   3.856  18.449  0.00  0.00    +0.000 A 
ATOM      9  C   UNL     1       1.336   3.316  18.171  0.00  0.00    +0.000 A 
ATOM     10  C   UNL     1       0.840   2.778  19.383  0.00  0.00    +0.000 A 
ATOM     11  C   UNL     1       1.822   2.984  20.324  0.00  0.00    +0.000 A 
ATOM     12  C   UNL     1       1.928   2.665  21.762  0.00  0.00    +0.000 C 
ATOM     13  O   UNL     1       2.884   3.626  19.761  0.00  0.00    +0.000 OA
ENDBRANCH   7   8
ENDBRANCH   1   2
BRANCH   1  14
ATOM     14  N   UNL     1       2.003   7.791  17.784  0.00  0.00    +0.000 NA
ATOM     15  H   UNL     1       1.118   7.318  17.600  0.00  0.00    +0.000 HD
BRANCH  14  18
ATOM     16  N   UNL     1       0.531  10.168  20.100  0.00  0.00    +0.000 N 
ATOM     17  C   UNL     1       1.289   8.954  19.912  0.00  0.00    +0.000 C 
ATOM     18  C   UNL     1       1.750   9.057  18.458  0.00  0.00    +0.000 C 
ATOM     19  C   UNL     1       0.582   9.790  17.789  0.00  0.00    +0.000 C 
ATOM     20  C   UNL     1       0.059  10.668  18.894  0.00  0.00    +0.000 C 
ATOM     21  O   UNL     1      -0.706  11.610  18.745  0.00  0.00    +0.000 OA
BRANCH  16  22
ATOM     22  C   UNL     1       0.043  10.597  21.397  0.00  0.00    +0.000 C 
BRANCH  22  24
ATOM     23  C   UNL     1       0.049   9.469  23.659  0.00  0.00    +0.000 C 
ATOM     24  C   UNL     1      -0.499   9.448  22.240  0.00  0.00    +0.000 C 
ENDBRANCH  22  24
ENDBRANCH  16  22
ENDBRANCH  14  18
ENDBRANCH   1  14
TORSDOF 6
ENDMDL
MODEL 7
REMARK VINA RESULT:      -7.3      2.175      6.475
REMARK  Name = 
REMARK  8 active torsions:
REMARK  status: ('A' for Active; 'I' for Inactive)
REMARK    1  A    between atoms: C_1  and  C_2
REMARK    2  A    between atoms: C_2  and  C_3
REMARK    3  A    between atoms: C_3  and  N_4
REMARK    4  A    between atoms: C_6  and  N_7
REMARK    5  A    between atoms: N_7  and  C_8
REMARK    6  A    between atoms: C_8  and  C_9
REMARK    7  A    between atoms: C_14  and  C_15
REMARK    8  A    between atoms: C_18  and  C_19
REMARK                            x       y       z     vdW  Elec       q    Type
REMARK                         _______ _______ _______ _____ _____    ______ ____
ROOT
ATOM      1  C   UNL     1       4.692   3.950  16.844  0.00  0.00    +0.000 C 
ENDROOT
BRANCH   1   2
ATOM      2  C   UNL     1       5.494   4.215  15.576  0.00  0.00    +0.000 A 
ATOM      3  C   UNL     1       5.112   3.599  14.361  0.00  0.00    +0.000 A 
ATOM      4  C   UNL     1       5.879   3.715  13.206  0.00  0.00    +0.000 A 
ATOM      5  C   UNL     1       7.021   4.498  13.221  0.00  0.00    +0.000 A 
ATOM      6  C   UNL     1       7.389   5.164  14.390  0.00  0.00    +0.000 A 
ATOM      7  C   UNL     1       6.649   5.032  15.585  0.00  0.00    +0.000 A 
BRANCH   7   8
ATOM      8  C   UNL     1       7.171   5.699  16.785  0.00  0.00    +0.000 A 
ATOM      9  C   UNL     1       7.466   5.254  18.061  0.00  0.00    +0.000 A 
ATOM     10  C   UNL     1       7.886   6.383  18.804  0.00  0.00    +0.000 A 
ATOM     11  C   UNL     1       7.864   7.446  17.932  0.00  0.00    +0.000 A 
ATOM     12  C   UNL     1       8.182   8.881  18.078  0.00  0.00    +0.000 C 
ATOM     13  O   UNL     1       7.443   7.036  16.703  0.00  0.00    +0.000 OA
ENDBRANCH   7   8
ENDBRANCH   1   2
BRANCH   1  14
ATOM     14  N   UNL     1       4.582   2.516  17.146  0.00  0.00    +0.000 NA
ATOM     15  H   UNL     1       5.505   2.180  17.420  0.00  0.00    +0.000 HD
BRANCH  14  18
ATOM     16  N   UNL     1       2.116   3.084  19.751  0.00  0.00    +0.000 N 
ATOM     17  C   UNL     1       2.481   3.225  18.361  0.00  0.00    +0.000 C 
ATOM     18  C   UNL     1       3.620   2.219  18.200  0.00  0.00    +0.000 C 
ATOM     19  C   UNL     1       4.304   2.266  19.571  0.00  0.00    +0.000 C 
ATOM     20  C   UNL     1       3.163   2.571  20.504  0.00  0.00    +0.000 C 
ATOM     21  O   UNL     1       3.195   2.451  21.720  0.00  0.00    +0.000 OA
BRANCH  16  22
ATOM     22  C   UNL     1       0.945   3.720  20.324  0.00  0.00    +0.000 C 
BRANCH  22  24
ATOM     23  C   UNL     1       2.385   5.776  20.620  0.00  0.00    +0.000 C 
ATOM     24  C   UNL     1       1.005   5.242  20.267  0.00  0.00    +0.000 C 
ENDBRANCH  22  24
ENDBRANCH  16  22
ENDBRANCH  14  18
ENDBRANCH   1  14
TORSDOF 6
ENDMDL
MODEL 8
REMARK VINA RESULT:      -7.3      3.333      7.263
REMARK  Name = 
REMARK  8 active torsions:
REMARK  status: ('A' for Active; 'I' for Inactive)
REMARK    1  A    between atoms: C_1  and  C_2
REMARK    2  A    between atoms: C_2  and  C_3
REMARK    3  A    between atoms: C_3  and  N_4
REMARK    4  A    between atoms: C_6  and  N_7
REMARK    5  A    between atoms: N_7  and  C_8
REMARK    6  A    between atoms: C_8  and  C_9
REMARK    7  A    between atoms: C_14  and  C_15
REMARK    8  A    between atoms: C_18  and  C_19
REMARK                            x       y       z     vdW  Elec       q    Type
REMARK                         _______ _______ _______ _____ _____    ______ ____
ROOT
ATOM      1  C   UNL     1       3.053   6.988  18.403  0.00  0.00    +0.000 C 
ENDROOT
BRANCH   1   2
ATOM      2  C   UNL     1       3.878   6.052  17.527  0.00  0.00    +0.000 A 
ATOM      3  C   UNL     1       4.836   6.589  16.635  0.00  0.00    +0.000 A 
ATOM      4  C   UNL     1       5.529   5.787  15.733  0.00  0.00    +0.000 A 
ATOM      5  C   UNL     1       5.320   4.419  15.737  0.00  0.00    +0.000 A 
ATOM      6  C   UNL     1       4.423   3.856  16.646  0.00  0.00    +0.000 A 
ATOM      7  C   UNL     1       3.681   4.652  17.545  0.00  0.00    +0.000 A 
BRANCH   7   8
ATOM      8  C   UNL     1       2.695   3.975  18.398  0.00  0.00    +0.000 A 
ATOM      9  C   UNL     1       1.401   3.538  18.183  0.00  0.00    +0.000 A 
ATOM     10  C   UNL     1       0.936   3.007  19.409  0.00  0.00    +0.000 A 
ATOM     11  C   UNL     1       1.984   3.110  20.294  0.00  0.00    +0.000 A 
ATOM     12  C   UNL     1       2.148   2.744  21.716  0.00  0.00    +0.000 C 
ATOM     13  O   UNL     1       3.058   3.685  19.684  0.00  0.00    +0.000 OA
ENDBRANCH   7   8
ENDBRANCH   1   2
BRANCH   1  14
ATOM     14  N   UNL     1       2.867   8.310  17.788  0.00  0.00    +0.000 NA
ATOM     15  H   UNL     1       2.855   8.188  16.776  0.00  0.00    +0.000 HD
BRANCH  14  18
ATOM     16  N   UNL     1       0.719  10.871  19.206  0.00  0.00    +0.000 N 
ATOM     17  C   UNL     1       1.688  10.508  18.200  0.00  0.00    +0.000 C 
ATOM     18  C   UNL     1       1.646   8.980  18.215  0.00  0.00    +0.000 C 
ATOM     19  C   UNL     1       1.357   8.668  19.688  0.00  0.00    +0.000 C 
ATOM     20  C   UNL     1       0.526   9.846  20.122  0.00  0.00    +0.000 C 
ATOM     21  O   UNL     1      -0.140   9.901  21.146  0.00  0.00    +0.000 OA
BRANCH  16  22
ATOM     22  C   UNL     1       0.281  12.237  19.419  0.00  0.00    +0.000 C 
BRANCH  22  24
ATOM     23  C   UNL     1      -2.098  11.953  18.614  0.00  0.00    +0.000 C 
ATOM     24  C   UNL     1      -0.779  12.687  18.421  0.00  0.00    +0.000 C 
ENDBRANCH  22  24
ENDBRANCH  16  22
ENDBRANCH  14  18
ENDBRANCH   1  14
TORSDOF 6
ENDMDL
MODEL 9
REMARK VINA RESULT:      -7.2      3.198      7.240
REMARK  Name = 
REMARK  8 active torsions:
REMARK  status: ('A' for Active; 'I' for Inactive)
REMARK    1  A    between atoms: C_1  and  C_2
REMARK    2  A    between atoms: C_2  and  C_3
REMARK    3  A    between atoms: C_3  and  N_4
REMARK    4  A    between atoms: C_6  and  N_7
REMARK    5  A    between atoms: N_7  and  C_8
REMARK    6  A    between atoms: C_8  and  C_9
REMARK    7  A    between atoms: C_14  and  C_15
REMARK    8  A    between atoms: C_18  and  C_19
REMARK                            x       y       z     vdW  Elec       q    Type
REMARK                         _______ _______ _______ _____ _____    ______ ____
ROOT
ATOM      1  C   UNL     1       2.644   6.351  19.780  0.00  0.00    +0.000 C 
ENDROOT
BRANCH   1   2
ATOM      2  C   UNL     1       2.171   4.980  19.313  0.00  0.00    +0.000 A 
ATOM      3  C   UNL     1       1.198   4.280  20.065  0.00  0.00    +0.000 A 
ATOM      4  C   UNL     1       0.821   2.979  19.746  0.00  0.00    +0.000 A 
ATOM      5  C   UNL     1       1.368   2.363  18.633  0.00  0.00    +0.000 A 
ATOM      6  C   UNL     1       2.287   3.052  17.840  0.00  0.00    +0.000 A 
ATOM      7  C   UNL     1       2.714   4.358  18.164  0.00  0.00    +0.000 A 
BRANCH   7   8
ATOM      8  C   UNL     1       3.753   4.963  17.320  0.00  0.00    +0.000 A 
ATOM      9  C   UNL     1       4.206   6.259  17.162  0.00  0.00    +0.000 A 
ATOM     10  C   UNL     1       5.198   6.229  16.152  0.00  0.00    +0.000 A 
ATOM     11  C   UNL     1       5.324   4.912  15.778  0.00  0.00    +0.000 A 
ATOM     12  C   UNL     1       6.171   4.219  14.787  0.00  0.00    +0.000 C 
ATOM     13  O   UNL     1       4.460   4.137  16.491  0.00  0.00    +0.000 OA
ENDBRANCH   7   8
ENDBRANCH   1   2
BRANCH   1  14
ATOM     14  N   UNL     1       1.958   6.793  21.002  0.00  0.00    +0.000 NA
ATOM     15  H   UNL     1       2.668   7.020  21.698  0.00  0.00    +0.000 HD
BRANCH  14  18
ATOM     16  N   UNL     1       0.909  10.106  19.949  0.00  0.00    +0.000 N 
ATOM     17  C   UNL     1       1.414   8.807  19.574  0.00  0.00    +0.000 C 
ATOM     18  C   UNL     1       1.090   7.945  20.794  0.00  0.00    +0.000 C 
ATOM     19  C   UNL     1       1.241   8.938  21.952  0.00  0.00    +0.000 C 
ATOM     20  C   UNL     1       0.834  10.246  21.328  0.00  0.00    +0.000 C 
ATOM     21  O   UNL     1       0.558  11.266  21.943  0.00  0.00    +0.000 OA
BRANCH  16  22
ATOM     22  C   UNL     1       0.831  11.218  19.020  0.00  0.00    +0.000 C 
BRANCH  22  24
ATOM     23  C   UNL     1      -1.069  12.881  19.129  0.00  0.00    +0.000 C 
ATOM     24  C   UNL     1      -0.597  11.538  18.593  0.00  0.00    +0.000 C 
ENDBRANCH  22  24
ENDBRANCH  16  22
ENDBRANCH  14  18
ENDBRANCH   1  14
TORSDOF 6
ENDMDL
