MODEL 1
REMARK VINA RESULT:      -7.0      0.000      0.000
REMARK  Name = 
REMARK  6 active torsions:
REMARK  status: ('A' for Active; 'I' for Inactive)
REMARK    1  A    between atoms: C_1  and  C_2
REMARK    2  A    between atoms: C_3  and  C_4
REMARK    3  A    between atoms: C_4  and  O_5
REMARK    4  A    between atoms: C_11  and  C_12
REMARK    5  A    between atoms: C_19  and  C_20
REMARK    6  A    between atoms: C_24  and  C_25
REMARK                            x       y       z     vdW  Elec       q    Type
REMARK                         _______ _______ _______ _____ _____    ______ ____
ROOT
ATOM      1  C   UNL     1      -2.565  10.704  16.042  0.00  0.00    +0.000 C 
ATOM      2  C   UNL     1      -3.779  11.357  16.659  0.00  0.00    +0.000 C 
ATOM      3  C   UNL     1      -3.752  10.790  18.035  0.00  0.00    +0.000 C 
ATOM      4  C   UNL     1      -2.958  11.921  18.559  0.00  0.00    +0.000 C 
ATOM      5  C   UNL     1      -3.326  12.268  19.992  0.00  0.00    +0.000 C 
ATOM      6  C   UNL     1      -4.790  12.545  19.807  0.00  0.00    +0.000 C 
ATOM      7  C   UNL     1      -5.557  12.328  21.039  0.00  0.00    +0.000 C 
ATOM      8  C   UNL     1      -7.006  12.408  20.573  0.00  0.00    +0.000 C 
ATOM      9  C   UNL     1      -5.194  13.365  22.033  0.00  0.00    +0.000 C 
ATOM     10  C   UNL     1      -6.140  13.693  22.899  0.00  0.00    +0.000 C 
ATOM     11  C   UNL     1      -6.764  14.855  22.309  0.00  0.00    +0.000 C 
ATOM     12  O   UNL     1      -7.917  14.949  21.810  0.00  0.00    +0.000 OA
ATOM     13  C   UNL     1      -5.786  16.042  22.446  0.00  0.00    +0.000 C 
ATOM     14  C   UNL     1      -4.180  15.529  22.505  0.00  0.00    +0.000 C 
ATOM     15  C   UNL     1      -3.742  13.921  22.076  0.00  0.00    +0.000 C 
ATOM     16  C   UNL     1      -3.114  13.038  23.197  0.00  0.00    +0.000 C 
ATOM     17  C   UNL     1      -2.792  13.594  20.605  0.00  0.00    +0.000 C 
ATOM     18  C   UNL     1      -1.245  13.276  20.372  0.00  0.00    +0.000 C 
ATOM     19  C   UNL     1      -0.839  12.835  18.625  0.00  0.00    +0.000 C 
ATOM     20  C   UNL     1      -1.745  11.429  17.782  0.00  0.00    +0.000 C 
ATOM     21  C   UNL     1      -0.970  10.331  18.902  0.00  0.00    +0.000 C 
ENDROOT
BRANCH   1  24
ATOM     22  C   UNL     1      -4.251   9.735  11.860  0.00  0.00    +0.000 C 
ATOM     23  C   UNL     1      -4.088  10.067  13.334  0.00  0.00    +0.000 C 
ATOM     24  C   UNL     1      -3.947  10.352  14.598  0.00  0.00    +0.000 C 
ENDBRANCH   1  24
BRANCH   1  25
ATOM     25  O   UNL     1      -2.269   9.319  16.280  0.00  0.00    +0.000 OA
ATOM     26  H   UNL     1      -1.311   9.230  16.393  0.00  0.00    +0.000 HD
ENDBRANCH   1  25
TORSDOF 2
ENDMDL
MODEL 2
REMARK VINA RESULT:      -6.8      2.042      4.087
REMARK  Name = 
REMARK  6 active torsions:
REMARK  status: ('A' for Active; 'I' for Inactive)
REMARK    1  A    between atoms: C_1  and  C_2
REMARK    2  A    between atoms: C_3  and  C_4
REMARK    3  A    between atoms: C_4  and  O_5
REMARK    4  A    between atoms: C_11  and  C_12
REMARK    5  A    between atoms: C_19  and  C_20
REMARK    6  A    between atoms: C_24  and  C_25
REMARK                            x       y       z     vdW  Elec       q    Type
REMARK                         _______ _______ _______ _____ _____    ______ ____
ROOT
ATOM      1  C   UNL     1      -2.035  10.200  17.788  0.00  0.00    +0.000 C 
ATOM      2  C   UNL     1      -2.043  11.046  19.038  0.00  0.00    +0.000 C 
ATOM      3  C   UNL     1      -2.775  12.255  18.571  0.00  0.00    +0.000 C 
ATOM      4  C   UNL     1      -4.081  11.717  19.005  0.00  0.00    +0.000 C 
ATOM      5  C   UNL     1      -5.015  12.805  19.507  0.00  0.00    +0.000 C 
ATOM      6  C   UNL     1      -4.160  13.373  20.604  0.00  0.00    +0.000 C 
ATOM      7  C   UNL     1      -4.484  14.775  20.891  0.00  0.00    +0.000 C 
ATOM      8  C   UNL     1      -3.358  15.215  21.819  0.00  0.00    +0.000 C 
ATOM      9  C   UNL     1      -5.828  14.854  21.507  0.00  0.00    +0.000 C 
ATOM     10  C   UNL     1      -6.026  15.865  22.338  0.00  0.00    +0.000 C 
ATOM     11  C   UNL     1      -5.752  15.304  23.641  0.00  0.00    +0.000 C 
ATOM     12  O   UNL     1      -4.780  15.549  24.404  0.00  0.00    +0.000 OA
ATOM     13  C   UNL     1      -6.920  14.362  24.009  0.00  0.00    +0.000 C 
ATOM     14  C   UNL     1      -7.667  13.724  22.637  0.00  0.00    +0.000 C 
ATOM     15  C   UNL     1      -6.933  13.843  21.086  0.00  0.00    +0.000 C 
ATOM     16  C   UNL     1      -7.698  14.667  20.005  0.00  0.00    +0.000 C 
ATOM     17  C   UNL     1      -6.316  12.394  20.253  0.00  0.00    +0.000 C 
ATOM     18  C   UNL     1      -6.910  11.499  19.072  0.00  0.00    +0.000 C 
ATOM     19  C   UNL     1      -5.740  10.202  18.472  0.00  0.00    +0.000 C 
ATOM     20  C   UNL     1      -4.029  10.689  17.884  0.00  0.00    +0.000 C 
ATOM     21  C   UNL     1      -4.786  11.519  16.543  0.00  0.00    +0.000 C 
ENDROOT
BRANCH   1  24
ATOM     22  C   UNL     1       2.305   8.641  17.880  0.00  0.00    +0.000 C 
ATOM     23  C   UNL     1       1.020   9.416  18.121  0.00  0.00    +0.000 C 
ATOM     24  C   UNL     1      -0.083  10.081  18.328  0.00  0.00    +0.000 C 
ENDBRANCH   1  24
BRANCH   1  25
ATOM     25  O   UNL     1      -1.779  10.785  16.501  0.00  0.00    +0.000 OA
ATOM     26  H   UNL     1      -2.279  10.285  15.838  0.00  0.00    +0.000 HD
ENDBRANCH   1  25
TORSDOF 2
ENDMDL
MODEL 3
REMARK VINA RESULT:      -6.6      2.725      4.318
REMARK  Name = 
REMARK  6 active torsions:
REMARK  status: ('A' for Active; 'I' for Inactive)
REMARK    1  A    between atoms: C_1  and  C_2
REMARK    2  A    between atoms: C_3  and  C_4
REMARK    3  A    between atoms: C_4  and  O_5
REMARK    4  A    between atoms: C_11  and  C_12
REMARK    5  A    between atoms: C_19  and  C_20
REMARK    6  A    between atoms: C_24  and  C_25
REMARK                            x       y       z     vdW  Elec       q    Type
REMARK                         _______ _______ _______ _____ _____    ______ ____
ROOT
ATOM      1  C   UNL     1       0.756  10.882  20.021  0.00  0.00    +0.000 C 
ATOM      2  C   UNL     1      -0.357  11.171  19.042  0.00  0.00    +0.000 C 
ATOM      3  C   UNL     1      -1.555  10.768  19.830  0.00  0.00    +0.000 C 
ATOM      4  C   UNL     1      -1.753  12.133  20.358  0.00  0.00    +0.000 C 
ATOM      5  C   UNL     1      -3.222  12.473  20.539  0.00  0.00    +0.000 C 
ATOM      6  C   UNL     1      -3.698  12.257  19.131  0.00  0.00    +0.000 C 
ATOM      7  C   UNL     1      -5.125  11.920  19.072  0.00  0.00    +0.000 C 
ATOM      8  C   UNL     1      -5.329  11.496  17.622  0.00  0.00    +0.000 C 
ATOM      9  C   UNL     1      -5.926  13.102  19.464  0.00  0.00    +0.000 C 
ATOM     10  C   UNL     1      -7.131  13.191  18.922  0.00  0.00    +0.000 C 
ATOM     11  C   UNL     1      -6.932  14.040  17.770  0.00  0.00    +0.000 C 
ATOM     12  O   UNL     1      -6.980  13.720  16.553  0.00  0.00    +0.000 OA
ATOM     13  C   UNL     1      -6.705  15.482  18.273  0.00  0.00    +0.000 C 
ATOM     14  C   UNL     1      -6.042  15.509  19.824  0.00  0.00    +0.000 C 
ATOM     15  C   UNL     1      -5.375  14.090  20.533  0.00  0.00    +0.000 C 
ATOM     16  C   UNL     1      -6.068  13.553  21.824  0.00  0.00    +0.000 C 
ATOM     17  C   UNL     1      -3.623  13.949  20.822  0.00  0.00    +0.000 C 
ATOM     18  C   UNL     1      -2.734  14.115  22.137  0.00  0.00    +0.000 C 
ATOM     19  C   UNL     1      -0.959  13.671  21.886  0.00  0.00    +0.000 C 
ATOM     20  C   UNL     1      -0.505  11.981  21.216  0.00  0.00    +0.000 C 
ATOM     21  C   UNL     1      -1.120  11.289  22.700  0.00  0.00    +0.000 C 
ENDROOT
BRANCH   1  24
ATOM     22  C   UNL     1       2.966   7.756  17.449  0.00  0.00    +0.000 C 
ATOM     23  C   UNL     1       2.169   8.956  17.936  0.00  0.00    +0.000 C 
ATOM     24  C   UNL     1       1.487   9.985  18.355  0.00  0.00    +0.000 C 
ENDBRANCH   1  24
BRANCH   1  25
ATOM     25  O   UNL     1       0.747   9.688  20.819  0.00  0.00    +0.000 OA
ATOM     26  H   UNL     1       0.074   9.791  21.509  0.00  0.00    +0.000 HD
ENDBRANCH   1  25
TORSDOF 2
ENDMDL
MODEL 4
REMARK VINA RESULT:      -6.5      2.797      5.110
REMARK  Name = 
REMARK  6 active torsions:
REMARK  status: ('A' for Active; 'I' for Inactive)
REMARK    1  A    between atoms: C_1  and  C_2
REMARK    2  A    between atoms: C_3  and  C_4
REMARK    3  A    between atoms: C_4  and  O_5
REMARK    4  A    between atoms: C_11  and  C_12
REMARK    5  A    between atoms: C_19  and  C_20
REMARK    6  A    between atoms: C_24  and  C_25
REMARK                            x       y       z     vdW  Elec       q    Type
REMARK                         _______ _______ _______ _____ _____    ______ ____
ROOT
ATOM      1  C   UNL     1       0.536  12.771  20.987  0.00  0.00    +0.000 C 
ATOM      2  C   UNL     1      -0.468  12.936  19.871  0.00  0.00    +0.000 C 
ATOM      3  C   UNL     1      -1.457  11.874  20.204  0.00  0.00    +0.000 C 
ATOM      4  C   UNL     1      -2.287  12.800  21.001  0.00  0.00    +0.000 C 
ATOM      5  C   UNL     1      -3.769  12.483  20.892  0.00  0.00    +0.000 C 
ATOM      6  C   UNL     1      -3.934  12.595  19.403  0.00  0.00    +0.000 C 
ATOM      7  C   UNL     1      -5.056  11.791  18.906  0.00  0.00    +0.000 C 
ATOM      8  C   UNL     1      -4.883  11.841  17.392  0.00  0.00    +0.000 C 
ATOM      9  C   UNL     1      -6.330  12.380  19.378  0.00  0.00    +0.000 C 
ATOM     10  C   UNL     1      -7.381  12.191  18.596  0.00  0.00    +0.000 C 
ATOM     11  C   UNL     1      -7.434  13.388  17.789  0.00  0.00    +0.000 C 
ATOM     12  O   UNL     1      -7.195  13.507  16.558  0.00  0.00    +0.000 OA
ATOM     13  C   UNL     1      -7.916  14.548  18.688  0.00  0.00    +0.000 C 
ATOM     14  C   UNL     1      -7.519  14.293  20.308  0.00  0.00    +0.000 C 
ATOM     15  C   UNL     1      -6.392  13.077  20.768  0.00  0.00    +0.000 C 
ATOM     16  C   UNL     1      -6.932  11.917  21.662  0.00  0.00    +0.000 C 
ATOM     17  C   UNL     1      -4.800  13.512  21.438  0.00  0.00    +0.000 C 
ATOM     18  C   UNL     1      -4.233  13.542  22.930  0.00  0.00    +0.000 C 
ATOM     19  C   UNL     1      -2.425  13.907  23.022  0.00  0.00    +0.000 C 
ATOM     20  C   UNL     1      -1.209  12.844  22.073  0.00  0.00    +0.000 C 
ATOM     21  C   UNL     1      -1.634  11.514  23.126  0.00  0.00    +0.000 C 
ENDROOT
BRANCH   1  24
ATOM     22  C   UNL     1       3.754  14.396  18.111  0.00  0.00    +0.000 C 
ATOM     23  C   UNL     1       2.689  13.554  18.795  0.00  0.00    +0.000 C 
ATOM     24  C   UNL     1       1.775  12.834  19.382  0.00  0.00    +0.000 C 
ENDBRANCH   1  24
BRANCH   1  25
ATOM     25  O   UNL     1       0.950  11.466  21.421  0.00  0.00    +0.000 OA
ATOM     26  H   UNL     1       0.159  10.967  21.674  0.00  0.00    +0.000 HD
ENDBRANCH   1  25
TORSDOF 2
ENDMDL
MODEL 5
REMARK VINA RESULT:      -6.4      9.393     12.972
REMARK  Name = 
REMARK  6 active torsions:
REMARK  status: ('A' for Active; 'I' for Inactive)
REMARK    1  A    between atoms: C_1  and  C_2
REMARK    2  A    between atoms: C_3  and  C_4
REMARK    3  A    between atoms: C_4  and  O_5
REMARK    4  A    between atoms: C_11  and  C_12
REMARK    5  A    between atoms: C_19  and  C_20
REMARK    6  A    between atoms: C_24  and  C_25
REMARK                            x       y       z     vdW  Elec       q    Type
REMARK                         _______ _______ _______ _____ _____    ______ ____
ROOT
ATOM      1  C   UNL     1       3.297  16.637  19.421  0.00  0.00    +0.000 C 
ATOM      2  C   UNL     1       4.465  16.164  18.588  0.00  0.00    +0.000 C 
ATOM      3  C   UNL     1       5.611  16.781  19.311  0.00  0.00    +0.000 C 
ATOM      4  C   UNL     1       5.813  15.585  20.154  0.00  0.00    +0.000 C 
ATOM      5  C   UNL     1       7.278  15.346  20.475  0.00  0.00    +0.000 C 
ATOM      6  C   UNL     1       7.820  15.243  19.079  0.00  0.00    +0.000 C 
ATOM      7  C   UNL     1       9.240  15.604  19.005  0.00  0.00    +0.000 C 
ATOM      8  C   UNL     1       9.508  15.682  17.507  0.00  0.00    +0.000 C 
ATOM      9  C   UNL     1      10.046  14.574  19.700  0.00  0.00    +0.000 C 
ATOM     10  C   UNL     1      11.279  14.401  19.249  0.00  0.00    +0.000 C 
ATOM     11  C   UNL     1      11.158  13.300  18.321  0.00  0.00    +0.000 C 
ATOM     12  O   UNL     1      11.261  13.326  17.066  0.00  0.00    +0.000 OA
ATOM     13  C   UNL     1      10.938  12.009  19.140  0.00  0.00    +0.000 C 
ATOM     14  C   UNL     1      10.198  12.324  20.623  0.00  0.00    +0.000 C 
ATOM     15  C   UNL     1       9.464  13.847  20.946  0.00  0.00    +0.000 C 
ATOM     16  C   UNL     1      10.078  14.694  22.103  0.00  0.00    +0.000 C 
ATOM     17  C   UNL     1       7.697  13.992  21.116  0.00  0.00    +0.000 C 
ATOM     18  C   UNL     1       6.745  14.109  22.392  0.00  0.00    +0.000 C 
ATOM     19  C   UNL     1       4.976  14.422  21.965  0.00  0.00    +0.000 C 
ATOM     20  C   UNL     1       4.520  15.892  20.896  0.00  0.00    +0.000 C 
ATOM     21  C   UNL     1       5.043  16.933  22.201  0.00  0.00    +0.000 C 
ENDROOT
BRANCH   1  24
ATOM     22  C   UNL     1       0.642  18.523  16.155  0.00  0.00    +0.000 C 
ATOM     23  C   UNL     1       1.714  17.753  16.911  0.00  0.00    +0.000 C 
ATOM     24  C   UNL     1       2.632  17.094  17.559  0.00  0.00    +0.000 C 
ENDBRANCH   1  24
BRANCH   1  25
ATOM     25  O   UNL     1       3.239  17.985  19.915  0.00  0.00    +0.000 OA
ATOM     26  H   UNL     1       3.944  18.494  19.486  0.00  0.00    +0.000 HD
ENDBRANCH   1  25
TORSDOF 2
ENDMDL
MODEL 6
REMARK VINA RESULT:      -6.3     10.218     12.400
REMARK  Name = 
REMARK  6 active torsions:
REMARK  status: ('A' for Active; 'I' for Inactive)
REMARK    1  A    between atoms: C_1  and  C_2
REMARK    2  A    between atoms: C_3  and  C_4
REMARK    3  A    between atoms: C_4  and  O_5
REMARK    4  A    between atoms: C_11  and  C_12
REMARK    5  A    between atoms: C_19  and  C_20
REMARK    6  A    between atoms: C_24  and  C_25
REMARK                            x       y       z     vdW  Elec       q    Type
REMARK                         _______ _______ _______ _____ _____    ______ ____
ROOT
ATOM      1  C   UNL     1       6.748   5.142  13.748  0.00  0.00    +0.000 C 
ATOM      2  C   UNL     1       5.831   4.082  14.308  0.00  0.00    +0.000 C 
ATOM      3  C   UNL     1       6.218   4.086  15.746  0.00  0.00    +0.000 C 
ATOM      4  C   UNL     1       5.180   5.078  16.094  0.00  0.00    +0.000 C 
ATOM      5  C   UNL     1       4.601   4.843  17.479  0.00  0.00    +0.000 C 
ATOM      6  C   UNL     1       4.108   3.436  17.302  0.00  0.00    +0.000 C 
ATOM      7  C   UNL     1       4.039   2.707  18.573  0.00  0.00    +0.000 C 
ATOM      8  C   UNL     1       3.777   1.268  18.142  0.00  0.00    +0.000 C 
ATOM      9  C   UNL     1       2.963   3.282  19.412  0.00  0.00    +0.000 C 
ATOM     10  C   UNL     1       2.376   2.446  20.255  0.00  0.00    +0.000 C 
ATOM     11  C   UNL     1       1.208   1.990  19.536  0.00  0.00    +0.000 C 
ATOM     12  O   UNL     1       0.986   0.845  19.062  0.00  0.00    +0.000 OA
ATOM     13  C   UNL     1       0.194   3.154  19.489  0.00  0.00    +0.000 C 
ATOM     14  C   UNL     1       0.957   4.656  19.568  0.00  0.00    +0.000 C 
ATOM     15  C   UNL     1       2.656   4.805  19.341  0.00  0.00    +0.000 C 
ATOM     16  C   UNL     1       3.486   5.337  20.550  0.00  0.00    +0.000 C 
ATOM     17  C   UNL     1       3.317   5.615  17.898  0.00  0.00    +0.000 C 
ATOM     18  C   UNL     1       3.917   7.076  17.665  0.00  0.00    +0.000 C 
ATOM     19  C   UNL     1       4.632   7.318  15.980  0.00  0.00    +0.000 C 
ATOM     20  C   UNL     1       5.961   6.155  15.354  0.00  0.00    +0.000 C 
ATOM     21  C   UNL     1       7.025   6.796  16.585  0.00  0.00    +0.000 C 
ENDROOT
BRANCH   1  24
ATOM     22  C   UNL     1       5.805   1.416  11.198  0.00  0.00    +0.000 C 
ATOM     23  C   UNL     1       6.471   2.620  11.846  0.00  0.00    +0.000 C 
ATOM     24  C   UNL     1       7.041   3.651  12.403  0.00  0.00    +0.000 C 
ENDBRANCH   1  24
BRANCH   1  25
ATOM     25  O   UNL     1       8.123   5.221  14.157  0.00  0.00    +0.000 OA
ATOM     26  H   UNL     1       8.615   5.699  13.472  0.00  0.00    +0.000 HD
ENDBRANCH   1  25
TORSDOF 2
ENDMDL
MODEL 7
REMARK VINA RESULT:      -6.3     11.117     14.699
REMARK  Name = 
REMARK  6 active torsions:
REMARK  status: ('A' for Active; 'I' for Inactive)
REMARK    1  A    between atoms: C_1  and  C_2
REMARK    2  A    between atoms: C_3  and  C_4
REMARK    3  A    between atoms: C_4  and  O_5
REMARK    4  A    between atoms: C_11  and  C_12
REMARK    5  A    between atoms: C_19  and  C_20
REMARK    6  A    between atoms: C_24  and  C_25
REMARK                            x       y       z     vdW  Elec       q    Type
REMARK                         _______ _______ _______ _____ _____    ______ ____
ROOT
ATOM      1  C   UNL     1       6.594  13.095  25.719  0.00  0.00    +0.000 C 
ATOM      2  C   UNL     1       7.672  12.439  24.890  0.00  0.00    +0.000 C 
ATOM      3  C   UNL     1       7.049  12.446  23.538  0.00  0.00    +0.000 C 
ATOM      4  C   UNL     1       7.660  13.744  23.187  0.00  0.00    +0.000 C 
ATOM      5  C   UNL     1       8.024  13.831  21.715  0.00  0.00    +0.000 C 
ATOM      6  C   UNL     1       8.941  12.647  21.620  0.00  0.00    +0.000 C 
ATOM      7  C   UNL     1       8.997  12.094  20.262  0.00  0.00    +0.000 C 
ATOM      8  C   UNL     1       9.754  10.783  20.445  0.00  0.00    +0.000 C 
ATOM      9  C   UNL     1       9.681  13.055  19.367  0.00  0.00    +0.000 C 
ATOM     10  C   UNL     1      10.331  12.530  18.340  0.00  0.00    +0.000 C 
ATOM     11  C   UNL     1      11.691  12.411  18.814  0.00  0.00    +0.000 C 
ATOM     12  O   UNL     1      12.330  11.360  19.085  0.00  0.00    +0.000 OA
ATOM     13  C   UNL     1      12.299  13.830  18.879  0.00  0.00    +0.000 C 
ATOM     14  C   UNL     1      11.116  15.008  19.121  0.00  0.00    +0.000 C 
ATOM     15  C   UNL     1       9.521  14.584  19.608  0.00  0.00    +0.000 C 
ATOM     16  C   UNL     1       8.367  14.926  18.617  0.00  0.00    +0.000 C 
ATOM     17  C   UNL     1       8.918  15.008  21.229  0.00  0.00    +0.000 C 
ATOM     18  C   UNL     1       7.958  16.173  21.748  0.00  0.00    +0.000 C 
ATOM     19  C   UNL     1       7.518  16.023  23.535  0.00  0.00    +0.000 C 
ATOM     20  C   UNL     1       6.737  14.444  24.175  0.00  0.00    +0.000 C 
ATOM     21  C   UNL     1       5.326  14.817  23.212  0.00  0.00    +0.000 C 
ENDROOT
BRANCH   1  24
ATOM     22  C   UNL     1       5.876   9.642  28.691  0.00  0.00    +0.000 C 
ATOM     23  C   UNL     1       6.487  10.629  27.710  0.00  0.00    +0.000 C 
ATOM     24  C   UNL     1       7.011  11.476  26.869  0.00  0.00    +0.000 C 
ENDBRANCH   1  24
BRANCH   1  25
ATOM     25  O   UNL     1       5.209  12.764  25.526  0.00  0.00    +0.000 OA
ATOM     26  H   UNL     1       5.140  12.201  24.740  0.00  0.00    +0.000 HD
ENDBRANCH   1  25
TORSDOF 2
ENDMDL
MODEL 8
REMARK VINA RESULT:      -6.2     11.643     13.099
REMARK  Name = 
REMARK  6 active torsions:
REMARK  status: ('A' for Active; 'I' for Inactive)
REMARK    1  A    between atoms: C_1  and  C_2
REMARK    2  A    between atoms: C_3  and  C_4
REMARK    3  A    between atoms: C_4  and  O_5
REMARK    4  A    between atoms: C_11  and  C_12
REMARK    5  A    between atoms: C_19  and  C_20
REMARK    6  A    between atoms: C_24  and  C_25
REMARK                            x       y       z     vdW  Elec       q    Type
REMARK                         _______ _______ _______ _____ _____    ______ ____
ROOT
ATOM      1  C   UNL     1       9.744  11.575  18.998  0.00  0.00    +0.000 C 
ATOM      2  C   UNL     1       8.900  11.472  20.246  0.00  0.00    +0.000 C 
ATOM      3  C   UNL     1       9.803  12.075  21.264  0.00  0.00    +0.000 C 
ATOM      4  C   UNL     1       9.235  13.425  21.069  0.00  0.00    +0.000 C 
ATOM      5  C   UNL     1       9.200  14.227  22.359  0.00  0.00    +0.000 C 
ATOM      6  C   UNL     1       8.370  13.299  23.200  0.00  0.00    +0.000 C 
ATOM      7  C   UNL     1       8.634  13.463  24.634  0.00  0.00    +0.000 C 
ATOM      8  C   UNL     1       7.905  12.282  25.265  0.00  0.00    +0.000 C 
ATOM      9  C   UNL     1       8.127  14.781  25.080  0.00  0.00    +0.000 C 
ATOM     10  C   UNL     1       7.738  14.855  26.343  0.00  0.00    +0.000 C 
ATOM     11  C   UNL     1       6.313  14.625  26.282  0.00  0.00    +0.000 C 
ATOM     12  O   UNL     1       5.670  13.621  26.688  0.00  0.00    +0.000 OA
ATOM     13  C   UNL     1       5.653  15.883  25.675  0.00  0.00    +0.000 C 
ATOM     14  C   UNL     1       6.708  16.716  24.656  0.00  0.00    +0.000 C 
ATOM     15  C   UNL     1       8.172  15.996  24.109  0.00  0.00    +0.000 C 
ATOM     16  C   UNL     1       9.502  16.683  24.548  0.00  0.00    +0.000 C 
ATOM     17  C   UNL     1       8.390  15.554  22.397  0.00  0.00    +0.000 C 
ATOM     18  C   UNL     1       9.168  16.259  21.195  0.00  0.00    +0.000 C 
ATOM     19  C   UNL     1       9.211  15.247  19.651  0.00  0.00    +0.000 C 
ATOM     20  C   UNL     1       9.892  13.502  19.699  0.00  0.00    +0.000 C 
ATOM     21  C   UNL     1      11.465  14.184  20.045  0.00  0.00    +0.000 C 
ENDROOT
BRANCH   1  24
ATOM     22  C   UNL     1       7.520   7.858  17.414  0.00  0.00    +0.000 C 
ATOM     23  C   UNL     1       8.396   8.817  18.204  0.00  0.00    +0.000 C 
ATOM     24  C   UNL     1       9.147   9.639  18.881  0.00  0.00    +0.000 C 
ENDBRANCH   1  24
BRANCH   1  25
ATOM     25  O   UNL     1      11.149  11.276  19.031  0.00  0.00    +0.000 OA
ATOM     26  H   UNL     1      11.435  11.269  19.957  0.00  0.00    +0.000 HD
ENDBRANCH   1  25
TORSDOF 2
ENDMDL
MODEL 9
REMARK VINA RESULT:      -6.2      4.109      6.385
REMARK  Name = 
REMARK  6 active torsions:
REMARK  status: ('A' for Active; 'I' for Inactive)
REMARK    1  A    between atoms: C_1  and  C_2
REMARK    2  A    between atoms: C_3  and  C_4
REMARK    3  A    between atoms: C_4  and  O_5
REMARK    4  A    between atoms: C_11  and  C_12
REMARK    5  A    between atoms: C_19  and  C_20
REMARK    6  A    between atoms: C_24  and  C_25
REMARK                            x       y       z     vdW  Elec       q    Type
REMARK                         _______ _______ _______ _____ _____    ______ ____
ROOT
ATOM      1  C   UNL     1       0.156  10.140  18.713  0.00  0.00    +0.000 C 
ATOM      2  C   UNL     1       1.075  11.335  18.795  0.00  0.00    +0.000 C 
ATOM      3  C   UNL     1       0.213  12.410  18.231  0.00  0.00    +0.000 C 
ATOM      4  C   UNL     1      -0.299  12.793  19.562  0.00  0.00    +0.000 C 
ATOM      5  C   UNL     1      -0.557  14.287  19.673  0.00  0.00    +0.000 C 
ATOM      6  C   UNL     1       0.817  14.796  19.344  0.00  0.00    +0.000 C 
ATOM      7  C   UNL     1       0.788  16.153  18.786  0.00  0.00    +0.000 C 
ATOM      8  C   UNL     1       2.216  16.364  18.294  0.00  0.00    +0.000 C 
ATOM      9  C   UNL     1       0.374  17.109  19.838  0.00  0.00    +0.000 C 
ATOM     10  C   UNL     1       0.848  18.340  19.722  0.00  0.00    +0.000 C 
ATOM     11  C   UNL     1       2.026  18.339  20.558  0.00  0.00    +0.000 C 
ATOM     12  O   UNL     1       3.232  18.401  20.200  0.00  0.00    +0.000 OA
ATOM     13  C   UNL     1       1.565  18.318  22.032  0.00  0.00    +0.000 C 
ATOM     14  C   UNL     1       0.055  17.586  22.206  0.00  0.00    +0.000 C 
ATOM     15  C   UNL     1      -0.642  16.666  20.930  0.00  0.00    +0.000 C 
ATOM     16  C   UNL     1      -1.980  17.195  20.328  0.00  0.00    +0.000 C 
ATOM     17  C   UNL     1      -0.833  14.901  21.074  0.00  0.00    +0.000 C 
ATOM     18  C   UNL     1      -2.092  13.980  21.415  0.00  0.00    +0.000 C 
ATOM     19  C   UNL     1      -1.749  12.173  21.249  0.00  0.00    +0.000 C 
ATOM     20  C   UNL     1      -1.087  11.494  19.633  0.00  0.00    +0.000 C 
ATOM     21  C   UNL     1      -2.617  11.911  18.895  0.00  0.00    +0.000 C 
ENDROOT
BRANCH   1  24
ATOM     22  C   UNL     1       3.478   7.063  17.832  0.00  0.00    +0.000 C 
ATOM     23  C   UNL     1       2.598   8.303  17.865  0.00  0.00    +0.000 C 
ATOM     24  C   UNL     1       1.844   9.365  17.894  0.00  0.00    +0.000 C 
ENDBRANCH   1  24
BRANCH   1  25
ATOM     25  O   UNL     1      -0.665   9.917  17.554  0.00  0.00    +0.000 OA
ATOM     26  H   UNL     1      -1.517  10.353  17.701  0.00  0.00    +0.000 HD
ENDBRANCH   1  25
TORSDOF 2
ENDMDL
