MODEL 1
REMARK VINA RESULT:      -7.4      0.000      0.000
REMARK  Name = 
REMARK  4 active torsions:
REMARK  status: ('A' for Active; 'I' for Inactive)
REMARK    1  A    between atoms: C_1  and  C_2
REMARK    2  A    between atoms: C_5  and  N_6
REMARK    3  A    between atoms: C_7  and  C_9
REMARK    4  A    between atoms: C_9  and  N_10
REMARK                            x       y       z     vdW  Elec       q    Type
REMARK                         _______ _______ _______ _____ _____    ______ ____
ROOT
ATOM      1  N   UNL     1      -1.396  13.047  19.732  0.00  0.00    +0.000 N 
ATOM      2  C   UNL     1      -0.292  13.865  20.084  0.00  0.00    +0.000 A 
ATOM      3  C   UNL     1       0.418  14.646  19.160  0.00  0.00    +0.000 A 
ATOM      4  C   UNL     1       1.463  15.496  19.569  0.00  0.00    +0.000 A 
ATOM      5  C   UNL     1       1.823  15.588  20.912  0.00  0.00    +0.000 A 
ATOM      6  C   UNL     1       1.139  14.833  21.853  0.00  0.00    +0.000 A 
ATOM      7  C   UNL     1       0.105  13.992  21.423  0.00  0.00    +0.000 A 
ATOM      8  S   UNL     1      -0.801  13.063  22.611  0.00  0.00    +0.000 S 
ATOM      9  O   UNL     1      -0.897  13.881  23.806  0.00  0.00    +0.000 OA
ATOM     10  O   UNL     1      -0.229  11.730  22.648  0.00  0.00    +0.000 OA
ATOM     11  C   UNL     1      -2.413  12.918  21.950  0.00  0.00    +0.000 A 
ATOM     12  C   UNL     1      -3.511  12.874  22.812  0.00  0.00    +0.000 A 
ATOM     13  C   UNL     1      -4.784  12.754  22.273  0.00  0.00    +0.000 A 
ATOM     14  C   UNL     1      -4.942  12.664  20.893  0.00  0.00    +0.000 A 
ATOM     15  C   UNL     1      -3.826  12.726  20.047  0.00  0.00    +0.000 A 
ATOM     16  C   UNL     1      -2.527  12.868  20.557  0.00  0.00    +0.000 A 
ENDROOT
BRANCH   1  17
ATOM     17  C   UNL     1      -1.413  12.396  18.404  0.00  0.00    +0.000 C 
BRANCH  17  19
ATOM     18  N   UNL     1       0.463  10.819  18.644  0.00  0.00    +0.000 N 
ATOM     19  C   UNL     1      -0.907  10.956  18.448  0.00  0.00    +0.000 C 
ATOM     20  O   UNL     1      -1.723  10.035  18.355  0.00  0.00    +0.000 OA
ATOM     21  H   UNL     1       1.035  11.650  18.517  0.00  0.00    +0.000 HD
BRANCH  18  26
ATOM     22  C   UNL     1       3.404   5.926  19.247  0.00  0.00    +0.000 C 
ATOM     23  C   UNL     1       2.601   7.177  19.073  0.00  0.00    +0.000 A 
ATOM     24  C   UNL     1       2.656   7.885  17.876  0.00  0.00    +0.000 A 
ATOM     25  C   UNL     1       1.927   9.065  17.721  0.00  0.00    +0.000 A 
ATOM     26  C   UNL     1       1.145   9.582  18.758  0.00  0.00    +0.000 A 
ATOM     27  C   UNL     1       1.048   8.852  19.947  0.00  0.00    +0.000 A 
ATOM     28  C   UNL     1       1.782   7.666  20.095  0.00  0.00    +0.000 A 
ATOM     29  F   UNL     1       1.704   6.997  21.256  0.00  0.00    +0.000 F 
ENDBRANCH  18  26
ENDBRANCH  17  19
ENDBRANCH   1  17
TORSDOF 3
ENDMDL
MODEL 2
REMARK VINA RESULT:      -7.3      4.417      9.192
REMARK  Name = 
REMARK  4 active torsions:
REMARK  status: ('A' for Active; 'I' for Inactive)
REMARK    1  A    between atoms: C_1  and  C_2
REMARK    2  A    between atoms: C_5  and  N_6
REMARK    3  A    between atoms: C_7  and  C_9
REMARK    4  A    between atoms: C_9  and  N_10
REMARK                            x       y       z     vdW  Elec       q    Type
REMARK                         _______ _______ _______ _____ _____    ______ ____
ROOT
ATOM      1  N   UNL     1       3.504   5.526  19.079  0.00  0.00    +0.000 N 
ATOM      2  C   UNL     1       4.330   5.225  17.967  0.00  0.00    +0.000 A 
ATOM      3  C   UNL     1       5.534   5.891  17.696  0.00  0.00    +0.000 A 
ATOM      4  C   UNL     1       6.357   5.509  16.619  0.00  0.00    +0.000 A 
ATOM      5  C   UNL     1       5.998   4.449  15.789  0.00  0.00    +0.000 A 
ATOM      6  C   UNL     1       4.816   3.765  16.032  0.00  0.00    +0.000 A 
ATOM      7  C   UNL     1       4.012   4.165  17.107  0.00  0.00    +0.000 A 
ATOM      8  S   UNL     1       2.533   3.278  17.454  0.00  0.00    +0.000 S 
ATOM      9  O   UNL     1       2.790   1.884  17.138  0.00  0.00    +0.000 OA
ATOM     10  O   UNL     1       1.437   4.003  16.841  0.00  0.00    +0.000 OA
ATOM     11  C   UNL     1       2.326   3.388  19.186  0.00  0.00    +0.000 A 
ATOM     12  C   UNL     1       1.729   2.332  19.878  0.00  0.00    +0.000 A 
ATOM     13  C   UNL     1       1.567   2.436  21.252  0.00  0.00    +0.000 A 
ATOM     14  C   UNL     1       1.984   3.590  21.910  0.00  0.00    +0.000 A 
ATOM     15  C   UNL     1       2.594   4.631  21.196  0.00  0.00    +0.000 A 
ATOM     16  C   UNL     1       2.792   4.549  19.809  0.00  0.00    +0.000 A 
ENDROOT
BRANCH   1  17
ATOM     17  C   UNL     1       3.424   6.923  19.558  0.00  0.00    +0.000 C 
BRANCH  17  19
ATOM     18  N   UNL     1       1.690   8.653  19.814  0.00  0.00    +0.000 N 
ATOM     19  C   UNL     1       2.226   7.675  18.982  0.00  0.00    +0.000 C 
ATOM     20  O   UNL     1       1.849   7.409  17.838  0.00  0.00    +0.000 OA
ATOM     21  H   UNL     1       1.973   8.637  20.790  0.00  0.00    +0.000 HD
BRANCH  18  26
ATOM     22  C   UNL     1      -2.865  11.905  18.537  0.00  0.00    +0.000 C 
ATOM     23  C   UNL     1      -1.650  11.094  18.861  0.00  0.00    +0.000 A 
ATOM     24  C   UNL     1      -1.000  10.375  17.862  0.00  0.00    +0.000 A 
ATOM     25  C   UNL     1       0.120   9.599  18.167  0.00  0.00    +0.000 A 
ATOM     26  C   UNL     1       0.605   9.499  19.474  0.00  0.00    +0.000 A 
ATOM     27  C   UNL     1      -0.015  10.254  20.475  0.00  0.00    +0.000 A 
ATOM     28  C   UNL     1      -1.138  11.034  20.160  0.00  0.00    +0.000 A 
ATOM     29  F   UNL     1      -1.742  11.724  21.140  0.00  0.00    +0.000 F 
ENDBRANCH  18  26
ENDBRANCH  17  19
ENDBRANCH   1  17
TORSDOF 3
ENDMDL
MODEL 3
REMARK VINA RESULT:      -7.2      2.911      4.384
REMARK  Name = 
REMARK  4 active torsions:
REMARK  status: ('A' for Active; 'I' for Inactive)
REMARK    1  A    between atoms: C_1  and  C_2
REMARK    2  A    between atoms: C_5  and  N_6
REMARK    3  A    between atoms: C_7  and  C_9
REMARK    4  A    between atoms: C_9  and  N_10
REMARK                            x       y       z     vdW  Elec       q    Type
REMARK                         _______ _______ _______ _____ _____    ______ ____
ROOT
ATOM      1  N   UNL     1      -0.017  10.413  19.246  0.00  0.00    +0.000 N 
ATOM      2  C   UNL     1      -1.128  10.631  18.392  0.00  0.00    +0.000 A 
ATOM      3  C   UNL     1      -1.291   9.985  17.157  0.00  0.00    +0.000 A 
ATOM      4  C   UNL     1      -2.446  10.180  16.376  0.00  0.00    +0.000 A 
ATOM      5  C   UNL     1      -3.468  11.023  16.810  0.00  0.00    +0.000 A 
ATOM      6  C   UNL     1      -3.340  11.673  18.029  0.00  0.00    +0.000 A 
ATOM      7  C   UNL     1      -2.181  11.466  18.788  0.00  0.00    +0.000 A 
ATOM      8  S   UNL     1      -2.026  12.249  20.356  0.00  0.00    +0.000 S 
ATOM      9  O   UNL     1      -3.354  12.292  20.942  0.00  0.00    +0.000 OA
ATOM     10  O   UNL     1      -1.243  13.455  20.164  0.00  0.00    +0.000 OA
ATOM     11  C   UNL     1      -1.067  11.155  21.324  0.00  0.00    +0.000 A 
ATOM     12  C   UNL     1      -1.290  11.074  22.700  0.00  0.00    +0.000 A 
ATOM     13  C   UNL     1      -0.517  10.204  23.456  0.00  0.00    +0.000 A 
ATOM     14  C   UNL     1       0.472   9.445  22.837  0.00  0.00    +0.000 A 
ATOM     15  C   UNL     1       0.667   9.532  21.451  0.00  0.00    +0.000 A 
ATOM     16  C   UNL     1      -0.110  10.385  20.654  0.00  0.00    +0.000 A 
ENDROOT
BRANCH   1  17
ATOM     17  C   UNL     1       1.305  10.129  18.647  0.00  0.00    +0.000 C 
BRANCH  17  19
ATOM     18  N   UNL     1       2.189   8.013  19.543  0.00  0.00    +0.000 N 
ATOM     19  C   UNL     1       1.562   8.635  18.468  0.00  0.00    +0.000 C 
ATOM     20  O   UNL     1       1.172   8.082  17.437  0.00  0.00    +0.000 OA
ATOM     21  H   UNL     1       2.620   8.614  20.240  0.00  0.00    +0.000 HD
BRANCH  18  26
ATOM     22  C   UNL     1       3.524   2.453  20.058  0.00  0.00    +0.000 C 
ATOM     23  C   UNL     1       3.146   3.892  19.889  0.00  0.00    +0.000 A 
ATOM     24  C   UNL     1       3.859   4.705  19.013  0.00  0.00    +0.000 A 
ATOM     25  C   UNL     1       3.523   6.053  18.872  0.00  0.00    +0.000 A 
ATOM     26  C   UNL     1       2.489   6.630  19.615  0.00  0.00    +0.000 A 
ATOM     27  C   UNL     1       1.739   5.808  20.462  0.00  0.00    +0.000 A 
ATOM     28  C   UNL     1       2.081   4.454  20.597  0.00  0.00    +0.000 A 
ATOM     29  F   UNL     1       1.372   3.689  21.442  0.00  0.00    +0.000 F 
ENDBRANCH  18  26
ENDBRANCH  17  19
ENDBRANCH   1  17
TORSDOF 3
ENDMDL
MODEL 4
REMARK VINA RESULT:      -7.1      2.348      3.636
REMARK  Name = 
REMARK  4 active torsions:
REMARK  status: ('A' for Active; 'I' for Inactive)
REMARK    1  A    between atoms: C_1  and  C_2
REMARK    2  A    between atoms: C_5  and  N_6
REMARK    3  A    between atoms: C_7  and  C_9
REMARK    4  A    between atoms: C_9  and  N_10
REMARK                            x       y       z     vdW  Elec       q    Type
REMARK                         _______ _______ _______ _____ _____    ______ ____
ROOT
ATOM      1  N   UNL     1       0.719  10.929  18.467  0.00  0.00    +0.000 N 
ATOM      2  C   UNL     1       1.265  12.134  18.978  0.00  0.00    +0.000 A 
ATOM      3  C   UNL     1       2.471  12.689  18.526  0.00  0.00    +0.000 A 
ATOM      4  C   UNL     1       2.938  13.924  19.014  0.00  0.00    +0.000 A 
ATOM      5  C   UNL     1       2.210  14.636  19.965  0.00  0.00    +0.000 A 
ATOM      6  C   UNL     1       1.010  14.118  20.430  0.00  0.00    +0.000 A 
ATOM      7  C   UNL     1       0.567  12.887  19.932  0.00  0.00    +0.000 A 
ATOM      8  S   UNL     1      -0.975  12.240  20.480  0.00  0.00    +0.000 S 
ATOM      9  O   UNL     1      -1.861  13.371  20.685  0.00  0.00    +0.000 OA
ATOM     10  O   UNL     1      -0.696  11.293  21.544  0.00  0.00    +0.000 OA
ATOM     11  C   UNL     1      -1.600  11.330  19.125  0.00  0.00    +0.000 A 
ATOM     12  C   UNL     1      -2.979  11.258  18.919  0.00  0.00    +0.000 A 
ATOM     13  C   UNL     1      -3.461  10.528  17.842  0.00  0.00    +0.000 A 
ATOM     14  C   UNL     1      -2.568   9.870  17.000  0.00  0.00    +0.000 A 
ATOM     15  C   UNL     1      -1.186   9.969  17.219  0.00  0.00    +0.000 A 
ATOM     16  C   UNL     1      -0.665  10.716  18.286  0.00  0.00    +0.000 A 
ENDROOT
BRANCH   1  17
ATOM     17  C   UNL     1       1.635   9.854  18.029  0.00  0.00    +0.000 C 
BRANCH  17  19
ATOM     18  N   UNL     1       2.241   7.517  18.515  0.00  0.00    +0.000 N 
ATOM     19  C   UNL     1       1.694   8.692  19.018  0.00  0.00    +0.000 C 
ATOM     20  O   UNL     1       1.307   8.875  20.176  0.00  0.00    +0.000 OA
ATOM     21  H   UNL     1       2.343   7.448  17.506  0.00  0.00    +0.000 HD
BRANCH  18  26
ATOM     22  C   UNL     1       2.910   2.566  21.343  0.00  0.00    +0.000 C 
ATOM     23  C   UNL     1       2.764   3.878  20.637  0.00  0.00    +0.000 A 
ATOM     24  C   UNL     1       1.739   4.752  20.987  0.00  0.00    +0.000 A 
ATOM     25  C   UNL     1       1.586   5.965  20.313  0.00  0.00    +0.000 A 
ATOM     26  C   UNL     1       2.432   6.327  19.261  0.00  0.00    +0.000 A 
ATOM     27  C   UNL     1       3.492   5.475  18.935  0.00  0.00    +0.000 A 
ATOM     28  C   UNL     1       3.640   4.259  19.618  0.00  0.00    +0.000 A 
ATOM     29  F   UNL     1       4.643   3.438  19.267  0.00  0.00    +0.000 F 
ENDBRANCH  18  26
ENDBRANCH  17  19
ENDBRANCH   1  17
TORSDOF 3
ENDMDL
MODEL 5
REMARK VINA RESULT:      -7.0      4.427      9.249
REMARK  Name = 
REMARK  4 active torsions:
REMARK  status: ('A' for Active; 'I' for Inactive)
REMARK    1  A    between atoms: C_1  and  C_2
REMARK    2  A    between atoms: C_5  and  N_6
REMARK    3  A    between atoms: C_7  and  C_9
REMARK    4  A    between atoms: C_9  and  N_10
REMARK                            x       y       z     vdW  Elec       q    Type
REMARK                         _______ _______ _______ _____ _____    ______ ____
ROOT
ATOM      1  N   UNL     1       3.538   5.532  19.072  0.00  0.00    +0.000 N 
ATOM      2  C   UNL     1       4.393   5.201  17.990  0.00  0.00    +0.000 A 
ATOM      3  C   UNL     1       5.615   5.845  17.746  0.00  0.00    +0.000 A 
ATOM      4  C   UNL     1       6.463   5.435  16.700  0.00  0.00    +0.000 A 
ATOM      5  C   UNL     1       6.113   4.368  15.875  0.00  0.00    +0.000 A 
ATOM      6  C   UNL     1       4.914   3.705  16.092  0.00  0.00    +0.000 A 
ATOM      7  C   UNL     1       4.084   4.133  17.136  0.00  0.00    +0.000 A 
ATOM      8  S   UNL     1       2.582   3.273  17.451  0.00  0.00    +0.000 S 
ATOM      9  O   UNL     1       2.827   1.872  17.164  0.00  0.00    +0.000 OA
ATOM     10  O   UNL     1       1.516   4.006  16.795  0.00  0.00    +0.000 OA
ATOM     11  C   UNL     1       2.325   3.413  19.174  0.00  0.00    +0.000 A 
ATOM     12  C   UNL     1       1.691   2.377  19.864  0.00  0.00    +0.000 A 
ATOM     13  C   UNL     1       1.489   2.504  21.230  0.00  0.00    +0.000 A 
ATOM     14  C   UNL     1       1.904   3.661  21.884  0.00  0.00    +0.000 A 
ATOM     15  C   UNL     1       2.552   4.682  21.173  0.00  0.00    +0.000 A 
ATOM     16  C   UNL     1       2.790   4.576  19.795  0.00  0.00    +0.000 A 
ENDROOT
BRANCH   1  17
ATOM     17  C   UNL     1       3.466   6.937  19.528  0.00  0.00    +0.000 C 
BRANCH  17  19
ATOM     18  N   UNL     1       1.676   8.592  19.873  0.00  0.00    +0.000 N 
ATOM     19  C   UNL     1       2.232   7.664  18.999  0.00  0.00    +0.000 C 
ATOM     20  O   UNL     1       1.845   7.425  17.852  0.00  0.00    +0.000 OA
ATOM     21  H   UNL     1       1.976   8.553  20.843  0.00  0.00    +0.000 HD
BRANCH  18  26
ATOM     22  C   UNL     1      -2.706  12.064  18.569  0.00  0.00    +0.000 C 
ATOM     23  C   UNL     1      -1.594  11.126  18.921  0.00  0.00    +0.000 A 
ATOM     24  C   UNL     1      -1.074  11.109  20.212  0.00  0.00    +0.000 A 
ATOM     25  C   UNL     1      -0.022  10.251  20.536  0.00  0.00    +0.000 A 
ATOM     26  C   UNL     1       0.555   9.409  19.581  0.00  0.00    +0.000 A 
ATOM     27  C   UNL     1       0.007   9.387  18.294  0.00  0.00    +0.000 A 
ATOM     28  C   UNL     1      -1.052  10.250  17.977  0.00  0.00    +0.000 A 
ATOM     29  F   UNL     1      -1.542  10.241  16.727  0.00  0.00    +0.000 F 
ENDBRANCH  18  26
ENDBRANCH  17  19
ENDBRANCH   1  17
TORSDOF 3
ENDMDL
MODEL 6
REMARK VINA RESULT:      -7.0      2.991      4.472
REMARK  Name = 
REMARK  4 active torsions:
REMARK  status: ('A' for Active; 'I' for Inactive)
REMARK    1  A    between atoms: C_1  and  C_2
REMARK    2  A    between atoms: C_5  and  N_6
REMARK    3  A    between atoms: C_7  and  C_9
REMARK    4  A    between atoms: C_9  and  N_10
REMARK                            x       y       z     vdW  Elec       q    Type
REMARK                         _______ _______ _______ _____ _____    ______ ____
ROOT
ATOM      1  N   UNL     1      -0.042  10.568  19.219  0.00  0.00    +0.000 N 
ATOM      2  C   UNL     1      -1.239  10.908  18.538  0.00  0.00    +0.000 A 
ATOM      3  C   UNL     1      -1.555  10.443  17.253  0.00  0.00    +0.000 A 
ATOM      4  C   UNL     1      -2.788  10.751  16.646  0.00  0.00    +0.000 A 
ATOM      5  C   UNL     1      -3.736  11.528  17.309  0.00  0.00    +0.000 A 
ATOM      6  C   UNL     1      -3.457  11.999  18.583  0.00  0.00    +0.000 A 
ATOM      7  C   UNL     1      -2.223  11.684  19.166  0.00  0.00    +0.000 A 
ATOM      8  S   UNL     1      -1.875  12.238  20.799  0.00  0.00    +0.000 S 
ATOM      9  O   UNL     1      -3.126  12.203  21.536  0.00  0.00    +0.000 OA
ATOM     10  O   UNL     1      -1.095  13.456  20.688  0.00  0.00    +0.000 OA
ATOM     11  C   UNL     1      -0.834  11.015  21.488  0.00  0.00    +0.000 A 
ATOM     12  C   UNL     1      -0.900  10.742  22.856  0.00  0.00    +0.000 A 
ATOM     13  C   UNL     1      -0.064   9.772  23.389  0.00  0.00    +0.000 A 
ATOM     14  C   UNL     1       0.833   9.102  22.560  0.00  0.00    +0.000 A 
ATOM     15  C   UNL     1       0.871   9.383  21.187  0.00  0.00    +0.000 A 
ATOM     16  C   UNL     1       0.025  10.343  20.612  0.00  0.00    +0.000 A 
ENDROOT
BRANCH   1  17
ATOM     17  C   UNL     1       1.197  10.366  18.438  0.00  0.00    +0.000 C 
BRANCH  17  19
ATOM     18  N   UNL     1       2.526   8.301  18.612  0.00  0.00    +0.000 N 
ATOM     19  C   UNL     1       1.412   8.907  18.042  0.00  0.00    +0.000 C 
ATOM     20  O   UNL     1       0.588   8.362  17.303  0.00  0.00    +0.000 OA
ATOM     21  H   UNL     1       3.215   8.911  19.045  0.00  0.00    +0.000 HD
BRANCH  18  26
ATOM     22  C   UNL     1       3.896   2.816  17.618  0.00  0.00    +0.000 C 
ATOM     23  C   UNL     1       3.573   4.248  17.909  0.00  0.00    +0.000 A 
ATOM     24  C   UNL     1       2.631   4.569  18.882  0.00  0.00    +0.000 A 
ATOM     25  C   UNL     1       2.310   5.903  19.139  0.00  0.00    +0.000 A 
ATOM     26  C   UNL     1       2.899   6.947  18.420  0.00  0.00    +0.000 A 
ATOM     27  C   UNL     1       3.880   6.634  17.473  0.00  0.00    +0.000 A 
ATOM     28  C   UNL     1       4.198   5.291  17.223  0.00  0.00    +0.000 A 
ATOM     29  F   UNL     1       5.117   5.008  16.286  0.00  0.00    +0.000 F 
ENDBRANCH  18  26
ENDBRANCH  17  19
ENDBRANCH   1  17
TORSDOF 3
ENDMDL
MODEL 7
REMARK VINA RESULT:      -6.9      2.704      4.141
REMARK  Name = 
REMARK  4 active torsions:
REMARK  status: ('A' for Active; 'I' for Inactive)
REMARK    1  A    between atoms: C_1  and  C_2
REMARK    2  A    between atoms: C_5  and  N_6
REMARK    3  A    between atoms: C_7  and  C_9
REMARK    4  A    between atoms: C_9  and  N_10
REMARK                            x       y       z     vdW  Elec       q    Type
REMARK                         _______ _______ _______ _____ _____    ______ ____
ROOT
ATOM      1  N   UNL     1      -0.193  10.831  19.360  0.00  0.00    +0.000 N 
ATOM      2  C   UNL     1      -1.444  11.196  18.800  0.00  0.00    +0.000 A 
ATOM      3  C   UNL     1      -1.835  10.857  17.496  0.00  0.00    +0.000 A 
ATOM      4  C   UNL     1      -3.115  11.182  17.009  0.00  0.00    +0.000 A 
ATOM      5  C   UNL     1      -4.037  11.850  17.812  0.00  0.00    +0.000 A 
ATOM      6  C   UNL     1      -3.684  12.195  19.108  0.00  0.00    +0.000 A 
ATOM      7  C   UNL     1      -2.404  11.866  19.571  0.00  0.00    +0.000 A 
ATOM      8  S   UNL     1      -1.958  12.258  21.228  0.00  0.00    +0.000 S 
ATOM      9  O   UNL     1      -3.153  12.101  22.037  0.00  0.00    +0.000 OA
ATOM     10  O   UNL     1      -1.224  13.509  21.196  0.00  0.00    +0.000 OA
ATOM     11  C   UNL     1      -0.836  11.008  21.711  0.00  0.00    +0.000 A 
ATOM     12  C   UNL     1      -0.799  10.592  23.043  0.00  0.00    +0.000 A 
ATOM     13  C   UNL     1       0.100   9.602  23.413  0.00  0.00    +0.000 A 
ATOM     14  C   UNL     1       0.956   9.056  22.459  0.00  0.00    +0.000 A 
ATOM     15  C   UNL     1       0.890   9.480  21.124  0.00  0.00    +0.000 A 
ATOM     16  C   UNL     1      -0.022  10.464  20.713  0.00  0.00    +0.000 A 
ENDROOT
BRANCH   1  17
ATOM     17  C   UNL     1       0.994  10.757  18.481  0.00  0.00    +0.000 C 
BRANCH  17  19
ATOM     18  N   UNL     1       2.497   8.815  18.296  0.00  0.00    +0.000 N 
ATOM     19  C   UNL     1       1.255   9.345  17.962  0.00  0.00    +0.000 C 
ATOM     20  O   UNL     1       0.363   8.765  17.337  0.00  0.00    +0.000 OA
ATOM     21  H   UNL     1       3.198   9.462  18.647  0.00  0.00    +0.000 HD
BRANCH  18  26
ATOM     22  C   UNL     1       4.369   3.508  17.164  0.00  0.00    +0.000 C 
ATOM     23  C   UNL     1       3.857   4.891  17.419  0.00  0.00    +0.000 A 
ATOM     24  C   UNL     1       4.581   5.997  16.983  0.00  0.00    +0.000 A 
ATOM     25  C   UNL     1       4.117   7.288  17.240  0.00  0.00    +0.000 A 
ATOM     26  C   UNL     1       2.939   7.512  17.957  0.00  0.00    +0.000 A 
ATOM     27  C   UNL     1       2.183   6.405  18.358  0.00  0.00    +0.000 A 
ATOM     28  C   UNL     1       2.654   5.111  18.094  0.00  0.00    +0.000 A 
ATOM     29  F   UNL     1       1.933   4.061  18.517  0.00  0.00    +0.000 F 
ENDBRANCH  18  26
ENDBRANCH  17  19
ENDBRANCH   1  17
TORSDOF 3
ENDMDL
MODEL 8
REMARK VINA RESULT:      -6.9      2.444      3.641
REMARK  Name = 
REMARK  4 active torsions:
REMARK  status: ('A' for Active; 'I' for Inactive)
REMARK    1  A    between atoms: C_1  and  C_2
REMARK    2  A    between atoms: C_5  and  N_6
REMARK    3  A    between atoms: C_7  and  C_9
REMARK    4  A    between atoms: C_9  and  N_10
REMARK                            x       y       z     vdW  Elec       q    Type
REMARK                         _______ _______ _______ _____ _____    ______ ____
ROOT
ATOM      1  N   UNL     1       0.671  10.790  18.400  0.00  0.00    +0.000 N 
ATOM      2  C   UNL     1       1.164  11.900  19.132  0.00  0.00    +0.000 A 
ATOM      3  C   UNL     1       2.321  12.609  18.776  0.00  0.00    +0.000 A 
ATOM      4  C   UNL     1       2.733  13.748  19.493  0.00  0.00    +0.000 A 
ATOM      5  C   UNL     1       1.997  14.210  20.582  0.00  0.00    +0.000 A 
ATOM      6  C   UNL     1       0.844  13.536  20.958  0.00  0.00    +0.000 A 
ATOM      7  C   UNL     1       0.456  12.402  20.233  0.00  0.00    +0.000 A 
ATOM      8  S   UNL     1      -1.028  11.564  20.671  0.00  0.00    +0.000 S 
ATOM      9  O   UNL     1      -1.970  12.574  21.117  0.00  0.00    +0.000 OA
ATOM     10  O   UNL     1      -0.661  10.444  21.516  0.00  0.00    +0.000 OA
ATOM     11  C   UNL     1      -1.644  10.906  19.174  0.00  0.00    +0.000 A 
ATOM     12  C   UNL     1      -3.023  10.791  18.986  0.00  0.00    +0.000 A 
ATOM     13  C   UNL     1      -3.497  10.262  17.794  0.00  0.00    +0.000 A 
ATOM     14  C   UNL     1      -2.596   9.842  16.819  0.00  0.00    +0.000 A 
ATOM     15  C   UNL     1      -1.216   9.981  17.024  0.00  0.00    +0.000 A 
ATOM     16  C   UNL     1      -0.704  10.532  18.209  0.00  0.00    +0.000 A 
ENDROOT
BRANCH   1  17
ATOM     17  C   UNL     1       1.632   9.883  17.737  0.00  0.00    +0.000 C 
BRANCH  17  19
ATOM     18  N   UNL     1       2.407   7.546  17.765  0.00  0.00    +0.000 N 
ATOM     19  C   UNL     1       1.834   8.577  18.502  0.00  0.00    +0.000 C 
ATOM     20  O   UNL     1       1.528   8.533  19.696  0.00  0.00    +0.000 OA
ATOM     21  H   UNL     1       2.434   7.657  16.755  0.00  0.00    +0.000 HD
BRANCH  18  26
ATOM     22  C   UNL     1       3.519   2.392  20.035  0.00  0.00    +0.000 C 
ATOM     23  C   UNL     1       3.251   3.722  19.404  0.00  0.00    +0.000 A 
ATOM     24  C   UNL     1       4.167   4.761  19.542  0.00  0.00    +0.000 A 
ATOM     25  C   UNL     1       3.907   6.009  18.974  0.00  0.00    +0.000 A 
ATOM     26  C   UNL     1       2.722   6.263  18.278  0.00  0.00    +0.000 A 
ATOM     27  C   UNL     1       1.818   5.210  18.095  0.00  0.00    +0.000 A 
ATOM     28  C   UNL     1       2.088   3.958  18.667  0.00  0.00    +0.000 A 
ATOM     29  F   UNL     1       1.192   2.970  18.511  0.00  0.00    +0.000 F 
ENDBRANCH  18  26
ENDBRANCH  17  19
ENDBRANCH   1  17
TORSDOF 3
ENDMDL
MODEL 9
REMARK VINA RESULT:      -6.9      2.504      3.536
REMARK  Name = 
REMARK  4 active torsions:
REMARK  status: ('A' for Active; 'I' for Inactive)
REMARK    1  A    between atoms: C_1  and  C_2
REMARK    2  A    between atoms: C_5  and  N_6
REMARK    3  A    between atoms: C_7  and  C_9
REMARK    4  A    between atoms: C_9  and  N_10
REMARK                            x       y       z     vdW  Elec       q    Type
REMARK                         _______ _______ _______ _____ _____    ______ ____
ROOT
ATOM      1  N   UNL     1       0.597  10.954  21.590  0.00  0.00    +0.000 N 
ATOM      2  C   UNL     1       1.159  11.333  20.344  0.00  0.00    +0.000 A 
ATOM      3  C   UNL     1       1.562  10.412  19.366  0.00  0.00    +0.000 A 
ATOM      4  C   UNL     1       2.049  10.837  18.116  0.00  0.00    +0.000 A 
ATOM      5  C   UNL     1       2.143  12.194  17.810  0.00  0.00    +0.000 A 
ATOM      6  C   UNL     1       1.748  13.131  18.753  0.00  0.00    +0.000 A 
ATOM      7  C   UNL     1       1.270  12.685  19.992  0.00  0.00    +0.000 A 
ATOM      8  S   UNL     1       0.723  13.863  21.179  0.00  0.00    +0.000 S 
ATOM      9  O   UNL     1       0.109  14.954  20.444  0.00  0.00    +0.000 OA
ATOM     10  O   UNL     1       1.820  14.092  22.101  0.00  0.00    +0.000 OA
ATOM     11  C   UNL     1      -0.547  13.060  22.073  0.00  0.00    +0.000 A 
ATOM     12  C   UNL     1      -1.614  13.806  22.576  0.00  0.00    +0.000 A 
ATOM     13  C   UNL     1      -2.612  13.155  23.288  0.00  0.00    +0.000 A 
ATOM     14  C   UNL     1      -2.524  11.782  23.500  0.00  0.00    +0.000 A 
ATOM     15  C   UNL     1      -1.450  11.052  22.972  0.00  0.00    +0.000 A 
ATOM     16  C   UNL     1      -0.436  11.675  22.230  0.00  0.00    +0.000 A 
ENDROOT
BRANCH   1  17
ATOM     17  C   UNL     1       1.054   9.704  22.234  0.00  0.00    +0.000 C 
BRANCH  17  19
ATOM     18  N   UNL     1       1.902   7.774  20.962  0.00  0.00    +0.000 N 
ATOM     19  C   UNL     1       0.773   8.467  21.384  0.00  0.00    +0.000 C 
ATOM     20  O   UNL     1      -0.399   8.145  21.170  0.00  0.00    +0.000 OA
ATOM     21  H   UNL     1       2.796   8.249  21.048  0.00  0.00    +0.000 HD
BRANCH  18  26
ATOM     22  C   UNL     1       2.025   2.858  17.999  0.00  0.00    +0.000 C 
ATOM     23  C   UNL     1       1.949   4.148  18.756  0.00  0.00    +0.000 A 
ATOM     24  C   UNL     1       2.373   5.334  18.163  0.00  0.00    +0.000 A 
ATOM     25  C   UNL     1       2.326   6.533  18.875  0.00  0.00    +0.000 A 
ATOM     26  C   UNL     1       1.880   6.580  20.199  0.00  0.00    +0.000 A 
ATOM     27  C   UNL     1       1.410   5.400  20.785  0.00  0.00    +0.000 A 
ATOM     28  C   UNL     1       1.458   4.199  20.063  0.00  0.00    +0.000 A 
ATOM     29  F   UNL     1       1.035   3.071  20.654  0.00  0.00    +0.000 F 
ENDBRANCH  18  26
ENDBRANCH  17  19
ENDBRANCH   1  17
TORSDOF 3
ENDMDL
