MODEL 1
REMARK VINA RESULT:      -7.4      0.000      0.000
REMARK  Name = 
REMARK  4 active torsions:
REMARK  status: ('A' for Active; 'I' for Inactive)
REMARK    1  A    between atoms: C_2  and  O_3
REMARK    2  A    between atoms: C_2  and  C_4
REMARK    3  A    between atoms: C_8  and  S_9
REMARK    4  A    between atoms: C_20  and  C_21
REMARK                            x       y       z     vdW  Elec       q    Type
REMARK                         _______ _______ _______ _____ _____    ______ ____
ROOT
ATOM      1  C   UNL     1       6.305   5.342  16.769  0.00  0.00    +0.000 C 
ATOM      2  C   UNL     1       5.480   4.507  17.420  0.00  0.00    +0.000 C 
ATOM      3  C   UNL     1       4.303   4.997  18.108  0.00  0.00    +0.000 A 
ATOM      4  C   UNL     1       3.535   4.119  18.866  0.00  0.00    +0.000 A 
ATOM      5  C   UNL     1       2.409   4.581  19.552  0.00  0.00    +0.000 A 
ATOM      6  C   UNL     1       2.052   5.944  19.422  0.00  0.00    +0.000 A 
ATOM      7  C   UNL     1       2.830   6.821  18.658  0.00  0.00    +0.000 A 
ATOM      8 BR   UNL     1       2.336   8.667  18.535  0.00  0.00    +0.000 Br
ATOM      9  C   UNL     1       3.972   6.346  18.011  0.00  0.00    +0.000 A 
ATOM     10  O   UNL     1       4.765   7.184  17.304  0.00  0.00    +0.000 OA
ATOM     11  C   UNL     1       5.998   6.860  16.739  0.00  0.00    +0.000 C 
ENDROOT
BRANCH   5  12
ATOM     12  S   UNL     1       1.457   3.451  20.617  0.00  0.00    +0.000 S 
ATOM     13  F   UNL     1       0.637   2.780  19.269  0.00  0.00    +0.000 F 
ATOM     14  F   UNL     1       0.231   4.641  20.733  0.00  0.00    +0.000 F 
ATOM     15  F   UNL     1       0.542   2.402  21.609  0.00  0.00    +0.000 F 
ATOM     16  F   UNL     1       2.247   4.066  22.005  0.00  0.00    +0.000 F 
ATOM     17  F   UNL     1       2.676   2.257  20.490  0.00  0.00    +0.000 F 
ENDBRANCH   5  12
BRANCH  11  18
ATOM     18  C   UNL     1       7.077   7.723  17.448  0.00  0.00    +0.000 C 
ATOM     19  F   UNL     1       6.597   8.984  17.752  0.00  0.00    +0.000 F 
ATOM     20  F   UNL     1       7.510   7.112  18.614  0.00  0.00    +0.000 F 
ATOM     21  F   UNL     1       8.181   7.879  16.625  0.00  0.00    +0.000 F 
ENDBRANCH  11  18
BRANCH   1  23
ATOM     22  O   UNL     1       8.273   4.037  16.716  0.00  0.00    +0.000 OA
ATOM     23  C   UNL     1       7.499   4.744  16.086  0.00  0.00    +0.000 C 
BRANCH  23  24
ATOM     24  O   UNL     1       7.768   4.972  14.786  0.00  0.00    +0.000 OA
ATOM     25  H   UNL     1       7.087   5.184  14.139  0.00  0.00    +0.000 HD
ENDBRANCH  23  24
ENDBRANCH   1  23
TORSDOF 4
ENDMDL
MODEL 2
REMARK VINA RESULT:      -7.4      0.162      1.026
REMARK  Name = 
REMARK  4 active torsions:
REMARK  status: ('A' for Active; 'I' for Inactive)
REMARK    1  A    between atoms: C_2  and  O_3
REMARK    2  A    between atoms: C_2  and  C_4
REMARK    3  A    between atoms: C_8  and  S_9
REMARK    4  A    between atoms: C_20  and  C_21
REMARK                            x       y       z     vdW  Elec       q    Type
REMARK                         _______ _______ _______ _____ _____    ______ ____
ROOT
ATOM      1  C   UNL     1       6.296   5.223  16.882  0.00  0.00    +0.000 C 
ATOM      2  C   UNL     1       5.467   4.411  17.556  0.00  0.00    +0.000 C 
ATOM      3  C   UNL     1       4.270   4.920  18.195  0.00  0.00    +0.000 A 
ATOM      4  C   UNL     1       3.496   4.072  18.980  0.00  0.00    +0.000 A 
ATOM      5  C   UNL     1       2.351   4.553  19.619  0.00  0.00    +0.000 A 
ATOM      6  C   UNL     1       1.983   5.903  19.415  0.00  0.00    +0.000 A 
ATOM      7  C   UNL     1       2.766   6.751  18.624  0.00  0.00    +0.000 A 
ATOM      8 BR   UNL     1       2.254   8.583  18.400  0.00  0.00    +0.000 Br
ATOM      9  C   UNL     1       3.927   6.258  18.024  0.00  0.00    +0.000 A 
ATOM     10  O   UNL     1       4.725   7.070  17.293  0.00  0.00    +0.000 OA
ATOM     11  C   UNL     1       5.973   6.734  16.770  0.00  0.00    +0.000 C 
ENDROOT
BRANCH   5  12
ATOM     12  S   UNL     1       1.390   3.465  20.720  0.00  0.00    +0.000 S 
ATOM     13  F   UNL     1       0.529   2.794  19.398  0.00  0.00    +0.000 F 
ATOM     14  F   UNL     1       0.197   4.689  20.836  0.00  0.00    +0.000 F 
ATOM     15  F   UNL     1       0.467   2.457  21.745  0.00  0.00    +0.000 F 
ATOM     16  F   UNL     1       2.220   4.083  22.083  0.00  0.00    +0.000 F 
ATOM     17  F   UNL     1       2.576   2.239  20.592  0.00  0.00    +0.000 F 
ENDBRANCH   5  12
BRANCH  11  18
ATOM     18  C   UNL     1       7.027   7.643  17.457  0.00  0.00    +0.000 C 
ATOM     19  F   UNL     1       8.135   7.833  16.649  0.00  0.00    +0.000 F 
ATOM     20  F   UNL     1       6.484   8.879  17.773  0.00  0.00    +0.000 F 
ATOM     21  F   UNL     1       7.461   7.064  18.638  0.00  0.00    +0.000 F 
ENDBRANCH  11  18
BRANCH   1  23
ATOM     22  O   UNL     1       7.694   4.713  15.048  0.00  0.00    +0.000 OA
ATOM     23  C   UNL     1       7.510   4.606  16.253  0.00  0.00    +0.000 C 
BRANCH  23  24
ATOM     24  O   UNL     1       8.414   3.913  16.971  0.00  0.00    +0.000 OA
ATOM     25  H   UNL     1       8.490   2.955  16.932  0.00  0.00    +0.000 HD
ENDBRANCH  23  24
ENDBRANCH   1  23
TORSDOF 4
ENDMDL
MODEL 3
REMARK VINA RESULT:      -7.4      0.086      1.275
REMARK  Name = 
REMARK  4 active torsions:
REMARK  status: ('A' for Active; 'I' for Inactive)
REMARK    1  A    between atoms: C_2  and  O_3
REMARK    2  A    between atoms: C_2  and  C_4
REMARK    3  A    between atoms: C_8  and  S_9
REMARK    4  A    between atoms: C_20  and  C_21
REMARK                            x       y       z     vdW  Elec       q    Type
REMARK                         _______ _______ _______ _____ _____    ______ ____
ROOT
ATOM      1  C   UNL     1       6.300   5.267  16.774  0.00  0.00    +0.000 C 
ATOM      2  C   UNL     1       5.472   4.447  17.442  0.00  0.00    +0.000 C 
ATOM      3  C   UNL     1       4.290   4.952  18.110  0.00  0.00    +0.000 A 
ATOM      4  C   UNL     1       3.519   4.093  18.886  0.00  0.00    +0.000 A 
ATOM      5  C   UNL     1       2.388   4.569  19.553  0.00  0.00    +0.000 A 
ATOM      6  C   UNL     1       2.030   5.927  19.386  0.00  0.00    +0.000 A 
ATOM      7  C   UNL     1       2.810   6.787  18.604  0.00  0.00    +0.000 A 
ATOM      8 BR   UNL     1       2.312   8.628  18.429  0.00  0.00    +0.000 Br
ATOM      9  C   UNL     1       3.957   6.297  17.975  0.00  0.00    +0.000 A 
ATOM     10  O   UNL     1       4.752   7.119  17.251  0.00  0.00    +0.000 OA
ATOM     11  C   UNL     1       5.989   6.783  16.702  0.00  0.00    +0.000 C 
ENDROOT
BRANCH   5  12
ATOM     12  S   UNL     1       1.433   3.465  20.642  0.00  0.00    +0.000 S 
ATOM     13  F   UNL     1       2.624   2.236  20.533  0.00  0.00    +0.000 F 
ATOM     14  F   UNL     1       0.671   2.808  19.257  0.00  0.00    +0.000 F 
ATOM     15  F   UNL     1       0.535   2.412  21.645  0.00  0.00    +0.000 F 
ATOM     16  F   UNL     1       0.213   4.654  20.805  0.00  0.00    +0.000 F 
ATOM     17  F   UNL     1       2.206   4.113  22.025  0.00  0.00    +0.000 F 
ENDBRANCH   5  12
BRANCH  11  18
ATOM     18  C   UNL     1       7.062   7.666  17.394  0.00  0.00    +0.000 C 
ATOM     19  F   UNL     1       8.192   7.799  16.608  0.00  0.00    +0.000 F 
ATOM     20  F   UNL     1       6.559   8.927  17.675  0.00  0.00    +0.000 F 
ATOM     21  F   UNL     1       7.449   7.095  18.596  0.00  0.00    +0.000 F 
ENDBRANCH  11  18
BRANCH   1  23
ATOM     22  O   UNL     1       8.334   4.069  16.787  0.00  0.00    +0.000 OA
ATOM     23  C   UNL     1       7.498   4.654  16.113  0.00  0.00    +0.000 C 
BRANCH  23  24
ATOM     24  O   UNL     1       7.704   4.738  14.785  0.00  0.00    +0.000 OA
ATOM     25  H   UNL     1       8.320   4.168  14.313  0.00  0.00    +0.000 HD
ENDBRANCH  23  24
ENDBRANCH   1  23
TORSDOF 4
ENDMDL
MODEL 4
REMARK VINA RESULT:      -7.4      0.050      1.265
REMARK  Name = 
REMARK  4 active torsions:
REMARK  status: ('A' for Active; 'I' for Inactive)
REMARK    1  A    between atoms: C_2  and  O_3
REMARK    2  A    between atoms: C_2  and  C_4
REMARK    3  A    between atoms: C_8  and  S_9
REMARK    4  A    between atoms: C_20  and  C_21
REMARK                            x       y       z     vdW  Elec       q    Type
REMARK                         _______ _______ _______ _____ _____    ______ ____
ROOT
ATOM      1  C   UNL     1       6.331   5.351  16.742  0.00  0.00    +0.000 C 
ATOM      2  C   UNL     1       5.507   4.514  17.393  0.00  0.00    +0.000 C 
ATOM      3  C   UNL     1       4.324   5.001  18.073  0.00  0.00    +0.000 A 
ATOM      4  C   UNL     1       3.557   4.122  18.831  0.00  0.00    +0.000 A 
ATOM      5  C   UNL     1       2.425   4.581  19.510  0.00  0.00    +0.000 A 
ATOM      6  C   UNL     1       2.063   5.941  19.373  0.00  0.00    +0.000 A 
ATOM      7  C   UNL     1       2.839   6.820  18.609  0.00  0.00    +0.000 A 
ATOM      8 BR   UNL     1       2.336   8.663  18.476  0.00  0.00    +0.000 Br
ATOM      9  C   UNL     1       3.987   6.348  17.969  0.00  0.00    +0.000 A 
ATOM     10  O   UNL     1       4.779   7.187  17.262  0.00  0.00    +0.000 OA
ATOM     11  C   UNL     1       6.016   6.868  16.704  0.00  0.00    +0.000 C 
ENDROOT
BRANCH   5  12
ATOM     12  S   UNL     1       1.475   3.450  20.576  0.00  0.00    +0.000 S 
ATOM     13  F   UNL     1       0.210   4.594  20.755  0.00  0.00    +0.000 F 
ATOM     14  F   UNL     1       2.248   4.136  21.941  0.00  0.00    +0.000 F 
ATOM     15  F   UNL     1       0.584   2.407  21.595  0.00  0.00    +0.000 F 
ATOM     16  F   UNL     1       2.694   2.258  20.428  0.00  0.00    +0.000 F 
ATOM     17  F   UNL     1       0.693   2.775  19.211  0.00  0.00    +0.000 F 
ENDBRANCH   5  12
BRANCH  11  18
ATOM     18  C   UNL     1       7.087   7.739  17.415  0.00  0.00    +0.000 C 
ATOM     19  F   UNL     1       8.210   7.906  16.623  0.00  0.00    +0.000 F 
ATOM     20  F   UNL     1       6.576   8.985  17.739  0.00  0.00    +0.000 F 
ATOM     21  F   UNL     1       7.489   7.134  18.595  0.00  0.00    +0.000 F 
ENDBRANCH  11  18
BRANCH   1  23
ATOM     22  O   UNL     1       8.294   4.039  16.698  0.00  0.00    +0.000 OA
ATOM     23  C   UNL     1       7.531   4.757  16.067  0.00  0.00    +0.000 C 
BRANCH  23  24
ATOM     24  O   UNL     1       7.817   4.999  14.773  0.00  0.00    +0.000 OA
ATOM     25  H   UNL     1       8.637   5.411  14.486  0.00  0.00    +0.000 HD
ENDBRANCH  23  24
ENDBRANCH   1  23
TORSDOF 4
ENDMDL
MODEL 5
REMARK VINA RESULT:      -7.2      3.488      4.825
REMARK  Name = 
REMARK  4 active torsions:
REMARK  status: ('A' for Active; 'I' for Inactive)
REMARK    1  A    between atoms: C_2  and  O_3
REMARK    2  A    between atoms: C_2  and  C_4
REMARK    3  A    between atoms: C_8  and  S_9
REMARK    4  A    between atoms: C_20  and  C_21
REMARK                            x       y       z     vdW  Elec       q    Type
REMARK                         _______ _______ _______ _____ _____    ______ ____
ROOT
ATOM      1  C   UNL     1       4.623   6.127  17.340  0.00  0.00    +0.000 C 
ATOM      2  C   UNL     1       3.922   7.130  17.893  0.00  0.00    +0.000 C 
ATOM      3  C   UNL     1       3.032   6.897  19.012  0.00  0.00    +0.000 A 
ATOM      4  C   UNL     1       2.238   7.936  19.486  0.00  0.00    +0.000 A 
ATOM      5  C   UNL     1       1.359   7.723  20.550  0.00  0.00    +0.000 A 
ATOM      6  C   UNL     1       1.328   6.443  21.152  0.00  0.00    +0.000 A 
ATOM      7  C   UNL     1       2.130   5.402  20.671  0.00  0.00    +0.000 A 
ATOM      8 BR   UNL     1       2.036   3.673  21.490  0.00  0.00    +0.000 Br
ATOM      9  C   UNL     1       2.975   5.628  19.582  0.00  0.00    +0.000 A 
ATOM     10  O   UNL     1       3.725   4.625  19.069  0.00  0.00    +0.000 OA
ATOM     11  C   UNL     1       4.491   4.690  17.905  0.00  0.00    +0.000 C 
ENDROOT
BRANCH   5  12
ATOM     12  S   UNL     1       0.253   9.058  21.109  0.00  0.00    +0.000 S 
ATOM     13  F   UNL     1       0.869   8.974  22.707  0.00  0.00    +0.000 F 
ATOM     14  F   UNL     1      -0.913   7.876  21.528  0.00  0.00    +0.000 F 
ATOM     15  F   UNL     1      -0.795  10.294  21.650  0.00  0.00    +0.000 F 
ATOM     16  F   UNL     1      -0.396   9.204  19.532  0.00  0.00    +0.000 F 
ATOM     17  F   UNL     1       1.425  10.237  20.702  0.00  0.00    +0.000 F 
ENDBRANCH   5  12
BRANCH  11  18
ATOM     18  C   UNL     1       3.886   3.681  16.892  0.00  0.00    +0.000 C 
ATOM     19  F   UNL     1       4.469   3.806  15.644  0.00  0.00    +0.000 F 
ATOM     20  F   UNL     1       4.048   2.378  17.336  0.00  0.00    +0.000 F 
ATOM     21  F   UNL     1       2.526   3.906  16.747  0.00  0.00    +0.000 F 
ENDBRANCH  11  18
BRANCH   1  23
ATOM     22  O   UNL     1       5.043   6.901  15.149  0.00  0.00    +0.000 OA
ATOM     23  C   UNL     1       5.520   6.462  16.186  0.00  0.00    +0.000 C 
BRANCH  23  24
ATOM     24  O   UNL     1       6.853   6.281  16.240  0.00  0.00    +0.000 OA
ATOM     25  H   UNL     1       7.271   5.631  16.813  0.00  0.00    +0.000 HD
ENDBRANCH  23  24
ENDBRANCH   1  23
TORSDOF 4
ENDMDL
MODEL 6
REMARK VINA RESULT:      -7.2      4.290      6.914
REMARK  Name = 
REMARK  4 active torsions:
REMARK  status: ('A' for Active; 'I' for Inactive)
REMARK    1  A    between atoms: C_2  and  O_3
REMARK    2  A    between atoms: C_2  and  C_4
REMARK    3  A    between atoms: C_8  and  S_9
REMARK    4  A    between atoms: C_20  and  C_21
REMARK                            x       y       z     vdW  Elec       q    Type
REMARK                         _______ _______ _______ _____ _____    ______ ____
ROOT
ATOM      1  C   UNL     1       0.936   9.706  19.022  0.00  0.00    +0.000 C 
ATOM      2  C   UNL     1       1.849   9.264  18.143  0.00  0.00    +0.000 C 
ATOM      3  C   UNL     1       2.506   7.984  18.320  0.00  0.00    +0.000 A 
ATOM      4  C   UNL     1       3.527   7.610  17.452  0.00  0.00    +0.000 A 
ATOM      5  C   UNL     1       4.184   6.389  17.623  0.00  0.00    +0.000 A 
ATOM      6  C   UNL     1       3.758   5.535  18.666  0.00  0.00    +0.000 A 
ATOM      7  C   UNL     1       2.729   5.917  19.535  0.00  0.00    +0.000 A 
ATOM      8 BR   UNL     1       2.203   4.748  20.958  0.00  0.00    +0.000 Br
ATOM      9  C   UNL     1       2.111   7.159  19.369  0.00  0.00    +0.000 A 
ATOM     10  O   UNL     1       1.146   7.570  20.224  0.00  0.00    +0.000 OA
ATOM     11  C   UNL     1       0.562   8.836  20.248  0.00  0.00    +0.000 C 
ENDROOT
BRANCH   5  12
ATOM     12  S   UNL     1       5.582   5.942  16.544  0.00  0.00    +0.000 S 
ATOM     13  F   UNL     1       4.758   4.558  15.956  0.00  0.00    +0.000 F 
ATOM     14  F   UNL     1       6.217   4.986  17.816  0.00  0.00    +0.000 F 
ATOM     15  F   UNL     1       6.896   5.500  15.546  0.00  0.00    +0.000 F 
ATOM     16  F   UNL     1       6.455   7.313  17.078  0.00  0.00    +0.000 F 
ATOM     17  F   UNL     1       4.939   6.886  15.270  0.00  0.00    +0.000 F 
ENDBRANCH   5  12
BRANCH  11  18
ATOM     18  C   UNL     1       0.929   9.493  21.606  0.00  0.00    +0.000 C 
ATOM     19  F   UNL     1       1.837   8.724  22.311  0.00  0.00    +0.000 F 
ATOM     20  F   UNL     1       1.463  10.758  21.415  0.00  0.00    +0.000 F 
ATOM     21  F   UNL     1      -0.205   9.634  22.391  0.00  0.00    +0.000 F 
ENDBRANCH  11  18
BRANCH   1  23
ATOM     22  O   UNL     1      -0.868  11.230  19.035  0.00  0.00    +0.000 OA
ATOM     23  C   UNL     1       0.308  11.042  18.756  0.00  0.00    +0.000 C 
BRANCH  23  24
ATOM     24  O   UNL     1       0.995  12.057  18.199  0.00  0.00    +0.000 OA
ATOM     25  H   UNL     1       0.703  12.973  18.240  0.00  0.00    +0.000 HD
ENDBRANCH  23  24
ENDBRANCH   1  23
TORSDOF 4
ENDMDL
MODEL 7
REMARK VINA RESULT:      -7.2      3.495      4.829
REMARK  Name = 
REMARK  4 active torsions:
REMARK  status: ('A' for Active; 'I' for Inactive)
REMARK    1  A    between atoms: C_2  and  O_3
REMARK    2  A    between atoms: C_2  and  C_4
REMARK    3  A    between atoms: C_8  and  S_9
REMARK    4  A    between atoms: C_20  and  C_21
REMARK                            x       y       z     vdW  Elec       q    Type
REMARK                         _______ _______ _______ _____ _____    ______ ____
ROOT
ATOM      1  C   UNL     1       4.587   6.099  17.289  0.00  0.00    +0.000 C 
ATOM      2  C   UNL     1       3.893   7.107  17.841  0.00  0.00    +0.000 C 
ATOM      3  C   UNL     1       3.020   6.886  18.976  0.00  0.00    +0.000 A 
ATOM      4  C   UNL     1       2.231   7.929  19.449  0.00  0.00    +0.000 A 
ATOM      5  C   UNL     1       1.369   7.727  20.529  0.00  0.00    +0.000 A 
ATOM      6  C   UNL     1       1.352   6.455  21.148  0.00  0.00    +0.000 A 
ATOM      7  C   UNL     1       2.149   5.410  20.668  0.00  0.00    +0.000 A 
ATOM      8 BR   UNL     1       2.073   3.691  21.510  0.00  0.00    +0.000 Br
ATOM      9  C   UNL     1       2.976   5.625  19.563  0.00  0.00    +0.000 A 
ATOM     10  O   UNL     1       3.721   4.618  19.051  0.00  0.00    +0.000 OA
ATOM     11  C   UNL     1       4.468   4.670  17.875  0.00  0.00    +0.000 C 
ENDROOT
BRANCH   5  12
ATOM     12  S   UNL     1       0.268   9.066  21.088  0.00  0.00    +0.000 S 
ATOM     13  F   UNL     1       1.417  10.265  20.659  0.00  0.00    +0.000 F 
ATOM     14  F   UNL     1       0.991   8.972  22.638  0.00  0.00    +0.000 F 
ATOM     15  F   UNL     1      -0.746  10.330  21.631  0.00  0.00    +0.000 F 
ATOM     16  F   UNL     1      -0.928   7.924  21.527  0.00  0.00    +0.000 F 
ATOM     17  F   UNL     1      -0.443   9.169  19.536  0.00  0.00    +0.000 F 
ENDBRANCH   5  12
BRANCH  11  18
ATOM     18  C   UNL     1       3.851   3.646  16.885  0.00  0.00    +0.000 C 
ATOM     19  F   UNL     1       2.483   3.818  16.767  0.00  0.00    +0.000 F 
ATOM     20  F   UNL     1       4.429   3.761  15.630  0.00  0.00    +0.000 F 
ATOM     21  F   UNL     1       4.077   2.354  17.330  0.00  0.00    +0.000 F 
ENDBRANCH  11  18
BRANCH   1  23
ATOM     22  O   UNL     1       5.002   7.012  15.151  0.00  0.00    +0.000 OA
ATOM     23  C   UNL     1       5.466   6.422  16.117  0.00  0.00    +0.000 C 
BRANCH  23  24
ATOM     24  O   UNL     1       6.764   6.069  16.077  0.00  0.00    +0.000 OA
ATOM     25  H   UNL     1       7.344   6.284  15.339  0.00  0.00    +0.000 HD
ENDBRANCH  23  24
ENDBRANCH   1  23
TORSDOF 4
ENDMDL
MODEL 8
REMARK VINA RESULT:      -7.2      3.631      4.901
REMARK  Name = 
REMARK  4 active torsions:
REMARK  status: ('A' for Active; 'I' for Inactive)
REMARK    1  A    between atoms: C_2  and  O_3
REMARK    2  A    between atoms: C_2  and  C_4
REMARK    3  A    between atoms: C_8  and  S_9
REMARK    4  A    between atoms: C_20  and  C_21
REMARK                            x       y       z     vdW  Elec       q    Type
REMARK                         _______ _______ _______ _____ _____    ______ ____
ROOT
ATOM      1  C   UNL     1       5.307   5.881  16.870  0.00  0.00    +0.000 C 
ATOM      2  C   UNL     1       4.626   7.031  16.996  0.00  0.00    +0.000 C 
ATOM      3  C   UNL     1       3.578   7.179  17.985  0.00  0.00    +0.000 A 
ATOM      4  C   UNL     1       2.818   8.345  18.011  0.00  0.00    +0.000 A 
ATOM      5  C   UNL     1       1.790   8.495  18.945  0.00  0.00    +0.000 A 
ATOM      6  C   UNL     1       1.573   7.456  19.880  0.00  0.00    +0.000 A 
ATOM      7  C   UNL     1       2.341   6.286  19.849  0.00  0.00    +0.000 A 
ATOM      8 BR   UNL     1       1.994   4.886  21.109  0.00  0.00    +0.000 Br
ATOM      9  C   UNL     1       3.339   6.143  18.882  0.00  0.00    +0.000 A 
ATOM     10  O   UNL     1       4.064   5.002  18.802  0.00  0.00    +0.000 OA
ATOM     11  C   UNL     1       4.980   4.685  17.800  0.00  0.00    +0.000 C 
ENDROOT
BRANCH   5  12
ATOM     12  S   UNL     1       0.737   9.980  18.919  0.00  0.00    +0.000 S 
ATOM     13  F   UNL     1      -0.066   9.454  17.498  0.00  0.00    +0.000 F 
ATOM     14  F   UNL     1       1.906  10.755  17.936  0.00  0.00    +0.000 F 
ATOM     15  F   UNL     1      -0.242  11.380  18.871  0.00  0.00    +0.000 F 
ATOM     16  F   UNL     1       1.487  10.558  20.345  0.00  0.00    +0.000 F 
ATOM     17  F   UNL     1      -0.437   9.200  19.890  0.00  0.00    +0.000 F 
ENDBRANCH   5  12
BRANCH  11  18
ATOM     18  C   UNL     1       4.433   3.445  17.043  0.00  0.00    +0.000 C 
ATOM     19  F   UNL     1       5.366   2.942  16.154  0.00  0.00    +0.000 F 
ATOM     20  F   UNL     1       4.071   2.444  17.930  0.00  0.00    +0.000 F 
ATOM     21  F   UNL     1       3.303   3.788  16.318  0.00  0.00    +0.000 F 
ENDBRANCH  11  18
BRANCH   1  23
ATOM     22  O   UNL     1       7.531   6.094  16.106  0.00  0.00    +0.000 OA
ATOM     23  C   UNL     1       6.375   5.819  15.818  0.00  0.00    +0.000 C 
BRANCH  23  24
ATOM     24  O   UNL     1       6.105   5.483  14.542  0.00  0.00    +0.000 OA
ATOM     25  H   UNL     1       6.184   6.103  13.810  0.00  0.00    +0.000 HD
ENDBRANCH  23  24
ENDBRANCH   1  23
TORSDOF 4
ENDMDL
MODEL 9
REMARK VINA RESULT:      -7.2      4.334      6.917
REMARK  Name = 
REMARK  4 active torsions:
REMARK  status: ('A' for Active; 'I' for Inactive)
REMARK    1  A    between atoms: C_2  and  O_3
REMARK    2  A    between atoms: C_2  and  C_4
REMARK    3  A    between atoms: C_8  and  S_9
REMARK    4  A    between atoms: C_20  and  C_21
REMARK                            x       y       z     vdW  Elec       q    Type
REMARK                         _______ _______ _______ _____ _____    ______ ____
ROOT
ATOM      1  C   UNL     1       0.931   9.819  19.005  0.00  0.00    +0.000 C 
ATOM      2  C   UNL     1       1.837   9.358  18.127  0.00  0.00    +0.000 C 
ATOM      3  C   UNL     1       2.491   8.081  18.323  0.00  0.00    +0.000 A 
ATOM      4  C   UNL     1       3.505   7.688  17.454  0.00  0.00    +0.000 A 
ATOM      5  C   UNL     1       4.161   6.469  17.642  0.00  0.00    +0.000 A 
ATOM      6  C   UNL     1       3.741   5.635  18.705  0.00  0.00    +0.000 A 
ATOM      7  C   UNL     1       2.720   6.036  19.574  0.00  0.00    +0.000 A 
ATOM      8 BR   UNL     1       2.203   4.895  21.023  0.00  0.00    +0.000 Br
ATOM      9  C   UNL     1       2.104   7.275  19.390  0.00  0.00    +0.000 A 
ATOM     10  O   UNL     1       1.147   7.705  20.244  0.00  0.00    +0.000 OA
ATOM     11  C   UNL     1       0.565   8.973  20.250  0.00  0.00    +0.000 C 
ENDROOT
BRANCH   5  12
ATOM     12  S   UNL     1       5.549   5.998  16.561  0.00  0.00    +0.000 S 
ATOM     13  F   UNL     1       6.250   5.030  17.790  0.00  0.00    +0.000 F 
ATOM     14  F   UNL     1       6.429   7.340  17.159  0.00  0.00    +0.000 F 
ATOM     15  F   UNL     1       6.868   5.568  15.564  0.00  0.00    +0.000 F 
ATOM     16  F   UNL     1       4.897   6.936  15.286  0.00  0.00    +0.000 F 
ATOM     17  F   UNL     1       4.673   4.650  15.975  0.00  0.00    +0.000 F 
ENDBRANCH   5  12
BRANCH  11  18
ATOM     18  C   UNL     1       0.944   9.654  21.592  0.00  0.00    +0.000 C 
ATOM     19  F   UNL     1       1.460  10.921  21.389  0.00  0.00    +0.000 F 
ATOM     20  F   UNL     1      -0.158   9.747  22.429  0.00  0.00    +0.000 F 
ATOM     21  F   UNL     1       1.907   8.907  22.252  0.00  0.00    +0.000 F 
ENDBRANCH  11  18
BRANCH   1  23
ATOM     22  O   UNL     1      -0.891  11.318  18.916  0.00  0.00    +0.000 OA
ATOM     23  C   UNL     1       0.305  11.152  18.720  0.00  0.00    +0.000 C 
BRANCH  23  24
ATOM     24  O   UNL     1       1.015  12.186  18.231  0.00  0.00    +0.000 OA
ATOM     25  H   UNL     1       0.674  12.784  17.558  0.00  0.00    +0.000 HD
ENDBRANCH  23  24
ENDBRANCH   1  23
TORSDOF 4
ENDMDL
