MODEL 1
REMARK VINA RESULT:      -8.3      0.000      0.000
REMARK  Name = 
REMARK  7 active torsions:
REMARK  status: ('A' for Active; 'I' for Inactive)
REMARK    1  A    between atoms: C_1  and  O_2
REMARK    2  A    between atoms: O_2  and  C_3
REMARK    3  A    between atoms: C_7  and  C_8
REMARK    4  A    between atoms: C_9  and  C_10
REMARK    5  A    between atoms: C_10  and  C_12
REMARK    6  A    between atoms: N_15  and  C_16
REMARK    7  A    between atoms: C_24  and  C_25
REMARK                            x       y       z     vdW  Elec       q    Type
REMARK                         _______ _______ _______ _____ _____    ______ ____
ROOT
ATOM      1  C   UNL     1       4.012   5.448  18.544  0.00  0.00    +0.000 A 
ATOM      2  S   UNL     1       3.886   7.035  17.887  0.00  0.00    +0.000 S 
ATOM      3  C   UNL     1       2.476   7.325  18.824  0.00  0.00    +0.000 A 
ATOM      4  N   UNL     1       1.857   8.527  18.774  0.00  0.00    +0.000 N 
ATOM      5  N   UNL     1       2.085   6.295  19.537  0.00  0.00    +0.000 NA
ATOM      6  C   UNL     1       2.921   5.208  19.363  0.00  0.00    +0.000 A 
ATOM      7  C   UNL     1       2.580   3.959  20.090  0.00  0.00    +0.000 C 
ATOM      8  H   UNL     1       2.161   9.197  18.083  0.00  0.00    +0.000 HD
ENDROOT
BRANCH   4   9
ATOM      9  C   UNL     1       1.102   9.093  19.820  0.00  0.00    +0.000 A 
ATOM     10  C   UNL     1       0.139  10.092  19.604  0.00  0.00    +0.000 A 
ATOM     11  C   UNL     1      -0.584  10.641  20.662  0.00  0.00    +0.000 A 
ATOM     12  C   UNL     1      -0.330  10.216  21.961  0.00  0.00    +0.000 A 
ATOM     13 CL   UNL     1      -1.222  10.887  23.269  0.00  0.00    +0.000 Cl
ATOM     14  C   UNL     1       0.644   9.252  22.206  0.00  0.00    +0.000 A 
ATOM     15  C   UNL     1       1.354   8.690  21.138  0.00  0.00    +0.000 A 
ENDBRANCH   4   9
BRANCH   1  16
ATOM     16  C   UNL     1       5.093   4.552  18.181  0.00  0.00    +0.000 C 
ATOM     17  O   UNL     1       5.851   4.042  19.002  0.00  0.00    +0.000 OA
BRANCH  16  19
ATOM     18  C   UNL     1       6.221   4.968  16.001  0.00  0.00    +0.000 C 
ATOM     19  C   UNL     1       5.308   4.297  16.720  0.00  0.00    +0.000 C 
BRANCH  18  24
ATOM     20  C   UNL     1       6.012   3.463  12.520  0.00  0.00    +0.000 A 
ATOM     21  C   UNL     1       7.060   4.137  11.892  0.00  0.00    +0.000 A 
ATOM     22  C   UNL     1       7.821   5.072  12.593  0.00  0.00    +0.000 A 
ATOM     23  C   UNL     1       7.534   5.343  13.934  0.00  0.00    +0.000 A 
ATOM     24  C   UNL     1       6.478   4.691  14.578  0.00  0.00    +0.000 A 
ATOM     25  C   UNL     1       5.732   3.738  13.862  0.00  0.00    +0.000 A 
BRANCH  20  27
ATOM     26  C   UNL     1       4.138   3.002  11.130  0.00  0.00    +0.000 C 
ATOM     27  O   UNL     1       5.348   2.561  11.733  0.00  0.00    +0.000 OA
ENDBRANCH  20  27
ENDBRANCH  18  24
ENDBRANCH  16  19
ENDBRANCH   1  16
TORSDOF 5
ENDMDL
MODEL 2
REMARK VINA RESULT:      -8.3      0.520      1.072
REMARK  Name = 
REMARK  7 active torsions:
REMARK  status: ('A' for Active; 'I' for Inactive)
REMARK    1  A    between atoms: C_1  and  O_2
REMARK    2  A    between atoms: O_2  and  C_3
REMARK    3  A    between atoms: C_7  and  C_8
REMARK    4  A    between atoms: C_9  and  C_10
REMARK    5  A    between atoms: C_10  and  C_12
REMARK    6  A    between atoms: N_15  and  C_16
REMARK    7  A    between atoms: C_24  and  C_25
REMARK                            x       y       z     vdW  Elec       q    Type
REMARK                         _______ _______ _______ _____ _____    ______ ____
ROOT
ATOM      1  C   UNL     1       4.112   5.481  18.552  0.00  0.00    +0.000 A 
ATOM      2  S   UNL     1       3.836   7.015  17.818  0.00  0.00    +0.000 S 
ATOM      3  C   UNL     1       2.495   7.286  18.857  0.00  0.00    +0.000 A 
ATOM      4  N   UNL     1       1.803   8.446  18.792  0.00  0.00    +0.000 N 
ATOM      5  N   UNL     1       2.228   6.282  19.660  0.00  0.00    +0.000 NA
ATOM      6  C   UNL     1       3.110   5.234  19.476  0.00  0.00    +0.000 A 
ATOM      7  C   UNL     1       2.907   4.016  20.301  0.00  0.00    +0.000 C 
ATOM      8  H   UNL     1       2.007   9.087  18.039  0.00  0.00    +0.000 HD
ENDROOT
BRANCH   4   9
ATOM      9  C   UNL     1       1.106   9.034  19.865  0.00  0.00    +0.000 A 
ATOM     10  C   UNL     1       1.035   8.443  21.137  0.00  0.00    +0.000 A 
ATOM     11  C   UNL     1       0.327   9.044  22.177  0.00  0.00    +0.000 A 
ATOM     12  C   UNL     1      -0.347  10.238  21.948  0.00  0.00    +0.000 A 
ATOM     13 CL   UNL     1      -1.218  10.986  23.228  0.00  0.00    +0.000 Cl
ATOM     14  C   UNL     1      -0.321  10.829  20.687  0.00  0.00    +0.000 A 
ATOM     15  C   UNL     1       0.407  10.230  19.652  0.00  0.00    +0.000 A 
ENDBRANCH   4   9
BRANCH   1  16
ATOM     16  C   UNL     1       5.210   4.625  18.148  0.00  0.00    +0.000 C 
ATOM     17  O   UNL     1       6.020   4.149  18.939  0.00  0.00    +0.000 OA
BRANCH  16  19
ATOM     18  C   UNL     1       6.368   4.918  15.963  0.00  0.00    +0.000 C 
ATOM     19  C   UNL     1       5.374   4.371  16.680  0.00  0.00    +0.000 C 
BRANCH  18  24
ATOM     20  C   UNL     1       6.053   3.373  12.508  0.00  0.00    +0.000 A 
ATOM     21  C   UNL     1       7.051   4.073  11.828  0.00  0.00    +0.000 A 
ATOM     22  C   UNL     1       7.813   5.039  12.487  0.00  0.00    +0.000 A 
ATOM     23  C   UNL     1       7.576   5.314  13.837  0.00  0.00    +0.000 A 
ATOM     24  C   UNL     1       6.570   4.636  14.533  0.00  0.00    +0.000 A 
ATOM     25  C   UNL     1       5.824   3.653  13.858  0.00  0.00    +0.000 A 
BRANCH  20  27
ATOM     26  C   UNL     1       6.163   1.403  11.181  0.00  0.00    +0.000 C 
ATOM     27  O   UNL     1       5.385   2.443  11.758  0.00  0.00    +0.000 OA
ENDBRANCH  20  27
ENDBRANCH  18  24
ENDBRANCH  16  19
ENDBRANCH   1  16
TORSDOF 5
ENDMDL
MODEL 3
REMARK VINA RESULT:      -8.1      4.190      9.254
REMARK  Name = 
REMARK  7 active torsions:
REMARK  status: ('A' for Active; 'I' for Inactive)
REMARK    1  A    between atoms: C_1  and  O_2
REMARK    2  A    between atoms: O_2  and  C_3
REMARK    3  A    between atoms: C_7  and  C_8
REMARK    4  A    between atoms: C_9  and  C_10
REMARK    5  A    between atoms: C_10  and  C_12
REMARK    6  A    between atoms: N_15  and  C_16
REMARK    7  A    between atoms: C_24  and  C_25
REMARK                            x       y       z     vdW  Elec       q    Type
REMARK                         _______ _______ _______ _____ _____    ______ ____
ROOT
ATOM      1  C   UNL     1       3.064   4.462  19.472  0.00  0.00    +0.000 A 
ATOM      2  S   UNL     1       4.782   4.415  19.575  0.00  0.00    +0.000 S 
ATOM      3  C   UNL     1       4.886   4.039  17.902  0.00  0.00    +0.000 A 
ATOM      4  N   UNL     1       6.092   3.895  17.306  0.00  0.00    +0.000 N 
ATOM      5  N   UNL     1       3.722   3.899  17.311  0.00  0.00    +0.000 NA
ATOM      6  C   UNL     1       2.676   4.098  18.193  0.00  0.00    +0.000 A 
ATOM      7  C   UNL     1       1.297   3.940  17.666  0.00  0.00    +0.000 C 
ATOM      8  H   UNL     1       6.917   3.883  17.888  0.00  0.00    +0.000 HD
ENDROOT
BRANCH   4   9
ATOM      9  C   UNL     1       6.358   4.146  15.946  0.00  0.00    +0.000 A 
ATOM     10  C   UNL     1       5.714   3.454  14.909  0.00  0.00    +0.000 A 
ATOM     11  C   UNL     1       6.009   3.716  13.571  0.00  0.00    +0.000 A 
ATOM     12  C   UNL     1       6.978   4.660  13.255  0.00  0.00    +0.000 A 
ATOM     13 CL   UNL     1       7.342   4.992  11.606  0.00  0.00    +0.000 Cl
ATOM     14  C   UNL     1       7.656   5.337  14.265  0.00  0.00    +0.000 A 
ATOM     15  C   UNL     1       7.343   5.083  15.605  0.00  0.00    +0.000 A 
ENDBRANCH   4   9
BRANCH   1  16
ATOM     16  C   UNL     1       2.236   4.778  20.620  0.00  0.00    +0.000 C 
ATOM     17  O   UNL     1       1.943   3.957  21.486  0.00  0.00    +0.000 OA
BRANCH  16  19
ATOM     18  C   UNL     1       2.141   7.171  19.942  0.00  0.00    +0.000 C 
ATOM     19  C   UNL     1       1.676   6.166  20.698  0.00  0.00    +0.000 C 
BRANCH  18  24
ATOM     20  C   UNL     1       0.542  10.389  21.173  0.00  0.00    +0.000 A 
ATOM     21  C   UNL     1       0.398  11.076  19.966  0.00  0.00    +0.000 A 
ATOM     22  C   UNL     1       0.822  10.499  18.769  0.00  0.00    +0.000 A 
ATOM     23  C   UNL     1       1.398   9.225  18.772  0.00  0.00    +0.000 A 
ATOM     24  C   UNL     1       1.566   8.526  19.972  0.00  0.00    +0.000 A 
ATOM     25  C   UNL     1       1.117   9.115  21.168  0.00  0.00    +0.000 A 
BRANCH  20  27
ATOM     26  C   UNL     1      -0.867  10.366  23.089  0.00  0.00    +0.000 C 
ATOM     27  O   UNL     1       0.077  11.052  22.276  0.00  0.00    +0.000 OA
ENDBRANCH  20  27
ENDBRANCH  18  24
ENDBRANCH  16  19
ENDBRANCH   1  16
TORSDOF 5
ENDMDL
MODEL 4
REMARK VINA RESULT:      -8.0      5.290     10.434
REMARK  Name = 
REMARK  7 active torsions:
REMARK  status: ('A' for Active; 'I' for Inactive)
REMARK    1  A    between atoms: C_1  and  O_2
REMARK    2  A    between atoms: O_2  and  C_3
REMARK    3  A    between atoms: C_7  and  C_8
REMARK    4  A    between atoms: C_9  and  C_10
REMARK    5  A    between atoms: C_10  and  C_12
REMARK    6  A    between atoms: N_15  and  C_16
REMARK    7  A    between atoms: C_24  and  C_25
REMARK                            x       y       z     vdW  Elec       q    Type
REMARK                         _______ _______ _______ _____ _____    ______ ____
ROOT
ATOM      1  C   UNL     1       0.945   9.752  19.471  0.00  0.00    +0.000 A 
ATOM      2  S   UNL     1       1.737   9.435  17.975  0.00  0.00    +0.000 S 
ATOM      3  C   UNL     1       2.349   7.955  18.597  0.00  0.00    +0.000 A 
ATOM      4  N   UNL     1       3.097   7.142  17.815  0.00  0.00    +0.000 N 
ATOM      5  N   UNL     1       2.038   7.732  19.852  0.00  0.00    +0.000 NA
ATOM      6  C   UNL     1       1.274   8.757  20.378  0.00  0.00    +0.000 A 
ATOM      7  C   UNL     1       0.874   8.650  21.803  0.00  0.00    +0.000 C 
ATOM      8  H   UNL     1       3.393   7.482  16.912  0.00  0.00    +0.000 HD
ENDROOT
BRANCH   4   9
ATOM      9  C   UNL     1       3.183   5.743  17.953  0.00  0.00    +0.000 A 
ATOM     10  C   UNL     1       2.069   4.899  17.824  0.00  0.00    +0.000 A 
ATOM     11  C   UNL     1       2.185   3.518  17.979  0.00  0.00    +0.000 A 
ATOM     12  C   UNL     1       3.420   2.964  18.293  0.00  0.00    +0.000 A 
ATOM     13 CL   UNL     1       3.570   1.260  18.478  0.00  0.00    +0.000 Cl
ATOM     14  C   UNL     1       4.535   3.781  18.458  0.00  0.00    +0.000 A 
ATOM     15  C   UNL     1       4.416   5.165  18.285  0.00  0.00    +0.000 A 
ENDBRANCH   4   9
BRANCH   1  16
ATOM     16  C   UNL     1       0.137  10.939  19.675  0.00  0.00    +0.000 C 
ATOM     17  O   UNL     1       0.510  11.902  20.340  0.00  0.00    +0.000 OA
BRANCH  16  19
ATOM     18  C   UNL     1      -2.166  11.847  19.419  0.00  0.00    +0.000 C 
ATOM     19  C   UNL     1      -1.238  10.940  19.080  0.00  0.00    +0.000 C 
BRANCH  18  24
ATOM     20  C   UNL     1      -5.903  12.325  18.932  0.00  0.00    +0.000 A 
ATOM     21  C   UNL     1      -6.044  11.876  17.618  0.00  0.00    +0.000 A 
ATOM     22  C   UNL     1      -4.935  11.428  16.900  0.00  0.00    +0.000 A 
ATOM     23  C   UNL     1      -3.670  11.430  17.495  0.00  0.00    +0.000 A 
ATOM     24  C   UNL     1      -3.503  11.891  18.805  0.00  0.00    +0.000 A 
ATOM     25  C   UNL     1      -4.635  12.322  19.520  0.00  0.00    +0.000 A 
BRANCH  20  27
ATOM     26  C   UNL     1      -7.392  12.108  20.773  0.00  0.00    +0.000 C 
ATOM     27  O   UNL     1      -7.064  12.726  19.535  0.00  0.00    +0.000 OA
ENDBRANCH  20  27
ENDBRANCH  18  24
ENDBRANCH  16  19
ENDBRANCH   1  16
TORSDOF 5
ENDMDL
MODEL 5
REMARK VINA RESULT:      -7.9      5.244     10.410
REMARK  Name = 
REMARK  7 active torsions:
REMARK  status: ('A' for Active; 'I' for Inactive)
REMARK    1  A    between atoms: C_1  and  O_2
REMARK    2  A    between atoms: O_2  and  C_3
REMARK    3  A    between atoms: C_7  and  C_8
REMARK    4  A    between atoms: C_9  and  C_10
REMARK    5  A    between atoms: C_10  and  C_12
REMARK    6  A    between atoms: N_15  and  C_16
REMARK    7  A    between atoms: C_24  and  C_25
REMARK                            x       y       z     vdW  Elec       q    Type
REMARK                         _______ _______ _______ _____ _____    ______ ____
ROOT
ATOM      1  C   UNL     1       0.964   9.803  19.435  0.00  0.00    +0.000 A 
ATOM      2  S   UNL     1       1.770   9.446  17.955  0.00  0.00    +0.000 S 
ATOM      3  C   UNL     1       2.374   7.982  18.621  0.00  0.00    +0.000 A 
ATOM      4  N   UNL     1       3.128   7.148  17.868  0.00  0.00    +0.000 N 
ATOM      5  N   UNL     1       2.051   7.792  19.879  0.00  0.00    +0.000 NA
ATOM      6  C   UNL     1       1.283   8.832  20.370  0.00  0.00    +0.000 A 
ATOM      7  C   UNL     1       0.870   8.763  21.794  0.00  0.00    +0.000 C 
ATOM      8  H   UNL     1       3.433   7.464  16.959  0.00  0.00    +0.000 HD
ENDROOT
BRANCH   4   9
ATOM      9  C   UNL     1       3.211   5.753  18.043  0.00  0.00    +0.000 A 
ATOM     10  C   UNL     1       4.410   5.103  18.376  0.00  0.00    +0.000 A 
ATOM     11  C   UNL     1       4.463   3.717  18.530  0.00  0.00    +0.000 A 
ATOM     12  C   UNL     1       3.317   2.960  18.324  0.00  0.00    +0.000 A 
ATOM     13 CL   UNL     1       3.376   1.251  18.519  0.00  0.00    +0.000 Cl
ATOM     14  C   UNL     1       2.123   3.576  17.961  0.00  0.00    +0.000 A 
ATOM     15  C   UNL     1       2.071   4.968  17.825  0.00  0.00    +0.000 A 
ENDBRANCH   4   9
BRANCH   1  16
ATOM     16  C   UNL     1       0.156  10.996  19.599  0.00  0.00    +0.000 C 
ATOM     17  O   UNL     1       0.596  12.052  20.046  0.00  0.00    +0.000 OA
BRANCH  16  19
ATOM     18  C   UNL     1      -2.071  11.969  19.062  0.00  0.00    +0.000 C 
ATOM     19  C   UNL     1      -1.298  10.890  19.252  0.00  0.00    +0.000 C 
BRANCH  18  24
ATOM     20  C   UNL     1      -5.866  11.974  19.211  0.00  0.00    +0.000 A 
ATOM     21  C   UNL     1      -6.170  11.612  17.897  0.00  0.00    +0.000 A 
ATOM     22  C   UNL     1      -5.150  11.374  16.976  0.00  0.00    +0.000 A 
ATOM     23  C   UNL     1      -3.813  11.501  17.364  0.00  0.00    +0.000 A 
ATOM     24  C   UNL     1      -3.487  11.879  18.670  0.00  0.00    +0.000 A 
ATOM     25  C   UNL     1      -4.527  12.098  19.591  0.00  0.00    +0.000 A 
BRANCH  20  27
ATOM     26  C   UNL     1      -7.623  11.004  20.487  0.00  0.00    +0.000 C 
ATOM     27  O   UNL     1      -6.951  12.168  20.023  0.00  0.00    +0.000 OA
ENDBRANCH  20  27
ENDBRANCH  18  24
ENDBRANCH  16  19
ENDBRANCH   1  16
TORSDOF 5
ENDMDL
MODEL 6
REMARK VINA RESULT:      -7.7      4.276      9.900
REMARK  Name = 
REMARK  7 active torsions:
REMARK  status: ('A' for Active; 'I' for Inactive)
REMARK    1  A    between atoms: C_1  and  O_2
REMARK    2  A    between atoms: O_2  and  C_3
REMARK    3  A    between atoms: C_7  and  C_8
REMARK    4  A    between atoms: C_9  and  C_10
REMARK    5  A    between atoms: C_10  and  C_12
REMARK    6  A    between atoms: N_15  and  C_16
REMARK    7  A    between atoms: C_24  and  C_25
REMARK                            x       y       z     vdW  Elec       q    Type
REMARK                         _______ _______ _______ _____ _____    ______ ____
ROOT
ATOM      1  C   UNL     1       3.204   4.968  19.291  0.00  0.00    +0.000 A 
ATOM      2  S   UNL     1       4.924   4.905  19.356  0.00  0.00    +0.000 S 
ATOM      3  C   UNL     1       4.978   4.353  17.729  0.00  0.00    +0.000 A 
ATOM      4  N   UNL     1       6.166   4.128  17.123  0.00  0.00    +0.000 N 
ATOM      5  N   UNL     1       3.797   4.170  17.186  0.00  0.00    +0.000 NA
ATOM      6  C   UNL     1       2.778   4.477  18.068  0.00  0.00    +0.000 A 
ATOM      7  C   UNL     1       1.383   4.286  17.595  0.00  0.00    +0.000 C 
ATOM      8  H   UNL     1       7.006   4.164  17.681  0.00  0.00    +0.000 HD
ENDROOT
BRANCH   4   9
ATOM      9  C   UNL     1       6.399   4.229  15.738  0.00  0.00    +0.000 A 
ATOM     10  C   UNL     1       5.722   3.439  14.796  0.00  0.00    +0.000 A 
ATOM     11  C   UNL     1       5.984   3.554  13.431  0.00  0.00    +0.000 A 
ATOM     12  C   UNL     1       6.954   4.447  12.992  0.00  0.00    +0.000 A 
ATOM     13 CL   UNL     1       7.278   4.597  11.309  0.00  0.00    +0.000 Cl
ATOM     14  C   UNL     1       7.665   5.219  13.907  0.00  0.00    +0.000 A 
ATOM     15  C   UNL     1       7.384   5.112  15.275  0.00  0.00    +0.000 A 
ENDBRANCH   4   9
BRANCH   1  16
ATOM     16  C   UNL     1       2.411   5.416  20.420  0.00  0.00    +0.000 C 
ATOM     17  O   UNL     1       2.011   4.663  21.304  0.00  0.00    +0.000 OA
BRANCH  16  19
ATOM     18  C   UNL     1       0.986   7.315  21.171  0.00  0.00    +0.000 C 
ATOM     19  C   UNL     1       2.026   6.864  20.453  0.00  0.00    +0.000 C 
BRANCH  18  24
ATOM     20  C   UNL     1      -0.406  10.622  22.415  0.00  0.00    +0.000 A 
ATOM     21  C   UNL     1      -0.103  11.446  21.329  0.00  0.00    +0.000 A 
ATOM     22  C   UNL     1       0.549  10.930  20.210  0.00  0.00    +0.000 A 
ATOM     23  C   UNL     1       0.909   9.580  20.171  0.00  0.00    +0.000 A 
ATOM     24  C   UNL     1       0.630   8.741  21.254  0.00  0.00    +0.000 A 
ATOM     25  C   UNL     1      -0.045   9.273  22.367  0.00  0.00    +0.000 A 
BRANCH  20  27
ATOM     26  C   UNL     1      -1.843  12.380  23.121  0.00  0.00    +0.000 C 
ATOM     27  O   UNL     1      -1.058  11.240  23.447  0.00  0.00    +0.000 OA
ENDBRANCH  20  27
ENDBRANCH  18  24
ENDBRANCH  16  19
ENDBRANCH   1  16
TORSDOF 5
ENDMDL
MODEL 7
REMARK VINA RESULT:      -7.6      5.420      9.600
REMARK  Name = 
REMARK  7 active torsions:
REMARK  status: ('A' for Active; 'I' for Inactive)
REMARK    1  A    between atoms: C_1  and  O_2
REMARK    2  A    between atoms: O_2  and  C_3
REMARK    3  A    between atoms: C_7  and  C_8
REMARK    4  A    between atoms: C_9  and  C_10
REMARK    5  A    between atoms: C_10  and  C_12
REMARK    6  A    between atoms: N_15  and  C_16
REMARK    7  A    between atoms: C_24  and  C_25
REMARK                            x       y       z     vdW  Elec       q    Type
REMARK                         _______ _______ _______ _____ _____    ______ ____
ROOT
ATOM      1  C   UNL     1       0.909   9.787  19.495  0.00  0.00    +0.000 A 
ATOM      2  S   UNL     1       1.648   9.458  17.975  0.00  0.00    +0.000 S 
ATOM      3  C   UNL     1       2.300   7.993  18.594  0.00  0.00    +0.000 A 
ATOM      4  N   UNL     1       3.026   7.177  17.796  0.00  0.00    +0.000 N 
ATOM      5  N   UNL     1       2.038   7.785  19.863  0.00  0.00    +0.000 NA
ATOM      6  C   UNL     1       1.283   8.809  20.402  0.00  0.00    +0.000 A 
ATOM      7  C   UNL     1       0.938   8.719  21.844  0.00  0.00    +0.000 C 
ATOM      8  H   UNL     1       3.285   7.507  16.878  0.00  0.00    +0.000 HD
ENDROOT
BRANCH   4   9
ATOM      9  C   UNL     1       3.134   5.782  17.950  0.00  0.00    +0.000 A 
ATOM     10  C   UNL     1       2.029   4.921  17.846  0.00  0.00    +0.000 A 
ATOM     11  C   UNL     1       2.166   3.543  18.016  0.00  0.00    +0.000 A 
ATOM     12  C   UNL     1       3.412   3.010  18.321  0.00  0.00    +0.000 A 
ATOM     13 CL   UNL     1       3.588   1.311  18.526  0.00  0.00    +0.000 Cl
ATOM     14  C   UNL     1       4.518   3.845  18.462  0.00  0.00    +0.000 A 
ATOM     15  C   UNL     1       4.379   5.225  18.273  0.00  0.00    +0.000 A 
ENDBRANCH   4   9
BRANCH   1  16
ATOM     16  C   UNL     1       0.096  10.968  19.713  0.00  0.00    +0.000 C 
ATOM     17  O   UNL     1      -0.977  10.947  20.311  0.00  0.00    +0.000 OA
BRANCH  16  19
ATOM     18  C   UNL     1       1.710  12.856  19.534  0.00  0.00    +0.000 C 
ATOM     19  C   UNL     1       0.585  12.254  19.118  0.00  0.00    +0.000 C 
BRANCH  18  24
ATOM     20  C   UNL     1       1.932  16.398  18.183  0.00  0.00    +0.000 A 
ATOM     21  C   UNL     1       3.233  16.392  17.675  0.00  0.00    +0.000 A 
ATOM     22  C   UNL     1       4.026  15.249  17.776  0.00  0.00    +0.000 A 
ATOM     23  C   UNL     1       3.522  14.100  18.393  0.00  0.00    +0.000 A 
ATOM     24  C   UNL     1       2.228  14.090  18.923  0.00  0.00    +0.000 A 
ATOM     25  C   UNL     1       1.436  15.245  18.797  0.00  0.00    +0.000 A 
BRANCH  20  27
ATOM     26  C   UNL     1      -0.168  17.511  18.110  0.00  0.00    +0.000 C 
ATOM     27  O   UNL     1       1.250  17.572  18.012  0.00  0.00    +0.000 OA
ENDBRANCH  20  27
ENDBRANCH  18  24
ENDBRANCH  16  19
ENDBRANCH   1  16
TORSDOF 5
ENDMDL
MODEL 8
REMARK VINA RESULT:      -7.6      4.609      6.606
REMARK  Name = 
REMARK  7 active torsions:
REMARK  status: ('A' for Active; 'I' for Inactive)
REMARK    1  A    between atoms: C_1  and  O_2
REMARK    2  A    between atoms: O_2  and  C_3
REMARK    3  A    between atoms: C_7  and  C_8
REMARK    4  A    between atoms: C_9  and  C_10
REMARK    5  A    between atoms: C_10  and  C_12
REMARK    6  A    between atoms: N_15  and  C_16
REMARK    7  A    between atoms: C_24  and  C_25
REMARK                            x       y       z     vdW  Elec       q    Type
REMARK                         _______ _______ _______ _____ _____    ______ ____
ROOT
ATOM      1  C   UNL     1       0.564  10.323  18.849  0.00  0.00    +0.000 A 
ATOM      2  S   UNL     1       1.013  11.325  20.176  0.00  0.00    +0.000 S 
ATOM      3  C   UNL     1      -0.614  11.854  20.343  0.00  0.00    +0.000 A 
ATOM      4  N   UNL     1      -0.956  12.713  21.330  0.00  0.00    +0.000 N 
ATOM      5  N   UNL     1      -1.431  11.366  19.439  0.00  0.00    +0.000 NA
ATOM      6  C   UNL     1      -0.775  10.525  18.560  0.00  0.00    +0.000 A 
ATOM      7  C   UNL     1      -1.575   9.923  17.463  0.00  0.00    +0.000 C 
ATOM      8  H   UNL     1      -0.220  13.135  21.878  0.00  0.00    +0.000 HD
ENDROOT
BRANCH   4   9
ATOM      9  C   UNL     1      -2.227  12.791  21.931  0.00  0.00    +0.000 A 
ATOM     10  C   UNL     1      -3.302  13.476  21.343  0.00  0.00    +0.000 A 
ATOM     11  C   UNL     1      -4.546  13.546  21.969  0.00  0.00    +0.000 A 
ATOM     12  C   UNL     1      -4.722  12.951  23.213  0.00  0.00    +0.000 A 
ATOM     13 CL   UNL     1      -6.256  13.030  23.987  0.00  0.00    +0.000 Cl
ATOM     14  C   UNL     1      -3.664  12.294  23.834  0.00  0.00    +0.000 A 
ATOM     15  C   UNL     1      -2.422  12.212  23.192  0.00  0.00    +0.000 A 
ENDBRANCH   4   9
BRANCH   1  16
ATOM     16  C   UNL     1       1.528   9.484  18.163  0.00  0.00    +0.000 C 
ATOM     17  O   UNL     1       2.287   9.902  17.293  0.00  0.00    +0.000 OA
BRANCH  16  19
ATOM     18  C   UNL     1       2.555   7.453  19.171  0.00  0.00    +0.000 C 
ATOM     19  C   UNL     1       1.537   8.026  18.512  0.00  0.00    +0.000 C 
BRANCH  18  24
ATOM     20  C   UNL     1       3.373   3.747  19.328  0.00  0.00    +0.000 A 
ATOM     21  C   UNL     1       2.453   3.327  20.291  0.00  0.00    +0.000 A 
ATOM     22  C   UNL     1       1.583   4.242  20.884  0.00  0.00    +0.000 A 
ATOM     23  C   UNL     1       1.630   5.590  20.517  0.00  0.00    +0.000 A 
ATOM     24  C   UNL     1       2.553   6.034  19.566  0.00  0.00    +0.000 A 
ATOM     25  C   UNL     1       3.411   5.096  18.965  0.00  0.00    +0.000 A 
BRANCH  20  27
ATOM     26  C   UNL     1       3.498   1.621  18.269  0.00  0.00    +0.000 C 
ATOM     27  O   UNL     1       4.162   2.756  18.810  0.00  0.00    +0.000 OA
ENDBRANCH  20  27
ENDBRANCH  18  24
ENDBRANCH  16  19
ENDBRANCH   1  16
TORSDOF 5
ENDMDL
MODEL 9
REMARK VINA RESULT:      -7.6      4.815      6.509
REMARK  Name = 
REMARK  7 active torsions:
REMARK  status: ('A' for Active; 'I' for Inactive)
REMARK    1  A    between atoms: C_1  and  O_2
REMARK    2  A    between atoms: O_2  and  C_3
REMARK    3  A    between atoms: C_7  and  C_8
REMARK    4  A    between atoms: C_9  and  C_10
REMARK    5  A    between atoms: C_10  and  C_12
REMARK    6  A    between atoms: N_15  and  C_16
REMARK    7  A    between atoms: C_24  and  C_25
REMARK                            x       y       z     vdW  Elec       q    Type
REMARK                         _______ _______ _______ _____ _____    ______ ____
ROOT
ATOM      1  C   UNL     1       0.624  10.796  19.007  0.00  0.00    +0.000 A 
ATOM      2  S   UNL     1       0.985  11.906  20.273  0.00  0.00    +0.000 S 
ATOM      3  C   UNL     1      -0.689  12.226  20.488  0.00  0.00    +0.000 A 
ATOM      4  N   UNL     1      -1.104  13.076  21.454  0.00  0.00    +0.000 N 
ATOM      5  N   UNL     1      -1.468  11.596  19.639  0.00  0.00    +0.000 NA
ATOM      6  C   UNL     1      -0.740  10.809  18.767  0.00  0.00    +0.000 A 
ATOM      7  C   UNL     1      -1.494  10.061  17.729  0.00  0.00    +0.000 C 
ATOM      8  H   UNL     1      -0.411  13.614  21.953  0.00  0.00    +0.000 HD
ENDROOT
BRANCH   4   9
ATOM      9  C   UNL     1      -2.352  13.015  22.105  0.00  0.00    +0.000 A 
ATOM     10  C   UNL     1      -2.522  12.408  23.360  0.00  0.00    +0.000 A 
ATOM     11  C   UNL     1      -3.773  12.352  23.973  0.00  0.00    +0.000 A 
ATOM     12  C   UNL     1      -4.881  12.881  23.322  0.00  0.00    +0.000 A 
ATOM     13 CL   UNL     1      -6.426  12.820  24.077  0.00  0.00    +0.000 Cl
ATOM     14  C   UNL     1      -4.746  13.459  22.062  0.00  0.00    +0.000 A 
ATOM     15  C   UNL     1      -3.485  13.529  21.459  0.00  0.00    +0.000 A 
ENDBRANCH   4   9
BRANCH   1  16
ATOM     16  C   UNL     1       1.664  10.059  18.313  0.00  0.00    +0.000 C 
ATOM     17  O   UNL     1       2.372  10.554  17.440  0.00  0.00    +0.000 OA
BRANCH  16  19
ATOM     18  C   UNL     1       2.601   7.783  17.947  0.00  0.00    +0.000 C 
ATOM     19  C   UNL     1       1.821   8.610  18.659  0.00  0.00    +0.000 C 
BRANCH  18  24
ATOM     20  C   UNL     1       2.128   4.025  18.232  0.00  0.00    +0.000 A 
ATOM     21  C   UNL     1       3.184   3.703  19.086  0.00  0.00    +0.000 A 
ATOM     22  C   UNL     1       4.041   4.698  19.558  0.00  0.00    +0.000 A 
ATOM     23  C   UNL     1       3.847   6.027  19.173  0.00  0.00    +0.000 A 
ATOM     24  C   UNL     1       2.805   6.369  18.306  0.00  0.00    +0.000 A 
ATOM     25  C   UNL     1       1.940   5.357  17.853  0.00  0.00    +0.000 A 
BRANCH  20  27
ATOM     26  C   UNL     1       0.734   2.212  18.884  0.00  0.00    +0.000 C 
ATOM     27  O   UNL     1       1.350   2.966  17.847  0.00  0.00    +0.000 OA
ENDBRANCH  20  27
ENDBRANCH  18  24
ENDBRANCH  16  19
ENDBRANCH   1  16
TORSDOF 5
ENDMDL
