MODEL 1
REMARK VINA RESULT:      -8.7      0.000      0.000
REMARK  Name = 
REMARK  7 active torsions:
REMARK  status: ('A' for Active; 'I' for Inactive)
REMARK    1  A    between atoms: C_1  and  C_2
REMARK    2  A    between atoms: C_2  and  C_3
REMARK    3  A    between atoms: C_2  and  C_4
REMARK    4  A    between atoms: C_7  and  N_8
REMARK    5  A    between atoms: N_8  and  S_9
REMARK    6  A    between atoms: S_9  and  C_12
REMARK    7  A    between atoms: C_16  and  N_17
REMARK                            x       y       z     vdW  Elec       q    Type
REMARK                         _______ _______ _______ _____ _____    ______ ____
ROOT
ATOM      1  C   UNL     1       1.448   7.800  20.432  0.00  0.00    +0.000 A 
ATOM      2  C   UNL     1       2.126   7.768  19.226  0.00  0.00    +0.000 A 
ATOM      3  C   UNL     1       2.824   6.593  18.954  0.00  0.00    +0.000 A 
ATOM      4  C   UNL     1       3.224   5.813  20.027  0.00  0.00    +0.000 A 
ATOM      5  C   UNL     1       2.151   5.584  20.875  0.00  0.00    +0.000 A 
ATOM      6  C   UNL     1       1.288   6.631  21.165  0.00  0.00    +0.000 A 
ATOM      7  N   UNL     1       4.312   4.939  19.762  0.00  0.00    +0.000 N 
ATOM      8  C   UNL     1       3.971   4.049  18.708  0.00  0.00    +0.000 A 
ATOM      9  C   UNL     1       4.434   2.740  18.780  0.00  0.00    +0.000 A 
ATOM     10  C   UNL     1       3.686   1.759  18.161  0.00  0.00    +0.000 A 
ATOM     11  C   UNL     1       2.535   2.122  17.437  0.00  0.00    +0.000 A 
ATOM     12  C   UNL     1       2.193   3.477  17.222  0.00  0.00    +0.000 A 
ATOM     13  C   UNL     1       2.953   4.474  17.823  0.00  0.00    +0.000 A 
ATOM     14  O   UNL     1       2.618   5.851  17.750  0.00  0.00    +0.000 OA
ATOM     15  H   UNL     1       5.057   5.515  19.356  0.00  0.00    +0.000 HD
ENDROOT
BRANCH   1  16
ATOM     16  S   UNL     1       0.830   9.307  21.207  0.00  0.00    +0.000 S 
ATOM     17  O   UNL     1       1.786   9.694  22.195  0.00  0.00    +0.000 OA
ATOM     18  O   UNL     1      -0.555   9.008  21.519  0.00  0.00    +0.000 OA
BRANCH  16  19
ATOM     19  N   UNL     1       0.794  10.417  19.959  0.00  0.00    +0.000 N 
ATOM     20  H   UNL     1       1.516  11.130  19.966  0.00  0.00    +0.000 HD
BRANCH  19  24
ATOM     21  C   UNL     1      -2.596  11.077  17.546  0.00  0.00    +0.000 A 
ATOM     22  C   UNL     1      -2.385  11.831  18.712  0.00  0.00    +0.000 A 
ATOM     23  C   UNL     1      -1.271  11.601  19.519  0.00  0.00    +0.000 A 
ATOM     24  C   UNL     1      -0.363  10.605  19.173  0.00  0.00    +0.000 A 
ATOM     25  C   UNL     1      -0.561   9.840  18.029  0.00  0.00    +0.000 A 
ATOM     26  C   UNL     1      -1.670  10.075  17.218  0.00  0.00    +0.000 A 
BRANCH  21  28
ATOM     27  C   UNL     1      -3.816  10.518  15.409  0.00  0.00    +0.000 C 
ATOM     28  C   UNL     1      -3.802  11.376  16.678  0.00  0.00    +0.000 C 
ATOM     29  C   UNL     1      -5.111  11.222  17.454  0.00  0.00    +0.000 C 
ENDBRANCH  21  28
ENDBRANCH  19  24
ENDBRANCH  16  19
ENDBRANCH   1  16
BRANCH   5  30
ATOM     30  N   UNL     1       1.589   4.244  20.983  0.00  0.00    +0.000 N 
ATOM     31  O   UNL     1       0.593   3.968  20.307  0.00  0.00    +0.000 OA
ATOM     32  O   UNL     1       2.185   3.452  21.736  0.00  0.00    +0.000 OA
ENDBRANCH   5  30
TORSDOF 5
ENDMDL
MODEL 2
REMARK VINA RESULT:      -8.7      5.440      8.059
REMARK  Name = 
REMARK  7 active torsions:
REMARK  status: ('A' for Active; 'I' for Inactive)
REMARK    1  A    between atoms: C_1  and  C_2
REMARK    2  A    between atoms: C_2  and  C_3
REMARK    3  A    between atoms: C_2  and  C_4
REMARK    4  A    between atoms: C_7  and  N_8
REMARK    5  A    between atoms: N_8  and  S_9
REMARK    6  A    between atoms: S_9  and  C_12
REMARK    7  A    between atoms: C_16  and  N_17
REMARK                            x       y       z     vdW  Elec       q    Type
REMARK                         _______ _______ _______ _____ _____    ______ ____
ROOT
ATOM      1  C   UNL     1       6.043   5.004  17.976  0.00  0.00    +0.000 A 
ATOM      2  C   UNL     1       5.097   5.897  18.448  0.00  0.00    +0.000 A 
ATOM      3  C   UNL     1       3.833   5.365  18.698  0.00  0.00    +0.000 A 
ATOM      4  C   UNL     1       3.465   4.219  18.014  0.00  0.00    +0.000 A 
ATOM      5  C   UNL     1       4.456   3.255  18.129  0.00  0.00    +0.000 A 
ATOM      6  C   UNL     1       5.784   3.640  18.012  0.00  0.00    +0.000 A 
ATOM      7  N   UNL     1       2.065   4.003  17.913  0.00  0.00    +0.000 N 
ATOM      8  C   UNL     1       1.495   3.910  19.211  0.00  0.00    +0.000 A 
ATOM      9  C   UNL     1       0.456   3.007  19.408  0.00  0.00    +0.000 A 
ATOM     10  C   UNL     1       0.299   2.475  20.672  0.00  0.00    +0.000 A 
ATOM     11  C   UNL     1       1.141   2.908  21.713  0.00  0.00    +0.000 A 
ATOM     12  C   UNL     1       2.063   3.965  21.528  0.00  0.00    +0.000 A 
ATOM     13  C   UNL     1       2.213   4.522  20.264  0.00  0.00    +0.000 A 
ATOM     14  O   UNL     1       3.190   5.509  19.966  0.00  0.00    +0.000 OA
ATOM     15  H   UNL     1       1.662   4.868  17.537  0.00  0.00    +0.000 HD
ENDROOT
BRANCH   1  16
ATOM     16  S   UNL     1       7.593   5.490  17.190  0.00  0.00    +0.000 S 
ATOM     17  O   UNL     1       8.368   4.303  17.020  0.00  0.00    +0.000 OA
ATOM     18  O   UNL     1       8.046   6.628  17.966  0.00  0.00    +0.000 OA
BRANCH  16  19
ATOM     19  N   UNL     1       7.119   6.099  15.708  0.00  0.00    +0.000 N 
ATOM     20  H   UNL     1       6.836   7.073  15.688  0.00  0.00    +0.000 HD
BRANCH  19  24
ATOM     21  C   UNL     1       5.970   3.657  12.474  0.00  0.00    +0.000 A 
ATOM     22  C   UNL     1       5.130   3.816  13.589  0.00  0.00    +0.000 A 
ATOM     23  C   UNL     1       5.518   4.612  14.666  0.00  0.00    +0.000 A 
ATOM     24  C   UNL     1       6.756   5.247  14.644  0.00  0.00    +0.000 A 
ATOM     25  C   UNL     1       7.606   5.092  13.554  0.00  0.00    +0.000 A 
ATOM     26  C   UNL     1       7.215   4.303  12.474  0.00  0.00    +0.000 A 
BRANCH  21  28
ATOM     27  C   UNL     1       5.960   1.354  11.442  0.00  0.00    +0.000 C 
ATOM     28  C   UNL     1       5.501   2.809  11.308  0.00  0.00    +0.000 C 
ATOM     29  C   UNL     1       3.984   2.886  11.125  0.00  0.00    +0.000 C 
ENDBRANCH  21  28
ENDBRANCH  19  24
ENDBRANCH  16  19
ENDBRANCH   1  16
BRANCH   5  30
ATOM     30  N   UNL     1       4.205   2.052  18.912  0.00  0.00    +0.000 N 
ATOM     31  O   UNL     1       3.476   1.179  18.432  0.00  0.00    +0.000 OA
ATOM     32  O   UNL     1       4.782   1.978  20.013  0.00  0.00    +0.000 OA
ENDBRANCH   5  30
TORSDOF 5
ENDMDL
MODEL 3
REMARK VINA RESULT:      -8.6      5.081      8.002
REMARK  Name = 
REMARK  7 active torsions:
REMARK  status: ('A' for Active; 'I' for Inactive)
REMARK    1  A    between atoms: C_1  and  C_2
REMARK    2  A    between atoms: C_2  and  C_3
REMARK    3  A    between atoms: C_2  and  C_4
REMARK    4  A    between atoms: C_7  and  N_8
REMARK    5  A    between atoms: N_8  and  S_9
REMARK    6  A    between atoms: S_9  and  C_12
REMARK    7  A    between atoms: C_16  and  N_17
REMARK                            x       y       z     vdW  Elec       q    Type
REMARK                         _______ _______ _______ _____ _____    ______ ____
ROOT
ATOM      1  C   UNL     1       5.196   6.016  17.364  0.00  0.00    +0.000 A 
ATOM      2  C   UNL     1       4.123   6.666  17.949  0.00  0.00    +0.000 A 
ATOM      3  C   UNL     1       3.118   5.844  18.455  0.00  0.00    +0.000 A 
ATOM      4  C   UNL     1       2.985   4.575  17.914  0.00  0.00    +0.000 A 
ATOM      5  C   UNL     1       4.213   3.931  17.902  0.00  0.00    +0.000 A 
ATOM      6  C   UNL     1       5.342   4.644  17.523  0.00  0.00    +0.000 A 
ATOM      7  N   UNL     1       1.705   3.982  18.082  0.00  0.00    +0.000 N 
ATOM      8  C   UNL     1       1.400   3.876  19.466  0.00  0.00    +0.000 A 
ATOM      9  C   UNL     1       0.704   2.752  19.899  0.00  0.00    +0.000 A 
ATOM     10  C   UNL     1       0.907   2.333  21.198  0.00  0.00    +0.000 A 
ATOM     11  C   UNL     1       1.747   3.082  22.042  0.00  0.00    +0.000 A 
ATOM     12  C   UNL     1       2.290   4.322  21.634  0.00  0.00    +0.000 A 
ATOM     13  C   UNL     1       2.073   4.765  20.335  0.00  0.00    +0.000 A 
ATOM     14  O   UNL     1       2.670   5.941  19.809  0.00  0.00    +0.000 OA
ATOM     15  H   UNL     1       1.020   4.663  17.739  0.00  0.00    +0.000 HD
ENDROOT
BRANCH   1  16
ATOM     16  S   UNL     1       6.398   6.816  16.284  0.00  0.00    +0.000 S 
ATOM     17  O   UNL     1       7.197   7.671  17.104  0.00  0.00    +0.000 OA
ATOM     18  O   UNL     1       5.611   7.301  15.167  0.00  0.00    +0.000 OA
BRANCH  16  19
ATOM     19  N   UNL     1       7.313   5.550  15.691  0.00  0.00    +0.000 N 
ATOM     20  H   UNL     1       8.282   5.512  15.989  0.00  0.00    +0.000 HD
BRANCH  19  24
ATOM     21  C   UNL     1       6.006   3.447  12.282  0.00  0.00    +0.000 A 
ATOM     22  C   UNL     1       5.325   3.330  13.505  0.00  0.00    +0.000 A 
ATOM     23  C   UNL     1       5.767   4.014  14.637  0.00  0.00    +0.000 A 
ATOM     24  C   UNL     1       6.904   4.812  14.559  0.00  0.00    +0.000 A 
ATOM     25  C   UNL     1       7.599   4.932  13.361  0.00  0.00    +0.000 A 
ATOM     26  C   UNL     1       7.153   4.254  12.227  0.00  0.00    +0.000 A 
BRANCH  21  28
ATOM     27  C   UNL     1       5.868   1.232  11.081  0.00  0.00    +0.000 C 
ATOM     28  C   UNL     1       5.478   2.714  11.066  0.00  0.00    +0.000 C 
ATOM     29  C   UNL     1       3.965   2.877  10.918  0.00  0.00    +0.000 C 
ENDBRANCH  21  28
ENDBRANCH  19  24
ENDBRANCH  16  19
ENDBRANCH   1  16
BRANCH   5  30
ATOM     30  N   UNL     1       4.441   2.793  18.783  0.00  0.00    +0.000 N 
ATOM     31  O   UNL     1       3.894   1.720  18.512  0.00  0.00    +0.000 OA
ATOM     32  O   UNL     1       5.211   2.983  19.743  0.00  0.00    +0.000 OA
ENDBRANCH   5  30
TORSDOF 5
ENDMDL
MODEL 4
REMARK VINA RESULT:      -8.5      3.068      8.461
REMARK  Name = 
REMARK  7 active torsions:
REMARK  status: ('A' for Active; 'I' for Inactive)
REMARK    1  A    between atoms: C_1  and  C_2
REMARK    2  A    between atoms: C_2  and  C_3
REMARK    3  A    between atoms: C_2  and  C_4
REMARK    4  A    between atoms: C_7  and  N_8
REMARK    5  A    between atoms: N_8  and  S_9
REMARK    6  A    between atoms: S_9  and  C_12
REMARK    7  A    between atoms: C_16  and  N_17
REMARK                            x       y       z     vdW  Elec       q    Type
REMARK                         _______ _______ _______ _____ _____    ______ ____
ROOT
ATOM      1  C   UNL     1       2.186   7.780  19.008  0.00  0.00    +0.000 A 
ATOM      2  C   UNL     1       2.486   8.676  17.996  0.00  0.00    +0.000 A 
ATOM      3  C   UNL     1       1.784   9.880  18.024  0.00  0.00    +0.000 A 
ATOM      4  C   UNL     1       0.556   9.900  18.666  0.00  0.00    +0.000 A 
ATOM      5  C   UNL     1       0.670   9.346  19.932  0.00  0.00    +0.000 A 
ATOM      6  C   UNL     1       1.430   8.196  20.096  0.00  0.00    +0.000 A 
ATOM      7  N   UNL     1      -0.315  10.946  18.260  0.00  0.00    +0.000 N 
ATOM      8  C   UNL     1       0.297  12.206  18.500  0.00  0.00    +0.000 A 
ATOM      9  C   UNL     1      -0.509  13.256  18.925  0.00  0.00    +0.000 A 
ATOM     10  C   UNL     1       0.072  14.239  19.700  0.00  0.00    +0.000 A 
ATOM     11  C   UNL     1       1.451  14.177  19.973  0.00  0.00    +0.000 A 
ATOM     12  C   UNL     1       2.281  13.203  19.372  0.00  0.00    +0.000 A 
ATOM     13  C   UNL     1       1.709  12.221  18.572  0.00  0.00    +0.000 A 
ATOM     14  O   UNL     1       2.450  11.144  18.020  0.00  0.00    +0.000 OA
ATOM     15  H   UNL     1      -0.372  10.899  17.238  0.00  0.00    +0.000 HD
ENDROOT
BRANCH   1  16
ATOM     16  S   UNL     1       2.620   6.030  18.973  0.00  0.00    +0.000 S 
ATOM     17  O   UNL     1       1.867   5.432  17.917  0.00  0.00    +0.000 OA
ATOM     18  O   UNL     1       2.519   5.607  20.356  0.00  0.00    +0.000 OA
BRANCH  16  19
ATOM     19  N   UNL     1       4.250   6.026  18.605  0.00  0.00    +0.000 N 
ATOM     20  H   UNL     1       4.838   6.652  19.146  0.00  0.00    +0.000 HD
BRANCH  19  24
ATOM     21  C   UNL     1       5.806   4.488  15.005  0.00  0.00    +0.000 A 
ATOM     22  C   UNL     1       5.511   5.855  15.135  0.00  0.00    +0.000 A 
ATOM     23  C   UNL     1       4.981   6.361  16.322  0.00  0.00    +0.000 A 
ATOM     24  C   UNL     1       4.730   5.501  17.386  0.00  0.00    +0.000 A 
ATOM     25  C   UNL     1       5.004   4.143  17.273  0.00  0.00    +0.000 A 
ATOM     26  C   UNL     1       5.541   3.638  16.089  0.00  0.00    +0.000 A 
BRANCH  21  28
ATOM     27  C   UNL     1       5.332   3.597  12.692  0.00  0.00    +0.000 C 
ATOM     28  C   UNL     1       6.410   3.980  13.711  0.00  0.00    +0.000 C 
ATOM     29  C   UNL     1       7.393   4.986  13.111  0.00  0.00    +0.000 C 
ENDBRANCH  21  28
ENDBRANCH  19  24
ENDBRANCH  16  19
ENDBRANCH   1  16
BRANCH   5  30
ATOM     30  N   UNL     1       0.536  10.197  21.107  0.00  0.00    +0.000 N 
ATOM     31  O   UNL     1       1.553  10.486  21.743  0.00  0.00    +0.000 OA
ATOM     32  O   UNL     1      -0.612  10.604  21.367  0.00  0.00    +0.000 OA
ENDBRANCH   5  30
TORSDOF 5
ENDMDL
MODEL 5
REMARK VINA RESULT:      -8.3      2.973      8.368
REMARK  Name = 
REMARK  7 active torsions:
REMARK  status: ('A' for Active; 'I' for Inactive)
REMARK    1  A    between atoms: C_1  and  C_2
REMARK    2  A    between atoms: C_2  and  C_3
REMARK    3  A    between atoms: C_2  and  C_4
REMARK    4  A    between atoms: C_7  and  N_8
REMARK    5  A    between atoms: N_8  and  S_9
REMARK    6  A    between atoms: S_9  and  C_12
REMARK    7  A    between atoms: C_16  and  N_17
REMARK                            x       y       z     vdW  Elec       q    Type
REMARK                         _______ _______ _______ _____ _____    ______ ____
ROOT
ATOM      1  C   UNL     1       2.132   7.542  19.360  0.00  0.00    +0.000 A 
ATOM      2  C   UNL     1       2.106   8.559  18.423  0.00  0.00    +0.000 A 
ATOM      3  C   UNL     1       1.324   9.665  18.749  0.00  0.00    +0.000 A 
ATOM      4  C   UNL     1       0.280   9.481  19.642  0.00  0.00    +0.000 A 
ATOM      5  C   UNL     1       0.734   8.824  20.776  0.00  0.00    +0.000 A 
ATOM      6  C   UNL     1       1.612   7.760  20.630  0.00  0.00    +0.000 A 
ATOM      7  N   UNL     1      -0.753  10.452  19.566  0.00  0.00    +0.000 N 
ATOM      8  C   UNL     1      -0.220  11.745  19.816  0.00  0.00    +0.000 A 
ATOM      9  C   UNL     1      -0.999  12.649  20.530  0.00  0.00    +0.000 A 
ATOM     10  C   UNL     1      -0.347  13.614  21.271  0.00  0.00    +0.000 A 
ATOM     11  C   UNL     1       1.058  13.687  21.226  0.00  0.00    +0.000 A 
ATOM     12  C   UNL     1       1.812  12.878  20.345  0.00  0.00    +0.000 A 
ATOM     13  C   UNL     1       1.163  11.918  19.578  0.00  0.00    +0.000 A 
ATOM     14  O   UNL     1       1.852  10.993  18.751  0.00  0.00    +0.000 OA
ATOM     15  H   UNL     1      -1.040  10.498  18.583  0.00  0.00    +0.000 HD
ENDROOT
BRANCH   1  16
ATOM     16  S   UNL     1       2.704   5.865  19.021  0.00  0.00    +0.000 S 
ATOM     17  O   UNL     1       1.923   5.367  17.934  0.00  0.00    +0.000 OA
ATOM     18  O   UNL     1       2.746   5.230  20.323  0.00  0.00    +0.000 OA
BRANCH  16  19
ATOM     19  N   UNL     1       4.296   6.070  18.554  0.00  0.00    +0.000 N 
ATOM     20  H   UNL     1       4.811   6.811  19.015  0.00  0.00    +0.000 HD
BRANCH  19  24
ATOM     21  C   UNL     1       5.875   4.500  14.978  0.00  0.00    +0.000 A 
ATOM     22  C   UNL     1       5.509   5.853  15.070  0.00  0.00    +0.000 A 
ATOM     23  C   UNL     1       4.972   6.368  16.248  0.00  0.00    +0.000 A 
ATOM     24  C   UNL     1       4.783   5.531  17.344  0.00  0.00    +0.000 A 
ATOM     25  C   UNL     1       5.128   4.186  17.269  0.00  0.00    +0.000 A 
ATOM     26  C   UNL     1       5.673   3.672  16.093  0.00  0.00    +0.000 A 
BRANCH  21  28
ATOM     27  C   UNL     1       5.412   3.556  12.683  0.00  0.00    +0.000 C 
ATOM     28  C   UNL     1       6.485   3.982  13.690  0.00  0.00    +0.000 C 
ATOM     29  C   UNL     1       7.443   5.000  13.068  0.00  0.00    +0.000 C 
ENDBRANCH  21  28
ENDBRANCH  19  24
ENDBRANCH  16  19
ENDBRANCH   1  16
BRANCH   5  30
ATOM     30  N   UNL     1       0.797   9.536  22.046  0.00  0.00    +0.000 N 
ATOM     31  O   UNL     1      -0.262   9.858  22.593  0.00  0.00    +0.000 OA
ATOM     32  O   UNL     1       1.934   9.741  22.509  0.00  0.00    +0.000 OA
ENDBRANCH   5  30
TORSDOF 5
ENDMDL
MODEL 6
REMARK VINA RESULT:      -8.2      5.440      7.997
REMARK  Name = 
REMARK  7 active torsions:
REMARK  status: ('A' for Active; 'I' for Inactive)
REMARK    1  A    between atoms: C_1  and  C_2
REMARK    2  A    between atoms: C_2  and  C_3
REMARK    3  A    between atoms: C_2  and  C_4
REMARK    4  A    between atoms: C_7  and  N_8
REMARK    5  A    between atoms: N_8  and  S_9
REMARK    6  A    between atoms: S_9  and  C_12
REMARK    7  A    between atoms: C_16  and  N_17
REMARK                            x       y       z     vdW  Elec       q    Type
REMARK                         _______ _______ _______ _____ _____    ______ ____
ROOT
ATOM      1  C   UNL     1       6.066   5.119  18.111  0.00  0.00    +0.000 A 
ATOM      2  C   UNL     1       5.108   5.982  18.614  0.00  0.00    +0.000 A 
ATOM      3  C   UNL     1       3.852   5.425  18.846  0.00  0.00    +0.000 A 
ATOM      4  C   UNL     1       3.498   4.298  18.122  0.00  0.00    +0.000 A 
ATOM      5  C   UNL     1       4.502   3.345  18.203  0.00  0.00    +0.000 A 
ATOM      6  C   UNL     1       5.825   3.751  18.099  0.00  0.00    +0.000 A 
ATOM      7  N   UNL     1       2.101   4.068  18.014  0.00  0.00    +0.000 N 
ATOM      8  C   UNL     1       1.534   3.921  19.309  0.00  0.00    +0.000 A 
ATOM      9  C   UNL     1       0.508   2.998  19.475  0.00  0.00    +0.000 A 
ATOM     10  C   UNL     1       0.359   2.420  20.719  0.00  0.00    +0.000 A 
ATOM     11  C   UNL     1       1.196   2.827  21.774  0.00  0.00    +0.000 A 
ATOM     12  C   UNL     1       2.103   3.902  21.626  0.00  0.00    +0.000 A 
ATOM     13  C   UNL     1       2.244   4.505  20.382  0.00  0.00    +0.000 A 
ATOM     14  O   UNL     1       3.207   5.515  20.118  0.00  0.00    +0.000 OA
ATOM     15  H   UNL     1       1.686   4.940  17.670  0.00  0.00    +0.000 HD
ENDROOT
BRANCH   1  16
ATOM     16  S   UNL     1       7.607   5.654  17.342  0.00  0.00    +0.000 S 
ATOM     17  O   UNL     1       8.431   4.496  17.203  0.00  0.00    +0.000 OA
ATOM     18  O   UNL     1       8.003   6.821  18.106  0.00  0.00    +0.000 OA
BRANCH  16  19
ATOM     19  N   UNL     1       7.135   6.220  15.842  0.00  0.00    +0.000 N 
ATOM     20  H   UNL     1       6.949   7.215  15.772  0.00  0.00    +0.000 HD
BRANCH  19  24
ATOM     21  C   UNL     1       5.730   3.514  12.936  0.00  0.00    +0.000 A 
ATOM     22  C   UNL     1       7.014   4.074  12.836  0.00  0.00    +0.000 A 
ATOM     23  C   UNL     1       7.472   4.982  13.790  0.00  0.00    +0.000 A 
ATOM     24  C   UNL     1       6.645   5.348  14.847  0.00  0.00    +0.000 A 
ATOM     25  C   UNL     1       5.366   4.814  14.956  0.00  0.00    +0.000 A 
ATOM     26  C   UNL     1       4.910   3.900  14.007  0.00  0.00    +0.000 A 
BRANCH  21  28
ATOM     27  C   UNL     1       4.150   3.061  11.020  0.00  0.00    +0.000 C 
ATOM     28  C   UNL     1       5.277   2.507  11.897  0.00  0.00    +0.000 C 
ATOM     29  C   UNL     1       6.444   2.016  11.038  0.00  0.00    +0.000 C 
ENDBRANCH  21  28
ENDBRANCH  19  24
ENDBRANCH  16  19
ENDBRANCH   1  16
BRANCH   5  30
ATOM     30  N   UNL     1       4.268   2.111  18.943  0.00  0.00    +0.000 N 
ATOM     31  O   UNL     1       3.564   1.240  18.427  0.00  0.00    +0.000 OA
ATOM     32  O   UNL     1       4.835   2.013  20.048  0.00  0.00    +0.000 OA
ENDBRANCH   5  30
TORSDOF 5
ENDMDL
MODEL 7
REMARK VINA RESULT:      -8.1      0.799      1.493
REMARK  Name = 
REMARK  7 active torsions:
REMARK  status: ('A' for Active; 'I' for Inactive)
REMARK    1  A    between atoms: C_1  and  C_2
REMARK    2  A    between atoms: C_2  and  C_3
REMARK    3  A    between atoms: C_2  and  C_4
REMARK    4  A    between atoms: C_7  and  N_8
REMARK    5  A    between atoms: N_8  and  S_9
REMARK    6  A    between atoms: S_9  and  C_12
REMARK    7  A    between atoms: C_16  and  N_17
REMARK                            x       y       z     vdW  Elec       q    Type
REMARK                         _______ _______ _______ _____ _____    ______ ____
ROOT
ATOM      1  C   UNL     1       1.287   8.229  20.038  0.00  0.00    +0.000 A 
ATOM      2  C   UNL     1       1.975   8.108  18.843  0.00  0.00    +0.000 A 
ATOM      3  C   UNL     1       2.730   6.946  18.693  0.00  0.00    +0.000 A 
ATOM      4  C   UNL     1       3.157   6.298  19.841  0.00  0.00    +0.000 A 
ATOM      5  C   UNL     1       2.090   6.105  20.705  0.00  0.00    +0.000 A 
ATOM      6  C   UNL     1       1.177   7.134  20.885  0.00  0.00    +0.000 A 
ATOM      7  N   UNL     1       4.287   5.455  19.669  0.00  0.00    +0.000 N 
ATOM      8  C   UNL     1       3.996   4.448  18.709  0.00  0.00    +0.000 A 
ATOM      9  C   UNL     1       4.520   3.176  18.915  0.00  0.00    +0.000 A 
ATOM     10  C   UNL     1       3.824   2.103  18.396  0.00  0.00    +0.000 A 
ATOM     11  C   UNL     1       2.663   2.336  17.636  0.00  0.00    +0.000 A 
ATOM     12  C   UNL     1       2.259   3.645  17.284  0.00  0.00    +0.000 A 
ATOM     13  C   UNL     1       2.967   4.732  17.783  0.00  0.00    +0.000 A 
ATOM     14  O   UNL     1       2.568   6.078  17.570  0.00  0.00    +0.000 OA
ATOM     15  H   UNL     1       5.007   6.021  19.209  0.00  0.00    +0.000 HD
ENDROOT
BRANCH   1  16
ATOM     16  S   UNL     1       0.593   9.776  20.655  0.00  0.00    +0.000 S 
ATOM     17  O   UNL     1       1.623  10.432  21.396  0.00  0.00    +0.000 OA
ATOM     18  O   UNL     1      -0.679   9.392  21.236  0.00  0.00    +0.000 OA
BRANCH  16  19
ATOM     19  N   UNL     1       0.229  10.635  19.269  0.00  0.00    +0.000 N 
ATOM     20  H   UNL     1       0.944  11.268  18.927  0.00  0.00    +0.000 HD
BRANCH  19  24
ATOM     21  C   UNL     1      -3.783  10.987  18.031  0.00  0.00    +0.000 A 
ATOM     22  C   UNL     1      -2.967   9.952  17.543  0.00  0.00    +0.000 A 
ATOM     23  C   UNL     1      -1.635   9.846  17.941  0.00  0.00    +0.000 A 
ATOM     24  C   UNL     1      -1.102  10.781  18.822  0.00  0.00    +0.000 A 
ATOM     25  C   UNL     1      -1.890  11.820  19.306  0.00  0.00    +0.000 A 
ATOM     26  C   UNL     1      -3.224  11.922  18.915  0.00  0.00    +0.000 A 
BRANCH  21  28
ATOM     27  C   UNL     1      -6.177  10.554  18.699  0.00  0.00    +0.000 C 
ATOM     28  C   UNL     1      -5.234  11.052  17.599  0.00  0.00    +0.000 C 
ATOM     29  C   UNL     1      -5.627  12.458  17.142  0.00  0.00    +0.000 C 
ENDBRANCH  21  28
ENDBRANCH  19  24
ENDBRANCH  16  19
ENDBRANCH   1  16
BRANCH   5  30
ATOM     30  N   UNL     1       1.590   4.757  20.946  0.00  0.00    +0.000 N 
ATOM     31  O   UNL     1       2.210   4.031  21.728  0.00  0.00    +0.000 OA
ATOM     32  O   UNL     1       0.538   4.445  20.359  0.00  0.00    +0.000 OA
ENDBRANCH   5  30
TORSDOF 5
ENDMDL
MODEL 8
REMARK VINA RESULT:      -8.0      5.399      8.546
REMARK  Name = 
REMARK  7 active torsions:
REMARK  status: ('A' for Active; 'I' for Inactive)
REMARK    1  A    between atoms: C_1  and  C_2
REMARK    2  A    between atoms: C_2  and  C_3
REMARK    3  A    between atoms: C_2  and  C_4
REMARK    4  A    between atoms: C_7  and  N_8
REMARK    5  A    between atoms: N_8  and  S_9
REMARK    6  A    between atoms: S_9  and  C_12
REMARK    7  A    between atoms: C_16  and  N_17
REMARK                            x       y       z     vdW  Elec       q    Type
REMARK                         _______ _______ _______ _____ _____    ______ ____
ROOT
ATOM      1  C   UNL     1       5.734   5.220  17.440  0.00  0.00    +0.000 A 
ATOM      2  C   UNL     1       4.823   6.086  18.019  0.00  0.00    +0.000 A 
ATOM      3  C   UNL     1       3.645   5.504  18.485  0.00  0.00    +0.000 A 
ATOM      4  C   UNL     1       3.242   4.309  17.912  0.00  0.00    +0.000 A 
ATOM      5  C   UNL     1       4.291   3.403  17.908  0.00  0.00    +0.000 A 
ATOM      6  C   UNL     1       5.561   3.848  17.569  0.00  0.00    +0.000 A 
ATOM      7  N   UNL     1       1.857   4.019  18.040  0.00  0.00    +0.000 N 
ATOM      8  C   UNL     1       1.501   3.959  19.415  0.00  0.00    +0.000 A 
ATOM      9  C   UNL     1       0.559   3.015  19.807  0.00  0.00    +0.000 A 
ATOM     10  C   UNL     1       0.629   2.536  21.100  0.00  0.00    +0.000 A 
ATOM     11  C   UNL     1       1.595   3.059  21.978  0.00  0.00    +0.000 A 
ATOM     12  C   UNL     1       2.416   4.151  21.610  0.00  0.00    +0.000 A 
ATOM     13  C   UNL     1       2.337   4.655  20.317  0.00  0.00    +0.000 A 
ATOM     14  O   UNL     1       3.198   5.674  19.831  0.00  0.00    +0.000 OA
ATOM     15  H   UNL     1       1.353   4.844  17.699  0.00  0.00    +0.000 HD
ENDROOT
BRANCH   1  16
ATOM     16  S   UNL     1       7.113   5.746  16.403  0.00  0.00    +0.000 S 
ATOM     17  O   UNL     1       8.016   4.643  16.314  0.00  0.00    +0.000 OA
ATOM     18  O   UNL     1       7.492   7.039  16.939  0.00  0.00    +0.000 OA
BRANCH  16  19
ATOM     19  N   UNL     1       6.408   6.048  14.918  0.00  0.00    +0.000 N 
ATOM     20  H   UNL     1       5.776   6.840  14.869  0.00  0.00    +0.000 HD
BRANCH  19  24
ATOM     21  C   UNL     1       6.377   3.034  11.975  0.00  0.00    +0.000 A 
ATOM     22  C   UNL     1       7.400   3.996  12.009  0.00  0.00    +0.000 A 
ATOM     23  C   UNL     1       7.401   5.002  12.973  0.00  0.00    +0.000 A 
ATOM     24  C   UNL     1       6.372   5.064  13.907  0.00  0.00    +0.000 A 
ATOM     25  C   UNL     1       5.343   4.129  13.882  0.00  0.00    +0.000 A 
ATOM     26  C   UNL     1       5.346   3.117  12.923  0.00  0.00    +0.000 A 
BRANCH  21  28
ATOM     27  C   UNL     1       7.798   1.856  10.254  0.00  0.00    +0.000 C 
ATOM     28  C   UNL     1       6.426   1.936  10.931  0.00  0.00    +0.000 C 
ATOM     29  C   UNL     1       6.027   0.580  11.516  0.00  0.00    +0.000 C 
ENDBRANCH  21  28
ENDBRANCH  19  24
ENDBRANCH  16  19
ENDBRANCH   1  16
BRANCH   5  30
ATOM     30  N   UNL     1       4.234   2.227  18.767  0.00  0.00    +0.000 N 
ATOM     31  O   UNL     1       4.842   2.252  19.840  0.00  0.00    +0.000 OA
ATOM     32  O   UNL     1       3.535   1.280  18.361  0.00  0.00    +0.000 OA
ENDBRANCH   5  30
TORSDOF 5
ENDMDL
MODEL 9
REMARK VINA RESULT:      -8.0      5.462      8.053
REMARK  Name = 
REMARK  7 active torsions:
REMARK  status: ('A' for Active; 'I' for Inactive)
REMARK    1  A    between atoms: C_1  and  C_2
REMARK    2  A    between atoms: C_2  and  C_3
REMARK    3  A    between atoms: C_2  and  C_4
REMARK    4  A    between atoms: C_7  and  N_8
REMARK    5  A    between atoms: N_8  and  S_9
REMARK    6  A    between atoms: S_9  and  C_12
REMARK    7  A    between atoms: C_16  and  N_17
REMARK                            x       y       z     vdW  Elec       q    Type
REMARK                         _______ _______ _______ _____ _____    ______ ____
ROOT
ATOM      1  C   UNL     1       5.963   6.110  17.958  0.00  0.00    +0.000 A 
ATOM      2  C   UNL     1       4.731   6.740  18.001  0.00  0.00    +0.000 A 
ATOM      3  C   UNL     1       3.621   5.899  18.051  0.00  0.00    +0.000 A 
ATOM      4  C   UNL     1       3.758   4.615  17.548  0.00  0.00    +0.000 A 
ATOM      5  C   UNL     1       4.882   4.008  18.088  0.00  0.00    +0.000 A 
ATOM      6  C   UNL     1       6.050   4.747  18.210  0.00  0.00    +0.000 A 
ATOM      7  N   UNL     1       2.542   3.987  17.167  0.00  0.00    +0.000 N 
ATOM      8  C   UNL     1       1.670   3.902  18.287  0.00  0.00    +0.000 A 
ATOM      9  C   UNL     1       0.876   2.768  18.414  0.00  0.00    +0.000 A 
ATOM     10  C   UNL     1       0.505   2.384  19.687  0.00  0.00    +0.000 A 
ATOM     11  C   UNL     1       0.884   3.177  20.786  0.00  0.00    +0.000 A 
ATOM     12  C   UNL     1       1.529   4.424  20.611  0.00  0.00    +0.000 A 
ATOM     13  C   UNL     1       1.887   4.830  19.331  0.00  0.00    +0.000 A 
ATOM     14  O   UNL     1       2.631   6.012  19.075  0.00  0.00    +0.000 OA
ATOM     15  H   UNL     1       2.060   4.639  16.540  0.00  0.00    +0.000 HD
ENDROOT
BRANCH   1  16
ATOM     16  S   UNL     1       7.500   6.922  17.476  0.00  0.00    +0.000 S 
ATOM     17  O   UNL     1       7.800   6.496  16.146  0.00  0.00    +0.000 OA
ATOM     18  O   UNL     1       8.390   6.702  18.599  0.00  0.00    +0.000 OA
BRANCH  16  19
ATOM     19  N   UNL     1       7.120   8.549  17.498  0.00  0.00    +0.000 N 
ATOM     20  H   UNL     1       6.343   8.841  16.916  0.00  0.00    +0.000 HD
BRANCH  19  24
ATOM     21  C   UNL     1       9.759  11.477  18.986  0.00  0.00    +0.000 A 
ATOM     22  C   UNL     1       8.926  11.750  17.888  0.00  0.00    +0.000 A 
ATOM     23  C   UNL     1       8.065  10.775  17.386  0.00  0.00    +0.000 A 
ATOM     24  C   UNL     1       8.036   9.513  17.971  0.00  0.00    +0.000 A 
ATOM     25  C   UNL     1       8.861   9.220  19.051  0.00  0.00    +0.000 A 
ATOM     26  C   UNL     1       9.717  10.196  19.557  0.00  0.00    +0.000 A 
BRANCH  21  28
ATOM     27  C   UNL     1      12.070  12.052  19.820  0.00  0.00    +0.000 C 
ATOM     28  C   UNL     1      10.660  12.571  19.524  0.00  0.00    +0.000 C 
ATOM     29  C   UNL     1      10.709  13.777  18.584  0.00  0.00    +0.000 C 
ENDBRANCH  21  28
ENDBRANCH  19  24
ENDBRANCH  16  19
ENDBRANCH   1  16
BRANCH   5  30
ATOM     30  N   UNL     1       4.727   2.898  19.018  0.00  0.00    +0.000 N 
ATOM     31  O   UNL     1       5.115   3.046  20.181  0.00  0.00    +0.000 OA
ATOM     32  O   UNL     1       4.174   1.875  18.573  0.00  0.00    +0.000 OA
ENDBRANCH   5  30
TORSDOF 5
ENDMDL
