MODEL 1
REMARK VINA RESULT:      -6.0      0.000      0.000
REMARK  Name = 
REMARK  5 active torsions:
REMARK  status: ('A' for Active; 'I' for Inactive)
REMARK    1  A    between atoms: C_1  and  C_2
REMARK    2  A    between atoms: C_2  and  C_3
REMARK    3  A    between atoms: C_3  and  C_4
REMARK    4  A    between atoms: C_4  and  N_5
REMARK    5  A    between atoms: C_6  and  C_8
REMARK                            x       y       z     vdW  Elec       q    Type
REMARK                         _______ _______ _______ _____ _____    ______ ____
ROOT
ATOM      1  N   UNL     1       6.050   4.164  14.795  0.00  0.00    +0.000 N 
ATOM      2  C   UNL     1       6.933   5.109  15.262  0.00  0.00    +0.000 C 
ATOM      3  O   UNL     1       7.877   5.514  14.584  0.00  0.00    +0.000 OA
ATOM      4  H   UNL     1       5.233   3.927  15.351  0.00  0.00    +0.000 HD
ENDROOT
BRANCH   2   5
ATOM      5  C   UNL     1       6.720   5.542  16.695  0.00  0.00    +0.000 C 
ATOM      6  C   UNL     1       5.249   5.617  17.058  0.00  0.00    +0.000 C 
ATOM      7  C   UNL     1       5.211   5.187  18.500  0.00  0.00    +0.000 C 
ATOM      8  O   UNL     1       6.348   4.353  18.695  0.00  0.00    +0.000 OA
ATOM      9  C   UNL     1       7.256   4.580  17.705  0.00  0.00    +0.000 C 
ATOM     10  O   UNL     1       8.384   4.107  17.699  0.00  0.00    +0.000 OA
ENDBRANCH   2   5
BRANCH   1  11
ATOM     11  C   UNL     1       6.169   3.604  13.463  0.00  0.00    +0.000 C 
BRANCH  11  12
ATOM     12  C   UNL     1       4.960   3.937  12.589  0.00  0.00    +0.000 C 
BRANCH  12  14
ATOM     13  C   UNL     1       3.478   3.163  10.698  0.00  0.00    +0.000 C 
ATOM     14  C   UNL     1       4.762   2.910  11.472  0.00  0.00    +0.000 C 
ENDBRANCH  12  14
ENDBRANCH  11  12
ENDBRANCH   1  11
TORSDOF 4
ENDMDL
MODEL 2
REMARK VINA RESULT:      -6.0      4.056      4.849
REMARK  Name = 
REMARK  5 active torsions:
REMARK  status: ('A' for Active; 'I' for Inactive)
REMARK    1  A    between atoms: C_1  and  C_2
REMARK    2  A    between atoms: C_2  and  C_3
REMARK    3  A    between atoms: C_3  and  C_4
REMARK    4  A    between atoms: C_4  and  N_5
REMARK    5  A    between atoms: C_6  and  C_8
REMARK                            x       y       z     vdW  Elec       q    Type
REMARK                         _______ _______ _______ _____ _____    ______ ____
ROOT
ATOM      1  N   UNL     1       5.338   3.366  19.159  0.00  0.00    +0.000 N 
ATOM      2  C   UNL     1       5.309   4.654  18.679  0.00  0.00    +0.000 C 
ATOM      3  O   UNL     1       4.267   5.308  18.623  0.00  0.00    +0.000 OA
ATOM      4  H   UNL     1       6.233   2.897  19.275  0.00  0.00    +0.000 HD
ENDROOT
BRANCH   2   5
ATOM      5  C   UNL     1       6.621   5.173  18.137  0.00  0.00    +0.000 C 
ATOM      6  C   UNL     1       6.428   6.337  17.184  0.00  0.00    +0.000 C 
ATOM      7  C   UNL     1       7.625   7.213  17.438  0.00  0.00    +0.000 C 
ATOM      8  O   UNL     1       8.036   6.946  18.774  0.00  0.00    +0.000 OA
ATOM      9  C   UNL     1       7.523   5.752  19.180  0.00  0.00    +0.000 C 
ATOM     10  O   UNL     1       7.827   5.205  20.231  0.00  0.00    +0.000 OA
ENDBRANCH   2   5
BRANCH   1  11
ATOM     11  C   UNL     1       4.143   2.709  19.650  0.00  0.00    +0.000 C 
BRANCH  11  12
ATOM     12  C   UNL     1       3.555   1.742  18.623  0.00  0.00    +0.000 C 
BRANCH  12  14
ATOM     13  C   UNL     1       1.116   2.377  18.776  0.00  0.00    +0.000 C 
ATOM     14  C   UNL     1       2.352   2.344  17.892  0.00  0.00    +0.000 C 
ENDBRANCH  12  14
ENDBRANCH  11  12
ENDBRANCH   1  11
TORSDOF 4
ENDMDL
MODEL 3
REMARK VINA RESULT:      -5.9      2.755      5.581
REMARK  Name = 
REMARK  5 active torsions:
REMARK  status: ('A' for Active; 'I' for Inactive)
REMARK    1  A    between atoms: C_1  and  C_2
REMARK    2  A    between atoms: C_2  and  C_3
REMARK    3  A    between atoms: C_3  and  C_4
REMARK    4  A    between atoms: C_4  and  N_5
REMARK    5  A    between atoms: C_6  and  C_8
REMARK                            x       y       z     vdW  Elec       q    Type
REMARK                         _______ _______ _______ _____ _____    ______ ____
ROOT
ATOM      1  N   UNL     1       4.815   3.566  18.363  0.00  0.00    +0.000 N 
ATOM      2  C   UNL     1       4.864   4.367  17.245  0.00  0.00    +0.000 C 
ATOM      3  O   UNL     1       4.091   5.311  17.083  0.00  0.00    +0.000 OA
ATOM      4  H   UNL     1       5.531   2.857  18.500  0.00  0.00    +0.000 HD
ENDROOT
BRANCH   2   5
ATOM      5  C   UNL     1       5.863   3.946  16.192  0.00  0.00    +0.000 C 
ATOM      6  C   UNL     1       5.490   4.454  14.812  0.00  0.00    +0.000 C 
ATOM      7  C   UNL     1       6.815   4.743  14.162  0.00  0.00    +0.000 C 
ATOM      8  O   UNL     1       7.725   5.018  15.223  0.00  0.00    +0.000 OA
ATOM      9  C   UNL     1       7.231   4.518  16.389  0.00  0.00    +0.000 C 
ATOM     10  O   UNL     1       7.864   4.484  17.435  0.00  0.00    +0.000 OA
ENDBRANCH   2   5
BRANCH   1  11
ATOM     11  C   UNL     1       3.862   3.805  19.428  0.00  0.00    +0.000 C 
BRANCH  11  12
ATOM     12  C   UNL     1       3.606   2.550  20.263  0.00  0.00    +0.000 C 
BRANCH  12  14
ATOM     13  C   UNL     1       1.196   3.108  20.769  0.00  0.00    +0.000 C 
ATOM     14  C   UNL     1       2.563   2.793  21.356  0.00  0.00    +0.000 C 
ENDBRANCH  12  14
ENDBRANCH  11  12
ENDBRANCH   1  11
TORSDOF 4
ENDMDL
MODEL 4
REMARK VINA RESULT:      -5.8      2.393      3.722
REMARK  Name = 
REMARK  5 active torsions:
REMARK  status: ('A' for Active; 'I' for Inactive)
REMARK    1  A    between atoms: C_1  and  C_2
REMARK    2  A    between atoms: C_2  and  C_3
REMARK    3  A    between atoms: C_3  and  C_4
REMARK    4  A    between atoms: C_4  and  N_5
REMARK    5  A    between atoms: C_6  and  C_8
REMARK                            x       y       z     vdW  Elec       q    Type
REMARK                         _______ _______ _______ _____ _____    ______ ____
ROOT
ATOM      1  N   UNL     1       5.734   4.009  16.898  0.00  0.00    +0.000 N 
ATOM      2  C   UNL     1       5.427   4.253  18.217  0.00  0.00    +0.000 C 
ATOM      3  O   UNL     1       6.237   4.756  18.995  0.00  0.00    +0.000 OA
ATOM      4  H   UNL     1       5.006   3.678  16.270  0.00  0.00    +0.000 HD
ENDROOT
BRANCH   2   5
ATOM      5  C   UNL     1       4.065   3.771  18.664  0.00  0.00    +0.000 C 
ATOM      6  C   UNL     1       3.143   3.490  17.493  0.00  0.00    +0.000 C 
ATOM      7  C   UNL     1       2.323   2.316  17.952  0.00  0.00    +0.000 C 
ATOM      8  O   UNL     1       3.119   1.627  18.911  0.00  0.00    +0.000 OA
ATOM      9  C   UNL     1       4.090   2.459  19.380  0.00  0.00    +0.000 C 
ATOM     10  O   UNL     1       4.829   2.180  20.314  0.00  0.00    +0.000 OA
ENDBRANCH   2   5
BRANCH   1  11
ATOM     11  C   UNL     1       7.027   4.353  16.342  0.00  0.00    +0.000 C 
BRANCH  11  12
ATOM     12  C   UNL     1       6.913   4.901  14.920  0.00  0.00    +0.000 C 
BRANCH  12  14
ATOM     13  C   UNL     1       6.431   3.745  12.728  0.00  0.00    +0.000 C 
ATOM     14  C   UNL     1       5.881   4.133  14.091  0.00  0.00    +0.000 C 
ENDBRANCH  12  14
ENDBRANCH  11  12
ENDBRANCH   1  11
TORSDOF 4
ENDMDL
MODEL 5
REMARK VINA RESULT:      -5.8      3.053      4.414
REMARK  Name = 
REMARK  5 active torsions:
REMARK  status: ('A' for Active; 'I' for Inactive)
REMARK    1  A    between atoms: C_1  and  C_2
REMARK    2  A    between atoms: C_2  and  C_3
REMARK    3  A    between atoms: C_3  and  C_4
REMARK    4  A    between atoms: C_4  and  N_5
REMARK    5  A    between atoms: C_6  and  C_8
REMARK                            x       y       z     vdW  Elec       q    Type
REMARK                         _______ _______ _______ _____ _____    ______ ____
ROOT
ATOM      1  N   UNL     1       6.061   3.948  18.164  0.00  0.00    +0.000 N 
ATOM      2  C   UNL     1       5.159   4.512  19.037  0.00  0.00    +0.000 C 
ATOM      3  O   UNL     1       5.384   5.575  19.615  0.00  0.00    +0.000 OA
ATOM      4  H   UNL     1       5.795   3.120  17.639  0.00  0.00    +0.000 HD
ENDROOT
BRANCH   2   5
ATOM      5  C   UNL     1       3.921   3.688  19.309  0.00  0.00    +0.000 C 
ATOM      6  C   UNL     1       2.995   3.631  18.109  0.00  0.00    +0.000 C 
ATOM      7  C   UNL     1       2.404   2.249  18.174  0.00  0.00    +0.000 C 
ATOM      8  O   UNL     1       3.352   1.444  18.866  0.00  0.00    +0.000 OA
ATOM      9  C   UNL     1       4.199   2.243  19.574  0.00  0.00    +0.000 C 
ATOM     10  O   UNL     1       5.023   1.818  20.371  0.00  0.00    +0.000 OA
ENDBRANCH   2   5
BRANCH   1  11
ATOM     11  C   UNL     1       7.324   4.589  17.857  0.00  0.00    +0.000 C 
BRANCH  11  12
ATOM     12  C   UNL     1       7.482   4.862  16.361  0.00  0.00    +0.000 C 
BRANCH  12  14
ATOM     13  C   UNL     1       5.503   5.062  14.806  0.00  0.00    +0.000 C 
ATOM     14  C   UNL     1       6.441   4.109  15.529  0.00  0.00    +0.000 C 
ENDBRANCH  12  14
ENDBRANCH  11  12
ENDBRANCH   1  11
TORSDOF 4
ENDMDL
MODEL 6
REMARK VINA RESULT:      -5.8      1.479      1.732
REMARK  Name = 
REMARK  5 active torsions:
REMARK  status: ('A' for Active; 'I' for Inactive)
REMARK    1  A    between atoms: C_1  and  C_2
REMARK    2  A    between atoms: C_2  and  C_3
REMARK    3  A    between atoms: C_3  and  C_4
REMARK    4  A    between atoms: C_4  and  N_5
REMARK    5  A    between atoms: C_6  and  C_8
REMARK                            x       y       z     vdW  Elec       q    Type
REMARK                         _______ _______ _______ _____ _____    ______ ____
ROOT
ATOM      1  N   UNL     1       6.216   4.045  13.652  0.00  0.00    +0.000 N 
ATOM      2  C   UNL     1       6.926   5.000  14.342  0.00  0.00    +0.000 C 
ATOM      3  O   UNL     1       7.969   5.484  13.903  0.00  0.00    +0.000 OA
ATOM      4  H   UNL     1       5.313   3.742  14.007  0.00  0.00    +0.000 HD
ENDROOT
BRANCH   2   5
ATOM      5  C   UNL     1       6.389   5.340  15.713  0.00  0.00    +0.000 C 
ATOM      6  C   UNL     1       4.893   5.108  15.817  0.00  0.00    +0.000 C 
ATOM      7  C   UNL     1       4.698   4.640  17.233  0.00  0.00    +0.000 C 
ATOM      8  O   UNL     1       5.930   4.045  17.628  0.00  0.00    +0.000 OA
ATOM      9  C   UNL     1       6.928   4.477  16.808  0.00  0.00    +0.000 C 
ATOM     10  O   UNL     1       8.113   4.240  17.000  0.00  0.00    +0.000 OA
ENDBRANCH   2   5
BRANCH   1  11
ATOM     11  C   UNL     1       6.647   3.568  12.353  0.00  0.00    +0.000 C 
BRANCH  11  12
ATOM     12  C   UNL     1       5.773   2.423  11.842  0.00  0.00    +0.000 C 
BRANCH  12  14
ATOM     13  C   UNL     1       6.131  -0.015  11.292  0.00  0.00    +0.000 C 
ATOM     14  C   UNL     1       6.578   1.412  11.021  0.00  0.00    +0.000 C 
ENDBRANCH  12  14
ENDBRANCH  11  12
ENDBRANCH   1  11
TORSDOF 4
ENDMDL
MODEL 7
REMARK VINA RESULT:      -5.8      2.774      5.585
REMARK  Name = 
REMARK  5 active torsions:
REMARK  status: ('A' for Active; 'I' for Inactive)
REMARK    1  A    between atoms: C_1  and  C_2
REMARK    2  A    between atoms: C_2  and  C_3
REMARK    3  A    between atoms: C_3  and  C_4
REMARK    4  A    between atoms: C_4  and  N_5
REMARK    5  A    between atoms: C_6  and  C_8
REMARK                            x       y       z     vdW  Elec       q    Type
REMARK                         _______ _______ _______ _____ _____    ______ ____
ROOT
ATOM      1  N   UNL     1       4.243   4.392  18.824  0.00  0.00    +0.000 N 
ATOM      2  C   UNL     1       4.666   5.111  17.730  0.00  0.00    +0.000 C 
ATOM      3  O   UNL     1       4.258   6.249  17.497  0.00  0.00    +0.000 OA
ATOM      4  H   UNL     1       4.675   3.495  19.027  0.00  0.00    +0.000 HD
ENDROOT
BRANCH   2   5
ATOM      5  C   UNL     1       5.586   4.371  16.786  0.00  0.00    +0.000 C 
ATOM      6  C   UNL     1       5.478   4.883  15.362  0.00  0.00    +0.000 C 
ATOM      7  C   UNL     1       6.878   4.757  14.826  0.00  0.00    +0.000 C 
ATOM      8  O   UNL     1       7.743   4.830  15.954  0.00  0.00    +0.000 OA
ATOM      9  C   UNL     1       7.039   4.554  17.087  0.00  0.00    +0.000 C 
ATOM     10  O   UNL     1       7.555   4.406  18.187  0.00  0.00    +0.000 OA
ENDBRANCH   2   5
BRANCH   1  11
ATOM     11  C   UNL     1       3.307   4.944  19.781  0.00  0.00    +0.000 C 
BRANCH  11  12
ATOM     12  C   UNL     1       1.858   4.606  19.431  0.00  0.00    +0.000 C 
BRANCH  12  14
ATOM     13  C   UNL     1       2.073   3.373  21.623  0.00  0.00    +0.000 C 
ATOM     14  C   UNL     1       1.299   3.494  20.321  0.00  0.00    +0.000 C 
ENDBRANCH  12  14
ENDBRANCH  11  12
ENDBRANCH   1  11
TORSDOF 4
ENDMDL
MODEL 8
REMARK VINA RESULT:      -5.7      1.347      1.590
REMARK  Name = 
REMARK  5 active torsions:
REMARK  status: ('A' for Active; 'I' for Inactive)
REMARK    1  A    between atoms: C_1  and  C_2
REMARK    2  A    between atoms: C_2  and  C_3
REMARK    3  A    between atoms: C_3  and  C_4
REMARK    4  A    between atoms: C_4  and  N_5
REMARK    5  A    between atoms: C_6  and  C_8
REMARK                            x       y       z     vdW  Elec       q    Type
REMARK                         _______ _______ _______ _____ _____    ______ ____
ROOT
ATOM      1  N   UNL     1       6.518   4.784  15.711  0.00  0.00    +0.000 N 
ATOM      2  C   UNL     1       5.838   5.867  16.218  0.00  0.00    +0.000 C 
ATOM      3  O   UNL     1       5.466   6.798  15.505  0.00  0.00    +0.000 OA
ATOM      4  H   UNL     1       6.724   3.995  16.318  0.00  0.00    +0.000 HD
ENDROOT
BRANCH   2   5
ATOM      5  C   UNL     1       5.669   5.878  17.720  0.00  0.00    +0.000 C 
ATOM      6  C   UNL     1       4.238   5.596  18.138  0.00  0.00    +0.000 C 
ATOM      7  C   UNL     1       4.382   4.817  19.417  0.00  0.00    +0.000 C 
ATOM      8  O   UNL     1       5.652   4.176  19.350  0.00  0.00    +0.000 OA
ATOM      9  C   UNL     1       6.432   4.803  18.426  0.00  0.00    +0.000 C 
ATOM     10  O   UNL     1       7.618   4.556  18.259  0.00  0.00    +0.000 OA
ENDBRANCH   2   5
BRANCH   1  11
ATOM     11  C   UNL     1       6.815   4.667  14.297  0.00  0.00    +0.000 C 
BRANCH  11  12
ATOM     12  C   UNL     1       5.766   3.838  13.555  0.00  0.00    +0.000 C 
BRANCH  12  14
ATOM     13  C   UNL     1       5.239   2.508  11.475  0.00  0.00    +0.000 C 
ATOM     14  C   UNL     1       6.277   3.353  12.196  0.00  0.00    +0.000 C 
ENDBRANCH  12  14
ENDBRANCH  11  12
ENDBRANCH   1  11
TORSDOF 4
ENDMDL
MODEL 9
REMARK VINA RESULT:      -5.7      4.145      5.212
REMARK  Name = 
REMARK  5 active torsions:
REMARK  status: ('A' for Active; 'I' for Inactive)
REMARK    1  A    between atoms: C_1  and  C_2
REMARK    2  A    between atoms: C_2  and  C_3
REMARK    3  A    between atoms: C_3  and  C_4
REMARK    4  A    between atoms: C_4  and  N_5
REMARK    5  A    between atoms: C_6  and  C_8
REMARK                            x       y       z     vdW  Elec       q    Type
REMARK                         _______ _______ _______ _____ _____    ______ ____
ROOT
ATOM      1  N   UNL     1       4.327   5.579  18.932  0.00  0.00    +0.000 N 
ATOM      2  C   UNL     1       5.347   4.656  18.899  0.00  0.00    +0.000 C 
ATOM      3  O   UNL     1       5.236   3.540  19.406  0.00  0.00    +0.000 OA
ATOM      4  H   UNL     1       4.428   6.451  18.421  0.00  0.00    +0.000 HD
ENDROOT
BRANCH   2   5
ATOM      5  C   UNL     1       6.640   5.143  18.285  0.00  0.00    +0.000 C 
ATOM      6  C   UNL     1       6.415   6.261  17.285  0.00  0.00    +0.000 C 
ATOM      7  C   UNL     1       7.622   7.143  17.452  0.00  0.00    +0.000 C 
ATOM      8  O   UNL     1       8.081   6.939  18.784  0.00  0.00    +0.000 OA
ATOM      9  C   UNL     1       7.580   5.767  19.265  0.00  0.00    +0.000 C 
ATOM     10  O   UNL     1       7.922   5.270  20.329  0.00  0.00    +0.000 OA
ENDBRANCH   2   5
BRANCH   1  11
ATOM     11  C   UNL     1       3.050   5.279  19.548  0.00  0.00    +0.000 C 
BRANCH  11  12
ATOM     12  C   UNL     1       1.985   4.913  18.516  0.00  0.00    +0.000 C 
BRANCH  12  14
ATOM     13  C   UNL     1       0.907   3.020  19.793  0.00  0.00    +0.000 C 
ATOM     14  C   UNL     1       1.661   3.417  18.534  0.00  0.00    +0.000 C 
ENDBRANCH  12  14
ENDBRANCH  11  12
ENDBRANCH   1  11
TORSDOF 4
ENDMDL
