MODEL 1
REMARK VINA RESULT:      -6.5      0.000      0.000
REMARK  Name = 
REMARK  8 active torsions:
REMARK  status: ('A' for Active; 'I' for Inactive)
REMARK    1  A    between atoms: C_2  and  C_3
REMARK    2  A    between atoms: C_3  and  S_4
REMARK    3  A    between atoms: S_4  and  C_5
REMARK    4  A    between atoms: C_7  and  C_8
REMARK    5  A    between atoms: C_9  and  C_10
REMARK    6  A    between atoms: C_10  and  C_11
REMARK    7  A    between atoms: C_11  and  C_13
REMARK    8  A    between atoms: C_14  and  O_15
REMARK                            x       y       z     vdW  Elec       q    Type
REMARK                         _______ _______ _______ _____ _____    ______ ____
ROOT
ATOM      1  C   UNL     1       2.839   3.799  17.887  0.00  0.00    +0.000 A 
ATOM      2  N   UNL     1       2.698   5.130  18.029  0.00  0.00    +0.000 NA
ATOM      3  C   UNL     1       3.706   5.926  17.601  0.00  0.00    +0.000 A 
ATOM      4  C   UNL     1       3.487   7.401  17.769  0.00  0.00    +0.000 C 
ATOM      5  C   UNL     1       4.868   5.413  17.051  0.00  0.00    +0.000 A 
ATOM      6  C   UNL     1       4.870   4.040  16.930  0.00  0.00    +0.000 A 
ATOM      7  N   UNL     1       3.892   3.206  17.307  0.00  0.00    +0.000 NA
ENDROOT
BRANCH   6   8
ATOM      8  O   UNL     1       5.938   3.443  16.329  0.00  0.00    +0.000 OA
ATOM      9  H   UNL     1       6.218   4.119  15.688  0.00  0.00    +0.000 HD
ENDBRANCH   6   8
BRANCH   1  10
ATOM     10  S   UNL     1       1.489   2.810  18.485  0.00  0.00    +0.000 S 
BRANCH  10  11
ATOM     11  C   UNL     1       0.957   3.803  19.909  0.00  0.00    +0.000 C 
BRANCH  11  13
ATOM     12  C   UNL     1       2.533   2.697  21.548  0.00  0.00    +0.000 C 
ATOM     13  C   UNL     1       1.299   3.073  21.182  0.00  0.00    +0.000 C 
ENDBRANCH  11  13
ENDBRANCH  10  11
ENDBRANCH   1  10
BRANCH   5  14
ATOM     14  C   UNL     1       6.045   6.255  16.626  0.00  0.00    +0.000 C 
BRANCH  14  15
ATOM     15  C   UNL     1       7.123   6.553  17.654  0.00  0.00    +0.000 C 
ATOM     16  C   UNL     1       7.585   5.727  18.611  0.00  0.00    +0.000 C 
ATOM     17  C   UNL     1       7.686   7.951  17.549  0.00  0.00    +0.000 C 
ENDBRANCH  14  15
ENDBRANCH   5  14
TORSDOF 6
ENDMDL
MODEL 2
REMARK VINA RESULT:      -6.1      2.726      5.714
REMARK  Name = 
REMARK  8 active torsions:
REMARK  status: ('A' for Active; 'I' for Inactive)
REMARK    1  A    between atoms: C_2  and  C_3
REMARK    2  A    between atoms: C_3  and  S_4
REMARK    3  A    between atoms: S_4  and  C_5
REMARK    4  A    between atoms: C_7  and  C_8
REMARK    5  A    between atoms: C_9  and  C_10
REMARK    6  A    between atoms: C_10  and  C_11
REMARK    7  A    between atoms: C_11  and  C_13
REMARK    8  A    between atoms: C_14  and  O_15
REMARK                            x       y       z     vdW  Elec       q    Type
REMARK                         _______ _______ _______ _____ _____    ______ ____
ROOT
ATOM      1  C   UNL     1       5.135   5.180  16.823  0.00  0.00    +0.000 A 
ATOM      2  N   UNL     1       4.138   6.042  17.097  0.00  0.00    +0.000 NA
ATOM      3  C   UNL     1       3.426   5.851  18.232  0.00  0.00    +0.000 A 
ATOM      4  C   UNL     1       2.338   6.850  18.495  0.00  0.00    +0.000 C 
ATOM      5  C   UNL     1       3.677   4.796  19.092  0.00  0.00    +0.000 A 
ATOM      6  C   UNL     1       4.745   4.010  18.715  0.00  0.00    +0.000 A 
ATOM      7  N   UNL     1       5.503   4.168  17.622  0.00  0.00    +0.000 NA
ENDROOT
BRANCH   6   8
ATOM      8  O   UNL     1       5.123   2.990  19.536  0.00  0.00    +0.000 OA
ATOM      9  H   UNL     1       5.845   2.577  19.032  0.00  0.00    +0.000 HD
ENDBRANCH   6   8
BRANCH   1  10
ATOM     10  S   UNL     1       6.019   5.476  15.310  0.00  0.00    +0.000 S 
BRANCH  10  11
ATOM     11  C   UNL     1       6.195   3.777  14.692  0.00  0.00    +0.000 C 
BRANCH  11  13
ATOM     12  C   UNL     1       6.625   3.655  12.203  0.00  0.00    +0.000 C 
ATOM     13  C   UNL     1       5.782   3.727  13.244  0.00  0.00    +0.000 C 
ENDBRANCH  11  13
ENDBRANCH  10  11
ENDBRANCH   1  10
BRANCH   5  14
ATOM     14  C   UNL     1       2.866   4.501  20.329  0.00  0.00    +0.000 C 
BRANCH  14  15
ATOM     15  C   UNL     1       1.773   3.450  20.238  0.00  0.00    +0.000 C 
ATOM     16  C   UNL     1       1.080   3.091  19.141  0.00  0.00    +0.000 C 
ATOM     17  C   UNL     1       1.466   2.783  21.557  0.00  0.00    +0.000 C 
ENDBRANCH  14  15
ENDBRANCH   5  14
TORSDOF 6
ENDMDL
MODEL 3
REMARK VINA RESULT:      -6.1      2.661      5.595
REMARK  Name = 
REMARK  8 active torsions:
REMARK  status: ('A' for Active; 'I' for Inactive)
REMARK    1  A    between atoms: C_2  and  C_3
REMARK    2  A    between atoms: C_3  and  S_4
REMARK    3  A    between atoms: S_4  and  C_5
REMARK    4  A    between atoms: C_7  and  C_8
REMARK    5  A    between atoms: C_9  and  C_10
REMARK    6  A    between atoms: C_10  and  C_11
REMARK    7  A    between atoms: C_11  and  C_13
REMARK    8  A    between atoms: C_14  and  O_15
REMARK                            x       y       z     vdW  Elec       q    Type
REMARK                         _______ _______ _______ _____ _____    ______ ____
ROOT
ATOM      1  C   UNL     1       5.427   4.487  16.724  0.00  0.00    +0.000 A 
ATOM      2  N   UNL     1       4.887   5.672  17.065  0.00  0.00    +0.000 NA
ATOM      3  C   UNL     1       3.657   5.672  17.630  0.00  0.00    +0.000 A 
ATOM      4  C   UNL     1       3.112   7.019  18.004  0.00  0.00    +0.000 C 
ATOM      5  C   UNL     1       2.942   4.506  17.840  0.00  0.00    +0.000 A 
ATOM      6  C   UNL     1       3.621   3.362  17.481  0.00  0.00    +0.000 A 
ATOM      7  N   UNL     1       4.848   3.298  16.948  0.00  0.00    +0.000 NA
ENDROOT
BRANCH   6   8
ATOM      8  O   UNL     1       3.033   2.155  17.721  0.00  0.00    +0.000 OA
ATOM      9  H   UNL     1       3.673   1.534  17.331  0.00  0.00    +0.000 HD
ENDBRANCH   6   8
BRANCH   1  10
ATOM     10  S   UNL     1       7.035   4.557  15.972  0.00  0.00    +0.000 S 
BRANCH  10  11
ATOM     11  C   UNL     1       6.583   4.980  14.264  0.00  0.00    +0.000 C 
BRANCH  11  13
ATOM     12  C   UNL     1       6.326   3.443  12.272  0.00  0.00    +0.000 C 
ATOM     13  C   UNL     1       6.091   3.743  13.558  0.00  0.00    +0.000 C 
ENDBRANCH  11  13
ENDBRANCH  10  11
ENDBRANCH   1  10
BRANCH   5  14
ATOM     14  C   UNL     1       1.542   4.462  18.399  0.00  0.00    +0.000 C 
BRANCH  14  15
ATOM     15  C   UNL     1       1.369   4.188  19.883  0.00  0.00    +0.000 C 
ATOM     16  C   UNL     1       1.007   3.026  20.459  0.00  0.00    +0.000 C 
ATOM     17  C   UNL     1       1.632   5.393  20.754  0.00  0.00    +0.000 C 
ENDBRANCH  14  15
ENDBRANCH   5  14
TORSDOF 6
ENDMDL
MODEL 4
REMARK VINA RESULT:      -6.1      1.728      2.300
REMARK  Name = 
REMARK  8 active torsions:
REMARK  status: ('A' for Active; 'I' for Inactive)
REMARK    1  A    between atoms: C_2  and  C_3
REMARK    2  A    between atoms: C_3  and  S_4
REMARK    3  A    between atoms: S_4  and  C_5
REMARK    4  A    between atoms: C_7  and  C_8
REMARK    5  A    between atoms: C_9  and  C_10
REMARK    6  A    between atoms: C_10  and  C_11
REMARK    7  A    between atoms: C_11  and  C_13
REMARK    8  A    between atoms: C_14  and  O_15
REMARK                            x       y       z     vdW  Elec       q    Type
REMARK                         _______ _______ _______ _____ _____    ______ ____
ROOT
ATOM      1  C   UNL     1       4.129   3.111  18.382  0.00  0.00    +0.000 A 
ATOM      2  N   UNL     1       4.338   3.282  17.063  0.00  0.00    +0.000 NA
ATOM      3  C   UNL     1       5.363   4.080  16.680  0.00  0.00    +0.000 A 
ATOM      4  C   UNL     1       5.560   4.222  15.200  0.00  0.00    +0.000 C 
ATOM      5  C   UNL     1       6.172   4.732  17.595  0.00  0.00    +0.000 A 
ATOM      6  C   UNL     1       5.875   4.444  18.909  0.00  0.00    +0.000 A 
ATOM      7  N   UNL     1       4.895   3.641  19.346  0.00  0.00    +0.000 NA
ENDROOT
BRANCH   6   8
ATOM      8  O   UNL     1       6.663   4.975  19.886  0.00  0.00    +0.000 OA
ATOM      9  H   UNL     1       6.036   5.533  20.377  0.00  0.00    +0.000 HD
ENDBRANCH   6   8
BRANCH   1  10
ATOM     10  S   UNL     1       2.759   2.067  18.818  0.00  0.00    +0.000 S 
BRANCH  10  11
ATOM     11  C   UNL     1       1.475   3.316  19.119  0.00  0.00    +0.000 C 
BRANCH  11  13
ATOM     12  C   UNL     1       1.923   3.105  21.600  0.00  0.00    +0.000 C 
ATOM     13  C   UNL     1       1.078   3.283  20.573  0.00  0.00    +0.000 C 
ENDBRANCH  11  13
ENDBRANCH  10  11
ENDBRANCH   1  10
BRANCH   5  14
ATOM     14  C   UNL     1       7.279   5.685  17.217  0.00  0.00    +0.000 C 
BRANCH  14  15
ATOM     15  C   UNL     1       7.011   7.176  17.328  0.00  0.00    +0.000 C 
ATOM     16  C   UNL     1       7.893   8.138  17.658  0.00  0.00    +0.000 C 
ATOM     17  C   UNL     1       5.578   7.555  17.041  0.00  0.00    +0.000 C 
ENDBRANCH  14  15
ENDBRANCH   5  14
TORSDOF 6
ENDMDL
MODEL 5
REMARK VINA RESULT:      -6.0      2.264      5.645
REMARK  Name = 
REMARK  8 active torsions:
REMARK  status: ('A' for Active; 'I' for Inactive)
REMARK    1  A    between atoms: C_2  and  C_3
REMARK    2  A    between atoms: C_3  and  S_4
REMARK    3  A    between atoms: S_4  and  C_5
REMARK    4  A    between atoms: C_7  and  C_8
REMARK    5  A    between atoms: C_9  and  C_10
REMARK    6  A    between atoms: C_10  and  C_11
REMARK    7  A    between atoms: C_11  and  C_13
REMARK    8  A    between atoms: C_14  and  O_15
REMARK                            x       y       z     vdW  Elec       q    Type
REMARK                         _______ _______ _______ _____ _____    ______ ____
ROOT
ATOM      1  C   UNL     1       5.107   4.846  16.980  0.00  0.00    +0.000 A 
ATOM      2  N   UNL     1       4.801   3.558  17.225  0.00  0.00    +0.000 NA
ATOM      3  C   UNL     1       3.592   3.284  17.769  0.00  0.00    +0.000 A 
ATOM      4  C   UNL     1       3.298   1.832  18.005  0.00  0.00    +0.000 C 
ATOM      5  C   UNL     1       2.687   4.279  18.095  0.00  0.00    +0.000 A 
ATOM      6  C   UNL     1       3.107   5.548  17.761  0.00  0.00    +0.000 A 
ATOM      7  N   UNL     1       4.277   5.876  17.196  0.00  0.00    +0.000 NA
ENDROOT
BRANCH   6   8
ATOM      8  O   UNL     1       2.255   6.591  17.970  0.00  0.00    +0.000 OA
ATOM      9  H   UNL     1       1.809   6.669  17.110  0.00  0.00    +0.000 HD
ENDBRANCH   6   8
BRANCH   1  10
ATOM     10  S   UNL     1       6.715   5.140  16.283  0.00  0.00    +0.000 S 
BRANCH  10  11
ATOM     11  C   UNL     1       7.726   5.184  17.792  0.00  0.00    +0.000 C 
BRANCH  11  13
ATOM     12  C   UNL     1       7.658   7.704  17.581  0.00  0.00    +0.000 C 
ATOM     13  C   UNL     1       7.763   6.594  18.326  0.00  0.00    +0.000 C 
ENDBRANCH  11  13
ENDBRANCH  10  11
ENDBRANCH   1  10
BRANCH   5  14
ATOM     14  C   UNL     1       1.359   4.028  18.766  0.00  0.00    +0.000 C 
BRANCH  14  15
ATOM     15  C   UNL     1       1.324   3.955  20.283  0.00  0.00    +0.000 C 
ATOM     16  C   UNL     1       1.141   2.857  21.040  0.00  0.00    +0.000 C 
ATOM     17  C   UNL     1       1.505   5.295  20.956  0.00  0.00    +0.000 C 
ENDBRANCH  14  15
ENDBRANCH   5  14
TORSDOF 6
ENDMDL
MODEL 6
REMARK VINA RESULT:      -6.0      2.774      5.915
REMARK  Name = 
REMARK  8 active torsions:
REMARK  status: ('A' for Active; 'I' for Inactive)
REMARK    1  A    between atoms: C_2  and  C_3
REMARK    2  A    between atoms: C_3  and  S_4
REMARK    3  A    between atoms: S_4  and  C_5
REMARK    4  A    between atoms: C_7  and  C_8
REMARK    5  A    between atoms: C_9  and  C_10
REMARK    6  A    between atoms: C_10  and  C_11
REMARK    7  A    between atoms: C_11  and  C_13
REMARK    8  A    between atoms: C_14  and  O_15
REMARK                            x       y       z     vdW  Elec       q    Type
REMARK                         _______ _______ _______ _____ _____    ______ ____
ROOT
ATOM      1  C   UNL     1       5.377   4.581  16.815  0.00  0.00    +0.000 A 
ATOM      2  N   UNL     1       4.861   3.360  17.048  0.00  0.00    +0.000 NA
ATOM      3  C   UNL     1       3.620   3.285  17.583  0.00  0.00    +0.000 A 
ATOM      4  C   UNL     1       3.088   1.900  17.805  0.00  0.00    +0.000 C 
ATOM      5  C   UNL     1       2.890   4.414  17.913  0.00  0.00    +0.000 A 
ATOM      6  C   UNL     1       3.517   5.599  17.592  0.00  0.00    +0.000 A 
ATOM      7  N   UNL     1       4.728   5.733  17.035  0.00  0.00    +0.000 NA
ENDROOT
BRANCH   6   8
ATOM      8  O   UNL     1       2.848   6.767  17.807  0.00  0.00    +0.000 OA
ATOM      9  H   UNL     1       2.723   6.758  18.772  0.00  0.00    +0.000 HD
ENDBRANCH   6   8
BRANCH   1  10
ATOM     10  S   UNL     1       7.016   4.610  16.128  0.00  0.00    +0.000 S 
BRANCH  10  11
ATOM     11  C   UNL     1       6.639   4.958  14.386  0.00  0.00    +0.000 C 
BRANCH  11  13
ATOM     12  C   UNL     1       6.049   3.488  12.414  0.00  0.00    +0.000 C 
ATOM     13  C   UNL     1       6.093   3.713  13.736  0.00  0.00    +0.000 C 
ENDBRANCH  11  13
ENDBRANCH  10  11
ENDBRANCH   1  10
BRANCH   5  14
ATOM     14  C   UNL     1       1.536   4.381  18.576  0.00  0.00    +0.000 C 
BRANCH  14  15
ATOM     15  C   UNL     1       1.477   4.427  20.093  0.00  0.00    +0.000 C 
ATOM     16  C   UNL     1       1.749   5.481  20.886  0.00  0.00    +0.000 C 
ATOM     17  C   UNL     1       1.080   3.113  20.722  0.00  0.00    +0.000 C 
ENDBRANCH  14  15
ENDBRANCH   5  14
TORSDOF 6
ENDMDL
MODEL 7
REMARK VINA RESULT:      -6.0      2.198      5.620
REMARK  Name = 
REMARK  8 active torsions:
REMARK  status: ('A' for Active; 'I' for Inactive)
REMARK    1  A    between atoms: C_2  and  C_3
REMARK    2  A    between atoms: C_3  and  S_4
REMARK    3  A    between atoms: S_4  and  C_5
REMARK    4  A    between atoms: C_7  and  C_8
REMARK    5  A    between atoms: C_9  and  C_10
REMARK    6  A    between atoms: C_10  and  C_11
REMARK    7  A    between atoms: C_11  and  C_13
REMARK    8  A    between atoms: C_14  and  O_15
REMARK                            x       y       z     vdW  Elec       q    Type
REMARK                         _______ _______ _______ _____ _____    ______ ____
ROOT
ATOM      1  C   UNL     1       5.493   5.520  17.016  0.00  0.00    +0.000 A 
ATOM      2  N   UNL     1       4.617   6.487  17.347  0.00  0.00    +0.000 NA
ATOM      3  C   UNL     1       3.382   6.114  17.756  0.00  0.00    +0.000 A 
ATOM      4  C   UNL     1       2.453   7.231  18.128  0.00  0.00    +0.000 C 
ATOM      5  C   UNL     1       2.995   4.786  17.817  0.00  0.00    +0.000 A 
ATOM      6  C   UNL     1       3.995   3.897  17.486  0.00  0.00    +0.000 A 
ATOM      7  N   UNL     1       5.242   4.206  17.106  0.00  0.00    +0.000 NA
ENDROOT
BRANCH   6   8
ATOM      8  O   UNL     1       3.739   2.562  17.590  0.00  0.00    +0.000 OA
ATOM      9  H   UNL     1       4.560   2.225  17.988  0.00  0.00    +0.000 HD
ENDBRANCH   6   8
BRANCH   1  10
ATOM     10  S   UNL     1       7.091   6.077  16.472  0.00  0.00    +0.000 S 
BRANCH  10  11
ATOM     11  C   UNL     1       7.654   6.964  17.954  0.00  0.00    +0.000 C 
BRANCH  11  13
ATOM     12  C   UNL     1       8.511   9.304  18.385  0.00  0.00    +0.000 C 
ATOM     13  C   UNL     1       7.863   8.418  17.615  0.00  0.00    +0.000 C 
ENDBRANCH  11  13
ENDBRANCH  10  11
ENDBRANCH   1  10
BRANCH   5  14
ATOM     14  C   UNL     1       1.610   4.325  18.196  0.00  0.00    +0.000 C 
BRANCH  14  15
ATOM     15  C   UNL     1       1.343   3.972  19.649  0.00  0.00    +0.000 C 
ATOM     16  C   UNL     1       1.372   4.805  20.707  0.00  0.00    +0.000 C 
ATOM     17  C   UNL     1       1.034   2.510  19.868  0.00  0.00    +0.000 C 
ENDBRANCH  14  15
ENDBRANCH   5  14
TORSDOF 6
ENDMDL
MODEL 8
REMARK VINA RESULT:      -5.9      2.339      5.828
REMARK  Name = 
REMARK  8 active torsions:
REMARK  status: ('A' for Active; 'I' for Inactive)
REMARK    1  A    between atoms: C_2  and  C_3
REMARK    2  A    between atoms: C_3  and  S_4
REMARK    3  A    between atoms: S_4  and  C_5
REMARK    4  A    between atoms: C_7  and  C_8
REMARK    5  A    between atoms: C_9  and  C_10
REMARK    6  A    between atoms: C_10  and  C_11
REMARK    7  A    between atoms: C_11  and  C_13
REMARK    8  A    between atoms: C_14  and  O_15
REMARK                            x       y       z     vdW  Elec       q    Type
REMARK                         _______ _______ _______ _____ _____    ______ ____
ROOT
ATOM      1  C   UNL     1       5.259   4.222  17.615  0.00  0.00    +0.000 A 
ATOM      2  N   UNL     1       5.484   3.535  18.751  0.00  0.00    +0.000 NA
ATOM      3  C   UNL     1       4.438   2.896  19.326  0.00  0.00    +0.000 A 
ATOM      4  C   UNL     1       4.750   2.132  20.579  0.00  0.00    +0.000 C 
ATOM      5  C   UNL     1       3.160   2.951  18.798  0.00  0.00    +0.000 A 
ATOM      6  C   UNL     1       3.073   3.656  17.617  0.00  0.00    +0.000 A 
ATOM      7  N   UNL     1       4.076   4.281  16.987  0.00  0.00    +0.000 NA
ENDROOT
BRANCH   6   8
ATOM      8  O   UNL     1       1.871   3.704  16.976  0.00  0.00    +0.000 OA
ATOM      9  H   UNL     1       1.874   2.873  16.469  0.00  0.00    +0.000 HD
ENDBRANCH   6   8
BRANCH   1  10
ATOM     10  S   UNL     1       6.669   5.051  16.921  0.00  0.00    +0.000 S 
BRANCH  10  11
ATOM     11  C   UNL     1       7.619   5.407  18.429  0.00  0.00    +0.000 C 
BRANCH  11  13
ATOM     12  C   UNL     1       7.598   7.778  17.547  0.00  0.00    +0.000 C 
ATOM     13  C   UNL     1       7.990   6.868  18.451  0.00  0.00    +0.000 C 
ENDBRANCH  11  13
ENDBRANCH  10  11
ENDBRANCH   1  10
BRANCH   5  14
ATOM     14  C   UNL     1       1.951   2.317  19.440  0.00  0.00    +0.000 C 
BRANCH  14  15
ATOM     15  C   UNL     1       1.365   2.977  20.676  0.00  0.00    +0.000 C 
ATOM     16  C   UNL     1       1.260   2.447  21.909  0.00  0.00    +0.000 C 
ATOM     17  C   UNL     1       0.847   4.373  20.426  0.00  0.00    +0.000 C 
ENDBRANCH  14  15
ENDBRANCH   5  14
TORSDOF 6
ENDMDL
MODEL 9
REMARK VINA RESULT:      -5.9      1.487      2.205
REMARK  Name = 
REMARK  8 active torsions:
REMARK  status: ('A' for Active; 'I' for Inactive)
REMARK    1  A    between atoms: C_2  and  C_3
REMARK    2  A    between atoms: C_3  and  S_4
REMARK    3  A    between atoms: S_4  and  C_5
REMARK    4  A    between atoms: C_7  and  C_8
REMARK    5  A    between atoms: C_9  and  C_10
REMARK    6  A    between atoms: C_10  and  C_11
REMARK    7  A    between atoms: C_11  and  C_13
REMARK    8  A    between atoms: C_14  and  O_15
REMARK                            x       y       z     vdW  Elec       q    Type
REMARK                         _______ _______ _______ _____ _____    ______ ____
ROOT
ATOM      1  C   UNL     1       3.490   3.655  17.619  0.00  0.00    +0.000 A 
ATOM      2  N   UNL     1       4.583   3.408  16.873  0.00  0.00    +0.000 NA
ATOM      3  C   UNL     1       5.439   4.432  16.643  0.00  0.00    +0.000 A 
ATOM      4  C   UNL     1       6.648   4.096  15.820  0.00  0.00    +0.000 C 
ATOM      5  C   UNL     1       5.210   5.708  17.125  0.00  0.00    +0.000 A 
ATOM      6  C   UNL     1       4.076   5.817  17.902  0.00  0.00    +0.000 A 
ATOM      7  N   UNL     1       3.211   4.836  18.189  0.00  0.00    +0.000 NA
ENDROOT
BRANCH   6   8
ATOM      8  O   UNL     1       3.804   7.017  18.488  0.00  0.00    +0.000 OA
ATOM      9  H   UNL     1       4.667   7.465  18.453  0.00  0.00    +0.000 HD
ENDBRANCH   6   8
BRANCH   1  10
ATOM     10  S   UNL     1       2.398   2.275  17.870  0.00  0.00    +0.000 S 
BRANCH  10  11
ATOM     11  C   UNL     1       1.028   3.091  18.738  0.00  0.00    +0.000 C 
BRANCH  11  13
ATOM     12  C   UNL     1       1.626   3.474  21.166  0.00  0.00    +0.000 C 
ATOM     13  C   UNL     1       1.074   2.725  20.200  0.00  0.00    +0.000 C 
ENDBRANCH  11  13
ENDBRANCH  10  11
ENDBRANCH   1  10
BRANCH   5  14
ATOM     14  C   UNL     1       6.096   6.894  16.835  0.00  0.00    +0.000 C 
BRANCH  14  15
ATOM     15  C   UNL     1       7.271   7.157  17.761  0.00  0.00    +0.000 C 
ATOM     16  C   UNL     1       7.792   6.314  18.673  0.00  0.00    +0.000 C 
ATOM     17  C   UNL     1       7.867   8.535  17.603  0.00  0.00    +0.000 C 
ENDBRANCH  14  15
ENDBRANCH   5  14
TORSDOF 6
ENDMDL
