MODEL 1
REMARK VINA RESULT:      -6.3      0.000      0.000
REMARK  Name = 
REMARK  7 active torsions:
REMARK  status: ('A' for Active; 'I' for Inactive)
REMARK    1  A    between atoms: C_1  and  C_2
REMARK    2  A    between atoms: C_2  and  C_3
REMARK    3  A    between atoms: C_2  and  C_4
REMARK    4  A    between atoms: C_4  and  N_5
REMARK    5  A    between atoms: C_15  and  C_16
REMARK    6  A    between atoms: C_16  and  C_17
REMARK    7  A    between atoms: C_16  and  C_18
REMARK                            x       y       z     vdW  Elec       q    Type
REMARK                         _______ _______ _______ _____ _____    ______ ____
ROOT
ATOM      1  N   UNL     1       3.544   4.048  18.312  0.00  0.00    +0.000 NA
ATOM      2  C   UNL     1       3.632   5.445  18.735  0.00  0.00    +0.000 C 
ATOM      3  C   UNL     1       5.040   5.862  19.138  0.00  0.00    +0.000 C 
ATOM      4  C   UNL     1       6.076   5.570  18.032  0.00  0.00    +0.000 C 
ATOM      5  C   UNL     1       5.909   4.181  17.420  0.00  0.00    +0.000 C 
ATOM      6  C   UNL     1       4.441   3.821  17.165  0.00  0.00    +0.000 C 
ATOM      7  N   UNL     1       6.026   6.645  16.988  0.00  0.00    +0.000 N 
ATOM      8  C   UNL     1       6.930   7.619  17.492  0.00  0.00    +0.000 A 
ATOM      9  C   UNL     1       6.989   8.945  17.116  0.00  0.00    +0.000 A 
ATOM     10  C   UNL     1       7.912   9.781  17.765  0.00  0.00    +0.000 A 
ATOM     11  C   UNL     1       8.810   9.285  18.745  0.00  0.00    +0.000 A 
ATOM     12  C   UNL     1       8.794   7.917  19.051  0.00  0.00    +0.000 A 
ATOM     13  C   UNL     1       7.851   7.132  18.414  0.00  0.00    +0.000 A 
ATOM     14  C   UNL     1       7.465   5.755  18.675  0.00  0.00    +0.000 C 
ATOM     15  O   UNL     1       8.093   4.977  19.367  0.00  0.00    +0.000 OA
ATOM     16  H   UNL     1       5.107   7.024  16.780  0.00  0.00    +0.000 HD
ENDROOT
BRANCH  11  17
ATOM     17  C   UNL     1       9.752  10.246  19.452  0.00  0.00    +0.000 C 
ATOM     18  C   UNL     1      10.219  11.378  18.530  0.00  0.00    +0.000 C 
ATOM     19  C   UNL     1       9.119  10.810  20.724  0.00  0.00    +0.000 C 
ENDBRANCH  11  17
BRANCH   1  20
ATOM     20  C   UNL     1       3.764   3.068  19.394  0.00  0.00    +0.000 C 
BRANCH  20  22
ATOM     21  C   UNL     1       2.048   3.151  21.287  0.00  0.00    +0.000 C 
ATOM     22  C   UNL     1       2.478   2.450  19.998  0.00  0.00    +0.000 C 
ATOM     23  C   UNL     1       1.339   2.510  18.973  0.00  0.00    +0.000 C 
ENDBRANCH  20  22
ENDBRANCH   1  20
TORSDOF 3
ENDMDL
MODEL 2
REMARK VINA RESULT:      -6.1      4.305      5.720
REMARK  Name = 
REMARK  7 active torsions:
REMARK  status: ('A' for Active; 'I' for Inactive)
REMARK    1  A    between atoms: C_1  and  C_2
REMARK    2  A    between atoms: C_2  and  C_3
REMARK    3  A    between atoms: C_2  and  C_4
REMARK    4  A    between atoms: C_4  and  N_5
REMARK    5  A    between atoms: C_15  and  C_16
REMARK    6  A    between atoms: C_16  and  C_17
REMARK    7  A    between atoms: C_16  and  C_18
REMARK                            x       y       z     vdW  Elec       q    Type
REMARK                         _______ _______ _______ _____ _____    ______ ____
ROOT
ATOM      1  N   UNL     1       3.734   3.135  17.943  0.00  0.00    +0.000 NA
ATOM      2  C   UNL     1       2.781   4.003  17.250  0.00  0.00    +0.000 C 
ATOM      3  C   UNL     1       2.102   5.004  18.173  0.00  0.00    +0.000 C 
ATOM      4  C   UNL     1       3.118   5.851  18.969  0.00  0.00    +0.000 C 
ATOM      5  C   UNL     1       4.247   5.012  19.562  0.00  0.00    +0.000 C 
ATOM      6  C   UNL     1       4.776   3.957  18.583  0.00  0.00    +0.000 C 
ATOM      7  N   UNL     1       3.645   6.959  18.107  0.00  0.00    +0.000 N 
ATOM      8  C   UNL     1       2.704   8.002  18.320  0.00  0.00    +0.000 A 
ATOM      9  C   UNL     1       2.510   9.102  17.509  0.00  0.00    +0.000 A 
ATOM     10  C   UNL     1       1.490  10.006  17.845  0.00  0.00    +0.000 A 
ATOM     11  C   UNL     1       0.702   9.844  19.013  0.00  0.00    +0.000 A 
ATOM     12  C   UNL     1       0.971   8.767  19.871  0.00  0.00    +0.000 A 
ATOM     13  C   UNL     1       1.962   7.882  19.491  0.00  0.00    +0.000 A 
ATOM     14  C   UNL     1       2.314   6.590  20.056  0.00  0.00    +0.000 C 
ATOM     15  O   UNL     1       1.929   6.174  21.132  0.00  0.00    +0.000 OA
ATOM     16  H   UNL     1       3.779   6.738  17.125  0.00  0.00    +0.000 HD
ENDROOT
BRANCH  11  17
ATOM     17  C   UNL     1      -0.424  10.824  19.299  0.00  0.00    +0.000 C 
ATOM     18  C   UNL     1      -1.701  10.477  18.525  0.00  0.00    +0.000 C 
ATOM     19  C   UNL     1      -0.709  10.923  20.798  0.00  0.00    +0.000 C 
ENDBRANCH  11  17
BRANCH   1  20
ATOM     20  C   UNL     1       3.116   2.183  18.886  0.00  0.00    +0.000 C 
BRANCH  20  22
ATOM     21  C   UNL     1       0.591   1.788  18.911  0.00  0.00    +0.000 C 
ATOM     22  C   UNL     1       1.748   2.620  19.467  0.00  0.00    +0.000 C 
ATOM     23  C   UNL     1       1.773   2.512  20.996  0.00  0.00    +0.000 C 
ENDBRANCH  20  22
ENDBRANCH   1  20
TORSDOF 3
ENDMDL
MODEL 3
REMARK VINA RESULT:      -6.1      4.294      5.768
REMARK  Name = 
REMARK  7 active torsions:
REMARK  status: ('A' for Active; 'I' for Inactive)
REMARK    1  A    between atoms: C_1  and  C_2
REMARK    2  A    between atoms: C_2  and  C_3
REMARK    3  A    between atoms: C_2  and  C_4
REMARK    4  A    between atoms: C_4  and  N_5
REMARK    5  A    between atoms: C_15  and  C_16
REMARK    6  A    between atoms: C_16  and  C_17
REMARK    7  A    between atoms: C_16  and  C_18
REMARK                            x       y       z     vdW  Elec       q    Type
REMARK                         _______ _______ _______ _____ _____    ______ ____
ROOT
ATOM      1  N   UNL     1       3.882   3.222  17.740  0.00  0.00    +0.000 NA
ATOM      2  C   UNL     1       2.778   4.011  17.196  0.00  0.00    +0.000 C 
ATOM      3  C   UNL     1       2.142   4.939  18.221  0.00  0.00    +0.000 C 
ATOM      4  C   UNL     1       3.179   5.862  18.897  0.00  0.00    +0.000 C 
ATOM      5  C   UNL     1       4.442   5.118  19.321  0.00  0.00    +0.000 C 
ATOM      6  C   UNL     1       4.926   4.124  18.258  0.00  0.00    +0.000 C 
ATOM      7  N   UNL     1       3.493   7.022  17.999  0.00  0.00    +0.000 N 
ATOM      8  C   UNL     1       2.503   7.976  18.355  0.00  0.00    +0.000 A 
ATOM      9  C   UNL     1       2.113   9.064  17.600  0.00  0.00    +0.000 A 
ATOM     10  C   UNL     1       1.072   9.872  18.084  0.00  0.00    +0.000 A 
ATOM     11  C   UNL     1       0.460   9.630  19.341  0.00  0.00    +0.000 A 
ATOM     12  C   UNL     1       0.929   8.572  20.133  0.00  0.00    +0.000 A 
ATOM     13  C   UNL     1       1.934   7.780  19.609  0.00  0.00    +0.000 A 
ATOM     14  C   UNL     1       2.465   6.518  20.095  0.00  0.00    +0.000 C 
ATOM     15  O   UNL     1       2.260   6.058  21.202  0.00  0.00    +0.000 OA
ATOM     16  H   UNL     1       3.516   6.823  17.003  0.00  0.00    +0.000 HD
ENDROOT
BRANCH  11  17
ATOM     17  C   UNL     1      -0.697  10.506  19.791  0.00  0.00    +0.000 C 
ATOM     18  C   UNL     1      -0.216  11.769  20.516  0.00  0.00    +0.000 C 
ATOM     19  C   UNL     1      -1.609  10.869  18.620  0.00  0.00    +0.000 C 
ENDBRANCH  11  17
BRANCH   1  20
ATOM     20  C   UNL     1       3.476   2.209  18.735  0.00  0.00    +0.000 C 
BRANCH  20  22
ATOM     21  C   UNL     1       2.698   2.563  21.143  0.00  0.00    +0.000 C 
ATOM     22  C   UNL     1       3.897   2.510  20.195  0.00  0.00    +0.000 C 
ATOM     23  C   UNL     1       4.891   1.449  20.680  0.00  0.00    +0.000 C 
ENDBRANCH  20  22
ENDBRANCH   1  20
TORSDOF 3
ENDMDL
MODEL 4
REMARK VINA RESULT:      -5.9      7.450      9.587
REMARK  Name = 
REMARK  7 active torsions:
REMARK  status: ('A' for Active; 'I' for Inactive)
REMARK    1  A    between atoms: C_1  and  C_2
REMARK    2  A    between atoms: C_2  and  C_3
REMARK    3  A    between atoms: C_2  and  C_4
REMARK    4  A    between atoms: C_4  and  N_5
REMARK    5  A    between atoms: C_15  and  C_16
REMARK    6  A    between atoms: C_16  and  C_17
REMARK    7  A    between atoms: C_16  and  C_18
REMARK                            x       y       z     vdW  Elec       q    Type
REMARK                         _______ _______ _______ _____ _____    ______ ____
ROOT
ATOM      1  N   UNL     1       0.423  14.528  20.402  0.00  0.00    +0.000 NA
ATOM      2  C   UNL     1       1.611  13.777  19.997  0.00  0.00    +0.000 C 
ATOM      3  C   UNL     1       1.598  12.332  20.476  0.00  0.00    +0.000 C 
ATOM      4  C   UNL     1       0.317  11.584  20.047  0.00  0.00    +0.000 C 
ATOM      5  C   UNL     1      -0.949  12.405  20.276  0.00  0.00    +0.000 C 
ATOM      6  C   UNL     1      -0.783  13.873  19.866  0.00  0.00    +0.000 C 
ATOM      7  N   UNL     1       0.439  11.140  18.619  0.00  0.00    +0.000 N 
ATOM      8  C   UNL     1       1.067   9.872  18.733  0.00  0.00    +0.000 A 
ATOM      9  C   UNL     1       1.729   9.197  17.727  0.00  0.00    +0.000 A 
ATOM     10  C   UNL     1       2.343   7.973  18.038  0.00  0.00    +0.000 A 
ATOM     11  C   UNL     1       2.252   7.397  19.331  0.00  0.00    +0.000 A 
ATOM     12  C   UNL     1       1.503   8.056  20.317  0.00  0.00    +0.000 A 
ATOM     13  C   UNL     1       0.938   9.272  19.983  0.00  0.00    +0.000 A 
ATOM     14  C   UNL     1       0.299  10.260  20.835  0.00  0.00    +0.000 C 
ATOM     15  O   UNL     1      -0.058  10.063  21.981  0.00  0.00    +0.000 OA
ATOM     16  H   UNL     1       0.930  11.773  17.994  0.00  0.00    +0.000 HD
ENDROOT
BRANCH  11  17
ATOM     17  C   UNL     1       2.981   6.096  19.624  0.00  0.00    +0.000 C 
ATOM     18  C   UNL     1       2.096   5.098  20.382  0.00  0.00    +0.000 C 
ATOM     19  C   UNL     1       3.534   5.468  18.346  0.00  0.00    +0.000 C 
ENDBRANCH  11  17
BRANCH   1  20
ATOM     20  C   UNL     1       0.325  14.777  21.854  0.00  0.00    +0.000 C 
BRANCH  20  22
ATOM     21  C   UNL     1      -1.557  14.536  23.566  0.00  0.00    +0.000 C 
ATOM     22  C   UNL     1      -1.048  15.302  22.344  0.00  0.00    +0.000 C 
ATOM     23  C   UNL     1      -0.947  16.795  22.676  0.00  0.00    +0.000 C 
ENDBRANCH  20  22
ENDBRANCH   1  20
TORSDOF 3
ENDMDL
MODEL 5
REMARK VINA RESULT:      -5.8      7.225      9.752
REMARK  Name = 
REMARK  7 active torsions:
REMARK  status: ('A' for Active; 'I' for Inactive)
REMARK    1  A    between atoms: C_1  and  C_2
REMARK    2  A    between atoms: C_2  and  C_3
REMARK    3  A    between atoms: C_2  and  C_4
REMARK    4  A    between atoms: C_4  and  N_5
REMARK    5  A    between atoms: C_15  and  C_16
REMARK    6  A    between atoms: C_16  and  C_17
REMARK    7  A    between atoms: C_16  and  C_18
REMARK                            x       y       z     vdW  Elec       q    Type
REMARK                         _______ _______ _______ _____ _____    ______ ____
ROOT
ATOM      1  N   UNL     1       0.813  14.635  19.414  0.00  0.00    +0.000 NA
ATOM      2  C   UNL     1       1.969  13.751  19.266  0.00  0.00    +0.000 C 
ATOM      3  C   UNL     1       1.790  12.409  19.962  0.00  0.00    +0.000 C 
ATOM      4  C   UNL     1       0.501  11.686  19.518  0.00  0.00    +0.000 C 
ATOM      5  C   UNL     1      -0.710  12.614  19.474  0.00  0.00    +0.000 C 
ATOM      6  C   UNL     1      -0.385  13.980  18.859  0.00  0.00    +0.000 C 
ATOM      7  N   UNL     1       0.726  11.005  18.200  0.00  0.00    +0.000 N 
ATOM      8  C   UNL     1       1.234   9.734  18.582  0.00  0.00    +0.000 A 
ATOM      9  C   UNL     1       1.933   8.861  17.774  0.00  0.00    +0.000 A 
ATOM     10  C   UNL     1       2.412   7.668  18.339  0.00  0.00    +0.000 A 
ATOM     11  C   UNL     1       2.147   7.321  19.689  0.00  0.00    +0.000 A 
ATOM     12  C   UNL     1       1.362   8.181  20.470  0.00  0.00    +0.000 A 
ATOM     13  C   UNL     1       0.934   9.360  19.888  0.00  0.00    +0.000 A 
ATOM     14  C   UNL     1       0.297  10.515  20.499  0.00  0.00    +0.000 C 
ATOM     15  O   UNL     1      -0.185  10.533  21.615  0.00  0.00    +0.000 OA
ATOM     16  H   UNL     1       1.326  11.492  17.541  0.00  0.00    +0.000 HD
ENDROOT
BRANCH  11  17
ATOM     17  C   UNL     1       2.735   6.043  20.262  0.00  0.00    +0.000 C 
ATOM     18  C   UNL     1       1.661   4.979  20.519  0.00  0.00    +0.000 C 
ATOM     19  C   UNL     1       3.842   5.488  19.366  0.00  0.00    +0.000 C 
ENDBRANCH  11  17
BRANCH   1  20
ATOM     20  C   UNL     1       0.593  15.126  20.789  0.00  0.00    +0.000 C 
BRANCH  20  22
ATOM     21  C   UNL     1       0.925  17.418  19.707  0.00  0.00    +0.000 C 
ATOM     22  C   UNL     1       0.390  16.656  20.921  0.00  0.00    +0.000 C 
ATOM     23  C   UNL     1      -1.098  16.970  21.112  0.00  0.00    +0.000 C 
ENDBRANCH  20  22
ENDBRANCH   1  20
TORSDOF 3
ENDMDL
MODEL 6
REMARK VINA RESULT:      -5.8      7.147      9.037
REMARK  Name = 
REMARK  7 active torsions:
REMARK  status: ('A' for Active; 'I' for Inactive)
REMARK    1  A    between atoms: C_1  and  C_2
REMARK    2  A    between atoms: C_2  and  C_3
REMARK    3  A    between atoms: C_2  and  C_4
REMARK    4  A    between atoms: C_4  and  N_5
REMARK    5  A    between atoms: C_15  and  C_16
REMARK    6  A    between atoms: C_16  and  C_17
REMARK    7  A    between atoms: C_16  and  C_18
REMARK                            x       y       z     vdW  Elec       q    Type
REMARK                         _______ _______ _______ _____ _____    ______ ____
ROOT
ATOM      1  N   UNL     1      -0.172  13.708  20.556  0.00  0.00    +0.000 NA
ATOM      2  C   UNL     1       1.149  13.164  20.241  0.00  0.00    +0.000 C 
ATOM      3  C   UNL     1       1.294  11.694  20.610  0.00  0.00    +0.000 C 
ATOM      4  C   UNL     1       0.189  10.820  19.979  0.00  0.00    +0.000 C 
ATOM      5  C   UNL     1      -1.200  11.438  20.116  0.00  0.00    +0.000 C 
ATOM      6  C   UNL     1      -1.206  12.945  19.836  0.00  0.00    +0.000 C 
ATOM      7  N   UNL     1       0.525  10.524  18.548  0.00  0.00    +0.000 N 
ATOM      8  C   UNL     1       1.314   9.347  18.644  0.00  0.00    +0.000 A 
ATOM      9  C   UNL     1       2.170   8.860  17.677  0.00  0.00    +0.000 A 
ATOM     10  C   UNL     1       2.919   7.709  17.969  0.00  0.00    +0.000 A 
ATOM     11  C   UNL     1       2.775   7.014  19.197  0.00  0.00    +0.000 A 
ATOM     12  C   UNL     1       1.837   7.475  20.133  0.00  0.00    +0.000 A 
ATOM     13  C   UNL     1       1.141   8.628  19.823  0.00  0.00    +0.000 A 
ATOM     14  C   UNL     1       0.278   9.442  20.663  0.00  0.00    +0.000 C 
ATOM     15  O   UNL     1      -0.166   9.097  21.741  0.00  0.00    +0.000 OA
ATOM     16  H   UNL     1       0.983  11.270  18.033  0.00  0.00    +0.000 HD
ENDROOT
BRANCH  11  17
ATOM     17  C   UNL     1       3.649   5.804  19.480  0.00  0.00    +0.000 C 
ATOM     18  C   UNL     1       2.823   4.524  19.653  0.00  0.00    +0.000 C 
ATOM     19  C   UNL     1       4.712   5.619  18.397  0.00  0.00    +0.000 C 
ENDBRANCH  11  17
BRANCH   1  20
ATOM     20  C   UNL     1      -0.459  13.812  22.000  0.00  0.00    +0.000 C 
BRANCH  20  22
ATOM     21  C   UNL     1      -2.506  13.021  23.312  0.00  0.00    +0.000 C 
ATOM     22  C   UNL     1      -1.942  14.080  22.363  0.00  0.00    +0.000 C 
ATOM     23  C   UNL     1      -2.082  15.468  22.997  0.00  0.00    +0.000 C 
ENDBRANCH  20  22
ENDBRANCH   1  20
TORSDOF 3
ENDMDL
MODEL 7
REMARK VINA RESULT:      -5.7      3.966      6.155
REMARK  Name = 
REMARK  7 active torsions:
REMARK  status: ('A' for Active; 'I' for Inactive)
REMARK    1  A    between atoms: C_1  and  C_2
REMARK    2  A    between atoms: C_2  and  C_3
REMARK    3  A    between atoms: C_2  and  C_4
REMARK    4  A    between atoms: C_4  and  N_5
REMARK    5  A    between atoms: C_15  and  C_16
REMARK    6  A    between atoms: C_16  and  C_17
REMARK    7  A    between atoms: C_16  and  C_18
REMARK                            x       y       z     vdW  Elec       q    Type
REMARK                         _______ _______ _______ _____ _____    ______ ____
ROOT
ATOM      1  N   UNL     1       5.471   4.155  18.264  0.00  0.00    +0.000 NA
ATOM      2  C   UNL     1       5.417   5.095  19.383  0.00  0.00    +0.000 C 
ATOM      3  C   UNL     1       4.630   6.359  19.066  0.00  0.00    +0.000 C 
ATOM      4  C   UNL     1       3.206   6.050  18.556  0.00  0.00    +0.000 C 
ATOM      5  C   UNL     1       3.183   4.935  17.513  0.00  0.00    +0.000 C 
ATOM      6  C   UNL     1       4.103   3.765  17.880  0.00  0.00    +0.000 C 
ATOM      7  N   UNL     1       2.304   5.743  19.714  0.00  0.00    +0.000 N 
ATOM      8  C   UNL     1       1.823   7.026  20.090  0.00  0.00    +0.000 A 
ATOM      9  C   UNL     1       1.254   7.359  21.303  0.00  0.00    +0.000 A 
ATOM     10  C   UNL     1       0.889   8.697  21.523  0.00  0.00    +0.000 A 
ATOM     11  C   UNL     1       1.038   9.688  20.518  0.00  0.00    +0.000 A 
ATOM     12  C   UNL     1       1.538   9.313  19.263  0.00  0.00    +0.000 A 
ATOM     13  C   UNL     1       1.916   7.994  19.094  0.00  0.00    +0.000 A 
ATOM     14  C   UNL     1       2.643   7.373  18.001  0.00  0.00    +0.000 C 
ATOM     15  O   UNL     1       2.840   7.887  16.917  0.00  0.00    +0.000 OA
ATOM     16  H   UNL     1       2.724   5.233  20.486  0.00  0.00    +0.000 HD
ENDROOT
BRANCH  11  17
ATOM     17  C   UNL     1       0.674  11.130  20.830  0.00  0.00    +0.000 C 
ATOM     18  C   UNL     1       1.295  12.110  19.827  0.00  0.00    +0.000 C 
ATOM     19  C   UNL     1      -0.841  11.318  20.904  0.00  0.00    +0.000 C 
ENDBRANCH  11  17
BRANCH   1  20
ATOM     20  C   UNL     1       6.262   4.625  17.109  0.00  0.00    +0.000 C 
BRANCH  20  22
ATOM     21  C   UNL     1       5.383   6.106  15.221  0.00  0.00    +0.000 C 
ATOM     22  C   UNL     1       5.498   4.680  15.762  0.00  0.00    +0.000 C 
ATOM     23  C   UNL     1       6.199   3.791  14.729  0.00  0.00    +0.000 C 
ENDBRANCH  20  22
ENDBRANCH   1  20
TORSDOF 3
ENDMDL
MODEL 8
REMARK VINA RESULT:      -5.7      1.224      1.358
REMARK  Name = 
REMARK  7 active torsions:
REMARK  status: ('A' for Active; 'I' for Inactive)
REMARK    1  A    between atoms: C_1  and  C_2
REMARK    2  A    between atoms: C_2  and  C_3
REMARK    3  A    between atoms: C_2  and  C_4
REMARK    4  A    between atoms: C_4  and  N_5
REMARK    5  A    between atoms: C_15  and  C_16
REMARK    6  A    between atoms: C_16  and  C_17
REMARK    7  A    between atoms: C_16  and  C_18
REMARK                            x       y       z     vdW  Elec       q    Type
REMARK                         _______ _______ _______ _____ _____    ______ ____
ROOT
ATOM      1  N   UNL     1       4.102   4.764  17.118  0.00  0.00    +0.000 NA
ATOM      2  C   UNL     1       4.088   6.129  17.642  0.00  0.00    +0.000 C 
ATOM      3  C   UNL     1       5.345   6.483  18.425  0.00  0.00    +0.000 C 
ATOM      4  C   UNL     1       6.632   6.234  17.610  0.00  0.00    +0.000 C 
ATOM      5  C   UNL     1       6.619   4.892  16.883  0.00  0.00    +0.000 C 
ATOM      6  C   UNL     1       5.265   4.587  16.231  0.00  0.00    +0.000 C 
ATOM      7  N   UNL     1       6.866   7.374  16.663  0.00  0.00    +0.000 N 
ATOM      8  C   UNL     1       7.614   8.291  17.448  0.00  0.00    +0.000 A 
ATOM      9  C   UNL     1       7.781   9.637  17.191  0.00  0.00    +0.000 A 
ATOM     10  C   UNL     1       8.509  10.406  18.112  0.00  0.00    +0.000 A 
ATOM     11  C   UNL     1       9.116   9.827  19.257  0.00  0.00    +0.000 A 
ATOM     12  C   UNL     1       9.008   8.443  19.455  0.00  0.00    +0.000 A 
ATOM     13  C   UNL     1       8.258   7.723  18.544  0.00  0.00    +0.000 A 
ATOM     14  C   UNL     1       7.806   6.344  18.602  0.00  0.00    +0.000 C 
ATOM     15  O   UNL     1       8.224   5.508  19.380  0.00  0.00    +0.000 OA
ATOM     16  H   UNL     1       6.036   7.789  16.249  0.00  0.00    +0.000 HD
ENDROOT
BRANCH  11  17
ATOM     17  C   UNL     1       9.848  10.716  20.248  0.00  0.00    +0.000 C 
ATOM     18  C   UNL     1      10.862  11.636  19.557  0.00  0.00    +0.000 C 
ATOM     19  C   UNL     1       8.869  11.530  21.094  0.00  0.00    +0.000 C 
ENDBRANCH  11  17
BRANCH   1  20
ATOM     20  C   UNL     1       4.022   3.713  18.151  0.00  0.00    +0.000 C 
BRANCH  20  22
ATOM     21  C   UNL     1       3.489   1.237  18.490  0.00  0.00    +0.000 C 
ATOM     22  C   UNL     1       3.050   2.549  17.838  0.00  0.00    +0.000 C 
ATOM     23  C   UNL     1       1.635   2.910  18.306  0.00  0.00    +0.000 C 
ENDBRANCH  20  22
ENDBRANCH   1  20
TORSDOF 3
ENDMDL
MODEL 9
REMARK VINA RESULT:      -5.6      7.166      9.112
REMARK  Name = 
REMARK  7 active torsions:
REMARK  status: ('A' for Active; 'I' for Inactive)
REMARK    1  A    between atoms: C_1  and  C_2
REMARK    2  A    between atoms: C_2  and  C_3
REMARK    3  A    between atoms: C_2  and  C_4
REMARK    4  A    between atoms: C_4  and  N_5
REMARK    5  A    between atoms: C_15  and  C_16
REMARK    6  A    between atoms: C_16  and  C_17
REMARK    7  A    between atoms: C_16  and  C_18
REMARK                            x       y       z     vdW  Elec       q    Type
REMARK                         _______ _______ _______ _____ _____    ______ ____
ROOT
ATOM      1  N   UNL     1       6.069  12.236  25.013  0.00  0.00    +0.000 NA
ATOM      2  C   UNL     1       5.880  12.048  23.574  0.00  0.00    +0.000 C 
ATOM      3  C   UNL     1       6.872  12.838  22.732  0.00  0.00    +0.000 C 
ATOM      4  C   UNL     1       8.336  12.546  23.124  0.00  0.00    +0.000 C 
ATOM      5  C   UNL     1       8.552  12.545  24.635  0.00  0.00    +0.000 C 
ATOM      6  C   UNL     1       7.431  11.822  25.391  0.00  0.00    +0.000 C 
ATOM      7  N   UNL     1       8.786  11.259  22.499  0.00  0.00    +0.000 N 
ATOM      8  C   UNL     1       9.274  11.675  21.231  0.00  0.00    +0.000 A 
ATOM      9  C   UNL     1       9.469  10.868  20.129  0.00  0.00    +0.000 A 
ATOM     10  C   UNL     1       9.904  11.464  18.935  0.00  0.00    +0.000 A 
ATOM     11  C   UNL     1      10.197  12.850  18.854  0.00  0.00    +0.000 A 
ATOM     12  C   UNL     1      10.075  13.638  20.007  0.00  0.00    +0.000 A 
ATOM     13  C   UNL     1       9.615  13.022  21.156  0.00  0.00    +0.000 A 
ATOM     14  C   UNL     1       9.199  13.610  22.418  0.00  0.00    +0.000 C 
ATOM     15  O   UNL     1       9.415  14.759  22.754  0.00  0.00    +0.000 OA
ATOM     16  H   UNL     1       8.087  10.524  22.435  0.00  0.00    +0.000 HD
ENDROOT
BRANCH  11  17
ATOM     17  C   UNL     1      10.614  13.451  17.522  0.00  0.00    +0.000 C 
ATOM     18  C   UNL     1      10.517  14.981  17.524  0.00  0.00    +0.000 C 
ATOM     19  C   UNL     1      12.018  12.998  17.123  0.00  0.00    +0.000 C 
ENDBRANCH  11  17
BRANCH   1  20
ATOM     20  C   UNL     1       5.742  13.591  25.498  0.00  0.00    +0.000 C 
BRANCH  20  22
ATOM     21  C   UNL     1       6.790  15.106  27.270  0.00  0.00    +0.000 C 
ATOM     22  C   UNL     1       5.988  13.830  27.009  0.00  0.00    +0.000 C 
ATOM     23  C   UNL     1       4.648  13.902  27.751  0.00  0.00    +0.000 C 
ENDBRANCH  20  22
ENDBRANCH   1  20
TORSDOF 3
ENDMDL
