MODEL 1
REMARK VINA RESULT:      -8.9      0.000      0.000
REMARK  Name = 
REMARK  6 active torsions:
REMARK  status: ('A' for Active; 'I' for Inactive)
REMARK    1  A    between atoms: C_5  and  C_6
REMARK    2  A    between atoms: C_6  and  O_7
REMARK    3  A    between atoms: O_7  and  C_8
REMARK    4  A    between atoms: C_15  and  C_16
REMARK    5  A    between atoms: C_16  and  C_17
REMARK    6  A    between atoms: C_16  and  C_23
REMARK                            x       y       z     vdW  Elec       q    Type
REMARK                         _______ _______ _______ _____ _____    ______ ____
ROOT
ATOM      1  C   UNL     1       3.781   5.351  18.047  0.00  0.00    +0.000 C 
ATOM      2  C   UNL     1       2.990   4.627  19.169  0.00  0.00    +0.000 C 
ATOM      3  C   UNL     1       1.772   3.926  18.540  0.00  0.00    +0.000 C 
ATOM      4  C   UNL     1       2.249   2.957  17.450  0.00  0.00    +0.000 C 
ATOM      5  N   UNL     1       3.725   2.903  17.390  0.00  0.00    +0.000 NA
ATOM      6  C   UNL     1       4.230   2.506  18.719  0.00  0.00    +0.000 C 
ATOM      7  C   UNL     1       3.906   3.560  19.780  0.00  0.00    +0.000 C 
ATOM      8  C   UNL     1       4.231   4.275  16.992  0.00  0.00    +0.000 C 
ENDROOT
BRANCH   1   9
ATOM      9  O   UNL     1       2.940   6.333  17.394  0.00  0.00    +0.000 OA
BRANCH   9  10
ATOM     10  C   UNL     1       3.281   7.674  17.755  0.00  0.00    +0.000 C 
BRANCH  10  15
ATOM     11 CL   UNL     1      -0.808  10.727  20.974  0.00  0.00    +0.000 Cl
ATOM     12  C   UNL     1       0.305   9.822  20.023  0.00  0.00    +0.000 A 
ATOM     13  C   UNL     1       1.014   8.777  20.606  0.00  0.00    +0.000 A 
ATOM     14  C   UNL     1       1.944   8.069  19.844  0.00  0.00    +0.000 A 
ATOM     15  C   UNL     1       2.172   8.393  18.494  0.00  0.00    +0.000 A 
ATOM     16  C   UNL     1       1.438   9.437  17.920  0.00  0.00    +0.000 A 
ATOM     17  C   UNL     1       0.504  10.149  18.682  0.00  0.00    +0.000 A 
ENDBRANCH  10  15
ENDBRANCH   9  10
ENDBRANCH   1   9
BRANCH   8  18
ATOM     18  C   UNL     1       5.789   4.271  16.683  0.00  0.00    +0.000 C 
BRANCH  18  19
ATOM     19  C   UNL     1       6.023   4.297  15.163  0.00  0.00    +0.000 A 
ATOM     20  C   UNL     1       5.085   3.733  14.281  0.00  0.00    +0.000 A 
ATOM     21  C   UNL     1       5.354   3.636  12.915  0.00  0.00    +0.000 A 
ATOM     22  C   UNL     1       6.556   4.118  12.405  0.00  0.00    +0.000 A 
ATOM     23  C   UNL     1       7.479   4.719  13.259  0.00  0.00    +0.000 A 
ATOM     24  C   UNL     1       7.214   4.812  14.629  0.00  0.00    +0.000 A 
ENDBRANCH  18  19
BRANCH  18  25
ATOM     25  C   UNL     1       6.639   5.332  17.388  0.00  0.00    +0.000 A 
ATOM     26  C   UNL     1       6.685   6.637  16.860  0.00  0.00    +0.000 A 
ATOM     27  C   UNL     1       7.443   7.638  17.472  0.00  0.00    +0.000 A 
ATOM     28  C   UNL     1       8.168   7.352  18.625  0.00  0.00    +0.000 A 
ATOM     29  C   UNL     1       8.128   6.070  19.167  0.00  0.00    +0.000 A 
ATOM     30  C   UNL     1       7.361   5.071  18.560  0.00  0.00    +0.000 A 
ENDBRANCH  18  25
ENDBRANCH   8  18
TORSDOF 6
ENDMDL
MODEL 2
REMARK VINA RESULT:      -8.8      0.100      1.248
REMARK  Name = 
REMARK  6 active torsions:
REMARK  status: ('A' for Active; 'I' for Inactive)
REMARK    1  A    between atoms: C_5  and  C_6
REMARK    2  A    between atoms: C_6  and  O_7
REMARK    3  A    between atoms: O_7  and  C_8
REMARK    4  A    between atoms: C_15  and  C_16
REMARK    5  A    between atoms: C_16  and  C_17
REMARK    6  A    between atoms: C_16  and  C_23
REMARK                            x       y       z     vdW  Elec       q    Type
REMARK                         _______ _______ _______ _____ _____    ______ ____
ROOT
ATOM      1  C   UNL     1       3.807   5.351  18.066  0.00  0.00    +0.000 C 
ATOM      2  C   UNL     1       2.995   4.616  19.166  0.00  0.00    +0.000 C 
ATOM      3  C   UNL     1       1.801   3.905  18.506  0.00  0.00    +0.000 C 
ATOM      4  C   UNL     1       2.315   2.943  17.427  0.00  0.00    +0.000 C 
ATOM      5  N   UNL     1       3.793   2.904  17.404  0.00  0.00    +0.000 NA
ATOM      6  C   UNL     1       4.267   2.509  18.745  0.00  0.00    +0.000 C 
ATOM      7  C   UNL     1       3.905   3.558  19.799  0.00  0.00    +0.000 C 
ATOM      8  C   UNL     1       4.295   4.281  17.022  0.00  0.00    +0.000 C 
ENDROOT
BRANCH   1   9
ATOM      9  O   UNL     1       2.973   6.325  17.393  0.00  0.00    +0.000 OA
BRANCH   9  10
ATOM     10  C   UNL     1       3.326   7.670  17.725  0.00  0.00    +0.000 C 
BRANCH  10  15
ATOM     11 CL   UNL     1      -0.729  10.793  20.921  0.00  0.00    +0.000 Cl
ATOM     12  C   UNL     1       0.373   9.872  19.973  0.00  0.00    +0.000 A 
ATOM     13  C   UNL     1       1.016   8.776  20.541  0.00  0.00    +0.000 A 
ATOM     14  C   UNL     1       1.938   8.053  19.784  0.00  0.00    +0.000 A 
ATOM     15  C   UNL     1       2.225   8.414  18.454  0.00  0.00    +0.000 A 
ATOM     16  C   UNL     1       1.558   9.509  17.895  0.00  0.00    +0.000 A 
ATOM     17  C   UNL     1       0.631  10.236  18.652  0.00  0.00    +0.000 A 
ENDBRANCH  10  15
ENDBRANCH   9  10
ENDBRANCH   1   9
BRANCH   8  18
ATOM     18  C   UNL     1       5.861   4.294  16.753  0.00  0.00    +0.000 C 
BRANCH  18  19
ATOM     19  C   UNL     1       6.135   4.196  15.243  0.00  0.00    +0.000 A 
ATOM     20  C   UNL     1       7.303   4.747  14.688  0.00  0.00    +0.000 A 
ATOM     21  C   UNL     1       7.493   4.778  13.305  0.00  0.00    +0.000 A 
ATOM     22  C   UNL     1       6.529   4.241  12.457  0.00  0.00    +0.000 A 
ATOM     23  C   UNL     1       5.385   3.653  12.993  0.00  0.00    +0.000 A 
ATOM     24  C   UNL     1       5.190   3.626  14.377  0.00  0.00    +0.000 A 
ENDBRANCH  18  19
BRANCH  18  25
ATOM     25  C   UNL     1       6.664   5.434  17.386  0.00  0.00    +0.000 A 
ATOM     26  C   UNL     1       7.411   5.183  18.553  0.00  0.00    +0.000 A 
ATOM     27  C   UNL     1       8.162   6.191  19.162  0.00  0.00    +0.000 A 
ATOM     28  C   UNL     1       8.180   7.470  18.612  0.00  0.00    +0.000 A 
ATOM     29  C   UNL     1       7.454   7.736  17.454  0.00  0.00    +0.000 A 
ATOM     30  C   UNL     1       6.711   6.724  16.840  0.00  0.00    +0.000 A 
ENDBRANCH  18  25
ENDBRANCH   8  18
TORSDOF 6
ENDMDL
MODEL 3
REMARK VINA RESULT:      -8.1      0.744      1.452
REMARK  Name = 
REMARK  6 active torsions:
REMARK  status: ('A' for Active; 'I' for Inactive)
REMARK    1  A    between atoms: C_5  and  C_6
REMARK    2  A    between atoms: C_6  and  O_7
REMARK    3  A    between atoms: O_7  and  C_8
REMARK    4  A    between atoms: C_15  and  C_16
REMARK    5  A    between atoms: C_16  and  C_17
REMARK    6  A    between atoms: C_16  and  C_23
REMARK                            x       y       z     vdW  Elec       q    Type
REMARK                         _______ _______ _______ _____ _____    ______ ____
ROOT
ATOM      1  C   UNL     1       3.880   5.208  18.647  0.00  0.00    +0.000 C 
ATOM      2  C   UNL     1       3.031   4.191  19.456  0.00  0.00    +0.000 C 
ATOM      3  C   UNL     1       1.748   3.880  18.665  0.00  0.00    +0.000 C 
ATOM      4  C   UNL     1       2.123   3.345  17.277  0.00  0.00    +0.000 C 
ATOM      5  N   UNL     1       3.587   3.190  17.141  0.00  0.00    +0.000 NA
ATOM      6  C   UNL     1       4.060   2.288  18.210  0.00  0.00    +0.000 C 
ATOM      7  C   UNL     1       3.845   2.900  19.596  0.00  0.00    +0.000 C 
ATOM      8  C   UNL     1       4.219   4.563  17.254  0.00  0.00    +0.000 C 
ENDROOT
BRANCH   1   9
ATOM      9  O   UNL     1       3.132   6.430  18.435  0.00  0.00    +0.000 OA
BRANCH   9  10
ATOM     10  C   UNL     1       2.604   6.967  19.651  0.00  0.00    +0.000 C 
BRANCH  10  15
ATOM     11 CL   UNL     1      -0.841  11.800  18.563  0.00  0.00    +0.000 Cl
ATOM     12  C   UNL     1       0.189  10.464  18.906  0.00  0.00    +0.000 A 
ATOM     13  C   UNL     1       0.938   9.895  17.880  0.00  0.00    +0.000 A 
ATOM     14  C   UNL     1       1.743   8.788  18.150  0.00  0.00    +0.000 A 
ATOM     15  C   UNL     1       1.812   8.242  19.445  0.00  0.00    +0.000 A 
ATOM     16  C   UNL     1       1.065   8.837  20.468  0.00  0.00    +0.000 A 
ATOM     17  C   UNL     1       0.256   9.948  20.200  0.00  0.00    +0.000 A 
ENDBRANCH  10  15
ENDBRANCH   9  10
ENDBRANCH   1   9
BRANCH   8  18
ATOM     18  C   UNL     1       5.768   4.539  16.901  0.00  0.00    +0.000 C 
BRANCH  18  19
ATOM     19  C   UNL     1       5.958   4.435  15.379  0.00  0.00    +0.000 A 
ATOM     20  C   UNL     1       4.949   3.896  14.563  0.00  0.00    +0.000 A 
ATOM     21  C   UNL     1       5.168   3.678  13.201  0.00  0.00    +0.000 A 
ATOM     22  C   UNL     1       6.392   4.014  12.630  0.00  0.00    +0.000 A 
ATOM     23  C   UNL     1       7.389   4.589  13.416  0.00  0.00    +0.000 A 
ATOM     24  C   UNL     1       7.173   4.803  14.781  0.00  0.00    +0.000 A 
ENDBRANCH  18  19
BRANCH  18  25
ATOM     25  C   UNL     1       6.630   5.660  17.488  0.00  0.00    +0.000 A 
ATOM     26  C   UNL     1       7.482   5.375  18.573  0.00  0.00    +0.000 A 
ATOM     27  C   UNL     1       8.290   6.365  19.138  0.00  0.00    +0.000 A 
ATOM     28  C   UNL     1       8.260   7.660  18.626  0.00  0.00    +0.000 A 
ATOM     29  C   UNL     1       7.431   7.959  17.548  0.00  0.00    +0.000 A 
ATOM     30  C   UNL     1       6.630   6.965  16.977  0.00  0.00    +0.000 A 
ENDBRANCH  18  25
ENDBRANCH   8  18
TORSDOF 6
ENDMDL
MODEL 4
REMARK VINA RESULT:      -8.1      2.797      6.056
REMARK  Name = 
REMARK  6 active torsions:
REMARK  status: ('A' for Active; 'I' for Inactive)
REMARK    1  A    between atoms: C_5  and  C_6
REMARK    2  A    between atoms: C_6  and  O_7
REMARK    3  A    between atoms: O_7  and  C_8
REMARK    4  A    between atoms: C_15  and  C_16
REMARK    5  A    between atoms: C_16  and  C_17
REMARK    6  A    between atoms: C_16  and  C_23
REMARK                            x       y       z     vdW  Elec       q    Type
REMARK                         _______ _______ _______ _____ _____    ______ ____
ROOT
ATOM      1  C   UNL     1       2.387   4.247  18.090  0.00  0.00    +0.000 C 
ATOM      2  C   UNL     1       1.244   3.373  18.672  0.00  0.00    +0.000 C 
ATOM      3  C   UNL     1       1.807   1.979  19.001  0.00  0.00    +0.000 C 
ATOM      4  C   UNL     1       2.981   2.122  19.979  0.00  0.00    +0.000 C 
ATOM      5  N   UNL     1       3.163   3.530  20.394  0.00  0.00    +0.000 NA
ATOM      6  C   UNL     1       1.902   4.003  20.997  0.00  0.00    +0.000 C 
ATOM      7  C   UNL     1       0.765   4.027  19.973  0.00  0.00    +0.000 C 
ATOM      8  C   UNL     1       3.529   4.340  19.167  0.00  0.00    +0.000 C 
ENDROOT
BRANCH   1   9
ATOM      9  O   UNL     1       2.919   3.641  16.886  0.00  0.00    +0.000 OA
BRANCH   9  10
ATOM     10  C   UNL     1       4.300   3.295  17.011  0.00  0.00    +0.000 C 
BRANCH  10  15
ATOM     11 CL   UNL     1       7.972   5.191  12.613  0.00  0.00    +0.000 Cl
ATOM     12  C   UNL     1       6.896   4.717  13.870  0.00  0.00    +0.000 A 
ATOM     13  C   UNL     1       7.385   4.543  15.162  0.00  0.00    +0.000 A 
ATOM     14  C   UNL     1       6.520   4.121  16.172  0.00  0.00    +0.000 A 
ATOM     15  C   UNL     1       5.161   3.872  15.905  0.00  0.00    +0.000 A 
ATOM     16  C   UNL     1       4.684   4.067  14.604  0.00  0.00    +0.000 A 
ATOM     17  C   UNL     1       5.549   4.491  13.588  0.00  0.00    +0.000 A 
ENDBRANCH  10  15
ENDBRANCH   9  10
ENDBRANCH   1   9
BRANCH   8  18
ATOM     18  C   UNL     1       3.963   5.822  19.537  0.00  0.00    +0.000 C 
BRANCH  18  19
ATOM     19  C   UNL     1       5.335   6.138  18.918  0.00  0.00    +0.000 A 
ATOM     20  C   UNL     1       6.506   5.552  19.427  0.00  0.00    +0.000 A 
ATOM     21  C   UNL     1       7.763   5.936  18.957  0.00  0.00    +0.000 A 
ATOM     22  C   UNL     1       7.869   6.897  17.955  0.00  0.00    +0.000 A 
ATOM     23  C   UNL     1       6.716   7.457  17.408  0.00  0.00    +0.000 A 
ATOM     24  C   UNL     1       5.455   7.078  17.882  0.00  0.00    +0.000 A 
ENDBRANCH  18  19
BRANCH  18  25
ATOM     25  C   UNL     1       2.955   6.935  19.236  0.00  0.00    +0.000 A 
ATOM     26  C   UNL     1       2.136   7.420  20.275  0.00  0.00    +0.000 A 
ATOM     27  C   UNL     1       1.206   8.437  20.048  0.00  0.00    +0.000 A 
ATOM     28  C   UNL     1       1.078   8.988  18.776  0.00  0.00    +0.000 A 
ATOM     29  C   UNL     1       1.883   8.529  17.738  0.00  0.00    +0.000 A 
ATOM     30  C   UNL     1       2.822   7.518  17.969  0.00  0.00    +0.000 A 
ENDBRANCH  18  25
ENDBRANCH   8  18
TORSDOF 6
ENDMDL
MODEL 5
REMARK VINA RESULT:      -8.1      2.847      6.457
REMARK  Name = 
REMARK  6 active torsions:
REMARK  status: ('A' for Active; 'I' for Inactive)
REMARK    1  A    between atoms: C_5  and  C_6
REMARK    2  A    between atoms: C_6  and  O_7
REMARK    3  A    between atoms: O_7  and  C_8
REMARK    4  A    between atoms: C_15  and  C_16
REMARK    5  A    between atoms: C_16  and  C_17
REMARK    6  A    between atoms: C_16  and  C_23
REMARK                            x       y       z     vdW  Elec       q    Type
REMARK                         _______ _______ _______ _____ _____    ______ ____
ROOT
ATOM      1  C   UNL     1       5.529   6.779  17.195  0.00  0.00    +0.000 C 
ATOM      2  C   UNL     1       6.517   5.886  16.397  0.00  0.00    +0.000 C 
ATOM      3  C   UNL     1       7.463   5.189  17.390  0.00  0.00    +0.000 C 
ATOM      4  C   UNL     1       6.637   4.379  18.398  0.00  0.00    +0.000 C 
ATOM      5  N   UNL     1       5.197   4.422  18.066  0.00  0.00    +0.000 NA
ATOM      6  C   UNL     1       5.021   3.909  16.693  0.00  0.00    +0.000 C 
ATOM      7  C   UNL     1       5.701   4.816  15.665  0.00  0.00    +0.000 C 
ATOM      8  C   UNL     1       4.728   5.858  18.186  0.00  0.00    +0.000 C 
ENDROOT
BRANCH   1   9
ATOM      9  O   UNL     1       6.256   7.776  17.955  0.00  0.00    +0.000 OA
BRANCH   9  10
ATOM     10  C   UNL     1       7.464   8.184  17.308  0.00  0.00    +0.000 C 
BRANCH  10  15
ATOM     11 CL   UNL     1      10.423  12.840  19.754  0.00  0.00    +0.000 Cl
ATOM     12  C   UNL     1       9.518  11.538  19.084  0.00  0.00    +0.000 A 
ATOM     13  C   UNL     1       9.597  10.277  19.666  0.00  0.00    +0.000 A 
ATOM     14  C   UNL     1       8.894   9.214  19.099  0.00  0.00    +0.000 A 
ATOM     15  C   UNL     1       8.102   9.399  17.951  0.00  0.00    +0.000 A 
ATOM     16  C   UNL     1       8.021  10.678  17.388  0.00  0.00    +0.000 A 
ATOM     17  C   UNL     1       8.726  11.747  17.955  0.00  0.00    +0.000 A 
ENDBRANCH  10  15
ENDBRANCH   9  10
ENDBRANCH   1   9
BRANCH   8  18
ATOM     18  C   UNL     1       3.149   5.983  18.066  0.00  0.00    +0.000 C 
BRANCH  18  19
ATOM     19  C   UNL     1       2.471   4.834  18.831  0.00  0.00    +0.000 A 
ATOM     20  C   UNL     1       1.554   3.985  18.189  0.00  0.00    +0.000 A 
ATOM     21  C   UNL     1       0.839   3.026  18.909  0.00  0.00    +0.000 A 
ATOM     22  C   UNL     1       1.043   2.888  20.278  0.00  0.00    +0.000 A 
ATOM     23  C   UNL     1       1.980   3.693  20.924  0.00  0.00    +0.000 A 
ATOM     24  C   UNL     1       2.694   4.657  20.205  0.00  0.00    +0.000 A 
ENDBRANCH  18  19
BRANCH  18  25
ATOM     25  C   UNL     1       2.530   7.333  18.440  0.00  0.00    +0.000 A 
ATOM     26  C   UNL     1       2.044   7.526  19.748  0.00  0.00    +0.000 A 
ATOM     27  C   UNL     1       1.475   8.742  20.136  0.00  0.00    +0.000 A 
ATOM     28  C   UNL     1       1.383   9.787  19.221  0.00  0.00    +0.000 A 
ATOM     29  C   UNL     1       1.866   9.619  17.926  0.00  0.00    +0.000 A 
ATOM     30  C   UNL     1       2.444   8.405  17.542  0.00  0.00    +0.000 A 
ENDBRANCH  18  25
ENDBRANCH   8  18
TORSDOF 6
ENDMDL
MODEL 6
REMARK VINA RESULT:      -8.0      2.767      6.436
REMARK  Name = 
REMARK  6 active torsions:
REMARK  status: ('A' for Active; 'I' for Inactive)
REMARK    1  A    between atoms: C_5  and  C_6
REMARK    2  A    between atoms: C_6  and  O_7
REMARK    3  A    between atoms: O_7  and  C_8
REMARK    4  A    between atoms: C_15  and  C_16
REMARK    5  A    between atoms: C_16  and  C_17
REMARK    6  A    between atoms: C_16  and  C_23
REMARK                            x       y       z     vdW  Elec       q    Type
REMARK                         _______ _______ _______ _____ _____    ______ ____
ROOT
ATOM      1  C   UNL     1       5.464   6.844  17.166  0.00  0.00    +0.000 C 
ATOM      2  C   UNL     1       6.426   5.965  16.323  0.00  0.00    +0.000 C 
ATOM      3  C   UNL     1       7.414   5.265  17.272  0.00  0.00    +0.000 C 
ATOM      4  C   UNL     1       6.632   4.440  18.302  0.00  0.00    +0.000 C 
ATOM      5  N   UNL     1       5.180   4.476  18.026  0.00  0.00    +0.000 NA
ATOM      6  C   UNL     1       4.956   3.975  16.655  0.00  0.00    +0.000 C 
ATOM      7  C   UNL     1       5.591   4.896  15.611  0.00  0.00    +0.000 C 
ATOM      8  C   UNL     1       4.706   5.907  18.177  0.00  0.00    +0.000 C 
ENDROOT
BRANCH   1   9
ATOM      9  O   UNL     1       6.212   7.838  17.908  0.00  0.00    +0.000 OA
BRANCH   9  10
ATOM     10  C   UNL     1       7.528   8.035  17.386  0.00  0.00    +0.000 C 
BRANCH  10  15
ATOM     11 CL   UNL     1       9.853  13.069  19.766  0.00  0.00    +0.000 Cl
ATOM     12  C   UNL     1       9.256  11.616  19.063  0.00  0.00    +0.000 A 
ATOM     13  C   UNL     1       8.503  11.679  17.894  0.00  0.00    +0.000 A 
ATOM     14  C   UNL     1       7.987  10.505  17.345  0.00  0.00    +0.000 A 
ATOM     15  C   UNL     1       8.218   9.258  17.955  0.00  0.00    +0.000 A 
ATOM     16  C   UNL     1       8.990   9.212  19.122  0.00  0.00    +0.000 A 
ATOM     17  C   UNL     1       9.510  10.388  19.674  0.00  0.00    +0.000 A 
ENDBRANCH  10  15
ENDBRANCH   9  10
ENDBRANCH   1   9
BRANCH   8  18
ATOM     18  C   UNL     1       3.123   6.023  18.118  0.00  0.00    +0.000 C 
BRANCH  18  19
ATOM     19  C   UNL     1       2.482   4.864  18.900  0.00  0.00    +0.000 A 
ATOM     20  C   UNL     1       1.546   4.013  18.287  0.00  0.00    +0.000 A 
ATOM     21  C   UNL     1       0.865   3.045  19.027  0.00  0.00    +0.000 A 
ATOM     22  C   UNL     1       1.123   2.899  20.387  0.00  0.00    +0.000 A 
ATOM     23  C   UNL     1       2.079   3.705  21.002  0.00  0.00    +0.000 A 
ATOM     24  C   UNL     1       2.759   4.679  20.263  0.00  0.00    +0.000 A 
ENDBRANCH  18  19
BRANCH  18  25
ATOM     25  C   UNL     1       2.510   7.366  18.525  0.00  0.00    +0.000 A 
ATOM     26  C   UNL     1       2.446   8.406  17.578  0.00  0.00    +0.000 A 
ATOM     27  C   UNL     1       1.891   9.646  17.902  0.00  0.00    +0.000 A 
ATOM     28  C   UNL     1       1.389   9.868  19.182  0.00  0.00    +0.000 A 
ATOM     29  C   UNL     1       1.436   8.849  20.129  0.00  0.00    +0.000 A 
ATOM     30  C   UNL     1       1.982   7.605  19.800  0.00  0.00    +0.000 A 
ENDBRANCH  18  25
ENDBRANCH   8  18
TORSDOF 6
ENDMDL
MODEL 7
REMARK VINA RESULT:      -8.0      2.840      6.413
REMARK  Name = 
REMARK  6 active torsions:
REMARK  status: ('A' for Active; 'I' for Inactive)
REMARK    1  A    between atoms: C_5  and  C_6
REMARK    2  A    between atoms: C_6  and  O_7
REMARK    3  A    between atoms: O_7  and  C_8
REMARK    4  A    between atoms: C_15  and  C_16
REMARK    5  A    between atoms: C_16  and  C_17
REMARK    6  A    between atoms: C_16  and  C_23
REMARK                            x       y       z     vdW  Elec       q    Type
REMARK                         _______ _______ _______ _____ _____    ______ ____
ROOT
ATOM      1  C   UNL     1       5.480   6.864  17.193  0.00  0.00    +0.000 C 
ATOM      2  C   UNL     1       6.460   5.988  16.367  0.00  0.00    +0.000 C 
ATOM      3  C   UNL     1       7.397   5.248  17.337  0.00  0.00    +0.000 C 
ATOM      4  C   UNL     1       6.560   4.413  18.316  0.00  0.00    +0.000 C 
ATOM      5  N   UNL     1       5.121   4.482  17.983  0.00  0.00    +0.000 NA
ATOM      6  C   UNL     1       4.943   4.018  16.593  0.00  0.00    +0.000 C 
ATOM      7  C   UNL     1       5.634   4.952  15.597  0.00  0.00    +0.000 C 
ATOM      8  C   UNL     1       4.667   5.918  18.150  0.00  0.00    +0.000 C 
ENDROOT
BRANCH   1   9
ATOM      9  O   UNL     1       6.216   7.826  17.988  0.00  0.00    +0.000 OA
BRANCH   9  10
ATOM     10  C   UNL     1       7.510   8.106  17.449  0.00  0.00    +0.000 C 
BRANCH  10  15
ATOM     11 CL   UNL     1      10.387  12.976  19.550  0.00  0.00    +0.000 Cl
ATOM     12  C   UNL     1       9.506  11.612  18.980  0.00  0.00    +0.000 A 
ATOM     13  C   UNL     1       9.662  10.382  19.612  0.00  0.00    +0.000 A 
ATOM     14  C   UNL     1       8.976   9.269  19.125  0.00  0.00    +0.000 A 
ATOM     15  C   UNL     1       8.128   9.372  18.008  0.00  0.00    +0.000 A 
ATOM     16  C   UNL     1       7.971  10.620  17.395  0.00  0.00    +0.000 A 
ATOM     17  C   UNL     1       8.657  11.739  17.881  0.00  0.00    +0.000 A 
ENDBRANCH  10  15
ENDBRANCH   9  10
ENDBRANCH   1   9
BRANCH   8  18
ATOM     18  C   UNL     1       3.090   6.064  18.032  0.00  0.00    +0.000 C 
BRANCH  18  19
ATOM     19  C   UNL     1       2.399   4.881  18.731  0.00  0.00    +0.000 A 
ATOM     20  C   UNL     1       2.728   4.535  20.053  0.00  0.00    +0.000 A 
ATOM     21  C   UNL     1       2.202   3.385  20.645  0.00  0.00    +0.000 A 
ATOM     22  C   UNL     1       1.325   2.573  19.932  0.00  0.00    +0.000 A 
ATOM     23  C   UNL     1       0.955   2.924  18.634  0.00  0.00    +0.000 A 
ATOM     24  C   UNL     1       1.484   4.073  18.038  0.00  0.00    +0.000 A 
ENDBRANCH  18  19
BRANCH  18  25
ATOM     25  C   UNL     1       2.481   7.397  18.478  0.00  0.00    +0.000 A 
ATOM     26  C   UNL     1       2.370   8.447  17.546  0.00  0.00    +0.000 A 
ATOM     27  C   UNL     1       1.818   9.679  17.906  0.00  0.00    +0.000 A 
ATOM     28  C   UNL     1       1.365   9.881  19.207  0.00  0.00    +0.000 A 
ATOM     29  C   UNL     1       1.458   8.853  20.140  0.00  0.00    +0.000 A 
ATOM     30  C   UNL     1       2.002   7.617  19.776  0.00  0.00    +0.000 A 
ENDBRANCH  18  25
ENDBRANCH   8  18
TORSDOF 6
ENDMDL
MODEL 8
REMARK VINA RESULT:      -8.0      0.768      1.248
REMARK  Name = 
REMARK  6 active torsions:
REMARK  status: ('A' for Active; 'I' for Inactive)
REMARK    1  A    between atoms: C_5  and  C_6
REMARK    2  A    between atoms: C_6  and  O_7
REMARK    3  A    between atoms: O_7  and  C_8
REMARK    4  A    between atoms: C_15  and  C_16
REMARK    5  A    between atoms: C_16  and  C_17
REMARK    6  A    between atoms: C_16  and  C_23
REMARK                            x       y       z     vdW  Elec       q    Type
REMARK                         _______ _______ _______ _____ _____    ______ ____
ROOT
ATOM      1  C   UNL     1       3.887   5.281  18.676  0.00  0.00    +0.000 C 
ATOM      2  C   UNL     1       2.974   4.310  19.470  0.00  0.00    +0.000 C 
ATOM      3  C   UNL     1       1.714   4.022  18.633  0.00  0.00    +0.000 C 
ATOM      4  C   UNL     1       2.128   3.445  17.273  0.00  0.00    +0.000 C 
ATOM      5  N   UNL     1       3.591   3.242  17.200  0.00  0.00    +0.000 NA
ATOM      6  C   UNL     1       3.991   2.349  18.305  0.00  0.00    +0.000 C 
ATOM      7  C   UNL     1       3.739   2.997  19.669  0.00  0.00    +0.000 C 
ATOM      8  C   UNL     1       4.261   4.596  17.311  0.00  0.00    +0.000 C 
ENDROOT
BRANCH   1   9
ATOM      9  O   UNL     1       3.188   6.522  18.409  0.00  0.00    +0.000 OA
BRANCH   9  10
ATOM     10  C   UNL     1       2.667   7.124  19.596  0.00  0.00    +0.000 C 
BRANCH  10  15
ATOM     11 CL   UNL     1      -0.742  12.029  18.743  0.00  0.00    +0.000 Cl
ATOM     12  C   UNL     1       0.179  10.590  18.954  0.00  0.00    +0.000 A 
ATOM     13  C   UNL     1       0.267  10.011  20.217  0.00  0.00    +0.000 A 
ATOM     14  C   UNL     1       1.045   8.867  20.395  0.00  0.00    +0.000 A 
ATOM     15  C   UNL     1       1.740   8.288  19.317  0.00  0.00    +0.000 A 
ATOM     16  C   UNL     1       1.627   8.875  18.051  0.00  0.00    +0.000 A 
ATOM     17  C   UNL     1       0.847  10.022  17.869  0.00  0.00    +0.000 A 
ENDBRANCH  10  15
ENDBRANCH   9  10
ENDBRANCH   1   9
BRANCH   8  18
ATOM     18  C   UNL     1       5.821   4.516  17.023  0.00  0.00    +0.000 C 
BRANCH  18  19
ATOM     19  C   UNL     1       6.068   4.328  15.516  0.00  0.00    +0.000 A 
ATOM     20  C   UNL     1       7.256   4.787  14.920  0.00  0.00    +0.000 A 
ATOM     21  C   UNL     1       7.427   4.738  13.535  0.00  0.00    +0.000 A 
ATOM     22  C   UNL     1       6.424   4.213  12.727  0.00  0.00    +0.000 A 
ATOM     23  C   UNL     1       5.257   3.715  13.305  0.00  0.00    +0.000 A 
ATOM     24  C   UNL     1       5.081   3.767  14.692  0.00  0.00    +0.000 A 
ENDBRANCH  18  19
BRANCH  18  25
ATOM     25  C   UNL     1       6.689   5.645  17.586  0.00  0.00    +0.000 A 
ATOM     26  C   UNL     1       6.606   6.928  17.011  0.00  0.00    +0.000 A 
ATOM     27  C   UNL     1       7.375   7.989  17.494  0.00  0.00    +0.000 A 
ATOM     28  C   UNL     1       8.243   7.785  18.564  0.00  0.00    +0.000 A 
ATOM     29  C   UNL     1       8.333   6.526  19.151  0.00  0.00    +0.000 A 
ATOM     30  C   UNL     1       7.555   5.468  18.673  0.00  0.00    +0.000 A 
ENDBRANCH  18  25
ENDBRANCH   8  18
TORSDOF 6
ENDMDL
MODEL 9
REMARK VINA RESULT:      -7.9      2.762      6.472
REMARK  Name = 
REMARK  6 active torsions:
REMARK  status: ('A' for Active; 'I' for Inactive)
REMARK    1  A    between atoms: C_5  and  C_6
REMARK    2  A    between atoms: C_6  and  O_7
REMARK    3  A    between atoms: O_7  and  C_8
REMARK    4  A    between atoms: C_15  and  C_16
REMARK    5  A    between atoms: C_16  and  C_17
REMARK    6  A    between atoms: C_16  and  C_23
REMARK                            x       y       z     vdW  Elec       q    Type
REMARK                         _______ _______ _______ _____ _____    ______ ____
ROOT
ATOM      1  C   UNL     1       5.541   6.785  17.185  0.00  0.00    +0.000 C 
ATOM      2  C   UNL     1       6.533   5.823  16.479  0.00  0.00    +0.000 C 
ATOM      3  C   UNL     1       7.436   5.177  17.545  0.00  0.00    +0.000 C 
ATOM      4  C   UNL     1       6.565   4.451  18.578  0.00  0.00    +0.000 C 
ATOM      5  N   UNL     1       5.136   4.497  18.200  0.00  0.00    +0.000 NA
ATOM      6  C   UNL     1       4.991   3.897  16.860  0.00  0.00    +0.000 C 
ATOM      7  C   UNL     1       5.718   4.721  15.795  0.00  0.00    +0.000 C 
ATOM      8  C   UNL     1       4.692   5.946  18.210  0.00  0.00    +0.000 C 
ENDROOT
BRANCH   1   9
ATOM      9  O   UNL     1       6.264   7.817  17.900  0.00  0.00    +0.000 OA
BRANCH   9  10
ATOM     10  C   UNL     1       7.533   8.106  17.307  0.00  0.00    +0.000 C 
BRANCH  10  15
ATOM     11 CL   UNL     1       9.899  12.984  19.958  0.00  0.00    +0.000 Cl
ATOM     12  C   UNL     1       9.290  11.575  19.178  0.00  0.00    +0.000 A 
ATOM     13  C   UNL     1       8.571  11.703  17.994  0.00  0.00    +0.000 A 
ATOM     14  C   UNL     1       8.045  10.565  17.383  0.00  0.00    +0.000 A 
ATOM     15  C   UNL     1       8.233   9.289  17.946  0.00  0.00    +0.000 A 
ATOM     16  C   UNL     1       8.971   9.177  19.129  0.00  0.00    +0.000 A 
ATOM     17  C   UNL     1       9.501  10.318  19.744  0.00  0.00    +0.000 A 
ENDBRANCH  10  15
ENDBRANCH   9  10
ENDBRANCH   1   9
BRANCH   8  18
ATOM     18  C   UNL     1       3.120   6.091  18.034  0.00  0.00    +0.000 C 
BRANCH  18  19
ATOM     19  C   UNL     1       2.403   4.929  18.741  0.00  0.00    +0.000 A 
ATOM     20  C   UNL     1       2.646   4.653  20.098  0.00  0.00    +0.000 A 
ATOM     21  C   UNL     1       2.100   3.522  20.708  0.00  0.00    +0.000 A 
ATOM     22  C   UNL     1       1.288   2.659  19.977  0.00  0.00    +0.000 A 
ATOM     23  C   UNL     1       1.003   2.941  18.642  0.00  0.00    +0.000 A 
ATOM     24  C   UNL     1       1.552   4.071  18.028  0.00  0.00    +0.000 A 
ENDBRANCH  18  19
BRANCH  18  25
ATOM     25  C   UNL     1       2.500   7.437  18.422  0.00  0.00    +0.000 A 
ATOM     26  C   UNL     1       2.008   7.615  19.729  0.00  0.00    +0.000 A 
ATOM     27  C   UNL     1       1.438   8.826  20.129  0.00  0.00    +0.000 A 
ATOM     28  C   UNL     1       1.351   9.882  19.227  0.00  0.00    +0.000 A 
ATOM     29  C   UNL     1       1.840   9.729  17.932  0.00  0.00    +0.000 A 
ATOM     30  C   UNL     1       2.420   8.520  17.536  0.00  0.00    +0.000 A 
ENDBRANCH  18  25
ENDBRANCH   8  18
TORSDOF 6
ENDMDL
