MODEL 1
REMARK VINA RESULT:      -7.1      0.000      0.000
REMARK  Name = 
REMARK  9 active torsions:
REMARK  status: ('A' for Active; 'I' for Inactive)
REMARK    1  A    between atoms: C_1  and  C_2
REMARK    2  A    between atoms: C_2  and  C_3
REMARK    3  A    between atoms: C_3  and  C_4
REMARK    4  A    between atoms: C_3  and  C_5
REMARK    5  A    between atoms: C_5  and  N_6
REMARK    6  A    between atoms: C_5  and  C_18
REMARK    7  A    between atoms: C_7  and  C_9
REMARK    8  A    between atoms: C_9  and  C_10
REMARK    9  A    between atoms: C_12  and  C_13
REMARK                            x       y       z     vdW  Elec       q    Type
REMARK                         _______ _______ _______ _____ _____    ______ ____
ROOT
ATOM      1  N   UNL     1       4.822   4.074  17.826  0.00  0.00    +0.000 N 
ATOM      2  C   UNL     1       5.451   4.993  17.016  0.00  0.00    +0.000 C 
ATOM      3  O   UNL     1       4.963   6.088  16.753  0.00  0.00    +0.000 OA
ATOM      4  H   UNL     1       5.170   3.123  17.798  0.00  0.00    +0.000 HD
ENDROOT
BRANCH   1   5
ATOM      5  C   UNL     1       3.453   4.301  18.348  0.00  0.00    +0.000 C 
BRANCH   5   6
ATOM      6  C   UNL     1       2.342   3.610  17.505  0.00  0.00    +0.000 C 
ATOM      7  F   UNL     1       2.741   3.355  16.237  0.00  0.00    +0.000 F 
ATOM      8  F   UNL     1       1.974   2.426  18.044  0.00  0.00    +0.000 F 
ATOM      9  F   UNL     1       1.232   4.383  17.420  0.00  0.00    +0.000 F 
ENDBRANCH   5   6
BRANCH   5  10
ATOM     10  C   UNL     1       3.386   3.950  19.866  0.00  0.00    +0.000 C 
ATOM     11  C   UNL     1       3.928   2.531  20.104  0.00  0.00    +0.000 C 
BRANCH  10  13
ATOM     12  C   UNL     1       1.510   2.963  21.325  0.00  0.00    +0.000 C 
ATOM     13  C   UNL     1       1.969   4.126  20.457  0.00  0.00    +0.000 C 
ENDBRANCH  10  13
ENDBRANCH   5  10
ENDBRANCH   1   5
BRANCH   2  14
ATOM     14  C   UNL     1       6.818   4.569  16.518  0.00  0.00    +0.000 C 
BRANCH  14  15
ATOM     15  C   UNL     1       6.913   4.595  15.015  0.00  0.00    +0.000 A 
ATOM     16  C   UNL     1       6.084   3.807  14.223  0.00  0.00    +0.000 A 
ATOM     17  C   UNL     1       6.236   3.852  12.837  0.00  0.00    +0.000 A 
ATOM     18  C   UNL     1       7.213   4.669  12.276  0.00  0.00    +0.000 A 
ATOM     19  C   UNL     1       7.996   5.418  13.132  0.00  0.00    +0.000 A 
ATOM     20  N   UNL     1       7.865   5.403  14.477  0.00  0.00    +0.000 NA
BRANCH  17  21
ATOM     21  C   UNL     1       5.394   3.061  11.991  0.00  0.00    +0.000 C 
ATOM     22  N   UNL     1       4.720   2.413  11.299  0.00  0.00    +0.000 NA
ENDBRANCH  17  21
ENDBRANCH  14  15
ENDBRANCH   2  14
TORSDOF 7
ENDMDL
MODEL 2
REMARK VINA RESULT:      -7.0      3.264      6.691
REMARK  Name = 
REMARK  9 active torsions:
REMARK  status: ('A' for Active; 'I' for Inactive)
REMARK    1  A    between atoms: C_1  and  C_2
REMARK    2  A    between atoms: C_2  and  C_3
REMARK    3  A    between atoms: C_3  and  C_4
REMARK    4  A    between atoms: C_3  and  C_5
REMARK    5  A    between atoms: C_5  and  N_6
REMARK    6  A    between atoms: C_5  and  C_18
REMARK    7  A    between atoms: C_7  and  C_9
REMARK    8  A    between atoms: C_9  and  C_10
REMARK    9  A    between atoms: C_12  and  C_13
REMARK                            x       y       z     vdW  Elec       q    Type
REMARK                         _______ _______ _______ _____ _____    ______ ____
ROOT
ATOM      1  N   UNL     1       5.105   5.627  17.997  0.00  0.00    +0.000 N 
ATOM      2  C   UNL     1       4.161   6.517  17.536  0.00  0.00    +0.000 C 
ATOM      3  O   UNL     1       4.404   7.349  16.666  0.00  0.00    +0.000 OA
ATOM      4  H   UNL     1       4.897   5.147  18.864  0.00  0.00    +0.000 HD
ENDROOT
BRANCH   1   5
ATOM      5  C   UNL     1       6.518   5.686  17.552  0.00  0.00    +0.000 C 
BRANCH   5   6
ATOM      6  C   UNL     1       7.540   5.700  18.725  0.00  0.00    +0.000 C 
ATOM      7  F   UNL     1       8.258   6.847  18.769  0.00  0.00    +0.000 F 
ATOM      8  F   UNL     1       6.924   5.579  19.922  0.00  0.00    +0.000 F 
ATOM      9  F   UNL     1       8.429   4.683  18.618  0.00  0.00    +0.000 F 
ENDBRANCH   5   6
BRANCH   5  10
ATOM     10  C   UNL     1       6.802   4.572  16.498  0.00  0.00    +0.000 C 
ATOM     11  C   UNL     1       7.657   5.137  15.351  0.00  0.00    +0.000 C 
BRANCH  10  13
ATOM     12  C   UNL     1       5.165   4.270  14.535  0.00  0.00    +0.000 C 
ATOM     13  C   UNL     1       5.510   3.906  15.972  0.00  0.00    +0.000 C 
ENDBRANCH  10  13
ENDBRANCH   5  10
ENDBRANCH   1   5
BRANCH   2  14
ATOM     14  C   UNL     1       2.784   6.356  18.147  0.00  0.00    +0.000 C 
BRANCH  14  15
ATOM     15  C   UNL     1       2.464   4.919  18.466  0.00  0.00    +0.000 A 
ATOM     16  C   UNL     1       2.172   4.513  19.764  0.00  0.00    +0.000 A 
ATOM     17  C   UNL     1       1.911   3.163  20.004  0.00  0.00    +0.000 A 
ATOM     18  C   UNL     1       1.957   2.254  18.952  0.00  0.00    +0.000 A 
ATOM     19  C   UNL     1       2.256   2.738  17.694  0.00  0.00    +0.000 A 
ATOM     20  N   UNL     1       2.504   4.040  17.429  0.00  0.00    +0.000 NA
BRANCH  17  21
ATOM     21  C   UNL     1       1.597   2.712  21.326  0.00  0.00    +0.000 C 
ATOM     22  N   UNL     1       1.331   2.348  22.399  0.00  0.00    +0.000 NA
ENDBRANCH  17  21
ENDBRANCH  14  15
ENDBRANCH   2  14
TORSDOF 7
ENDMDL
MODEL 3
REMARK VINA RESULT:      -7.0      1.598      2.502
REMARK  Name = 
REMARK  9 active torsions:
REMARK  status: ('A' for Active; 'I' for Inactive)
REMARK    1  A    between atoms: C_1  and  C_2
REMARK    2  A    between atoms: C_2  and  C_3
REMARK    3  A    between atoms: C_3  and  C_4
REMARK    4  A    between atoms: C_3  and  C_5
REMARK    5  A    between atoms: C_5  and  N_6
REMARK    6  A    between atoms: C_5  and  C_18
REMARK    7  A    between atoms: C_7  and  C_9
REMARK    8  A    between atoms: C_9  and  C_10
REMARK    9  A    between atoms: C_12  and  C_13
REMARK                            x       y       z     vdW  Elec       q    Type
REMARK                         _______ _______ _______ _____ _____    ______ ____
ROOT
ATOM      1  N   UNL     1       3.351   5.323  18.040  0.00  0.00    +0.000 N 
ATOM      2  C   UNL     1       3.413   6.698  17.985  0.00  0.00    +0.000 C 
ATOM      3  O   UNL     1       2.687   7.422  18.660  0.00  0.00    +0.000 OA
ATOM      4  H   UNL     1       3.805   4.814  17.292  0.00  0.00    +0.000 HD
ENDROOT
BRANCH   1   5
ATOM      5  C   UNL     1       2.319   4.620  18.839  0.00  0.00    +0.000 C 
BRANCH   5   6
ATOM      6  C   UNL     1       1.445   3.640  18.004  0.00  0.00    +0.000 C 
ATOM      7  F   UNL     1       0.621   2.897  18.778  0.00  0.00    +0.000 F 
ATOM      8  F   UNL     1       0.662   4.301  17.122  0.00  0.00    +0.000 F 
ATOM      9  F   UNL     1       2.211   2.772  17.298  0.00  0.00    +0.000 F 
ENDBRANCH   5   6
BRANCH   5  10
ATOM     10  C   UNL     1       2.964   3.956  20.094  0.00  0.00    +0.000 C 
ATOM     11  C   UNL     1       3.454   2.540  19.749  0.00  0.00    +0.000 C 
BRANCH  10  13
ATOM     12  C   UNL     1       1.589   2.561  21.764  0.00  0.00    +0.000 C 
ATOM     13  C   UNL     1       2.021   3.951  21.318  0.00  0.00    +0.000 C 
ENDBRANCH  10  13
ENDBRANCH   5  10
ENDBRANCH   1   5
BRANCH   2  14
ATOM     14  C   UNL     1       4.485   7.249  17.067  0.00  0.00    +0.000 C 
BRANCH  14  15
ATOM     15  C   UNL     1       5.466   6.191  16.632  0.00  0.00    +0.000 A 
ATOM     16  C   UNL     1       5.399   5.619  15.366  0.00  0.00    +0.000 A 
ATOM     17  C   UNL     1       6.317   4.623  15.029  0.00  0.00    +0.000 A 
ATOM     18  C   UNL     1       7.266   4.215  15.961  0.00  0.00    +0.000 A 
ATOM     19  C   UNL     1       7.263   4.832  17.197  0.00  0.00    +0.000 A 
ATOM     20  N   UNL     1       6.394   5.806  17.548  0.00  0.00    +0.000 NA
BRANCH  17  21
ATOM     21  C   UNL     1       6.284   4.019  13.731  0.00  0.00    +0.000 C 
ATOM     22  N   UNL     1       6.251   3.538  12.672  0.00  0.00    +0.000 NA
ENDBRANCH  17  21
ENDBRANCH  14  15
ENDBRANCH   2  14
TORSDOF 7
ENDMDL
MODEL 4
REMARK VINA RESULT:      -6.8      3.523      6.669
REMARK  Name = 
REMARK  9 active torsions:
REMARK  status: ('A' for Active; 'I' for Inactive)
REMARK    1  A    between atoms: C_1  and  C_2
REMARK    2  A    between atoms: C_2  and  C_3
REMARK    3  A    between atoms: C_3  and  C_4
REMARK    4  A    between atoms: C_3  and  C_5
REMARK    5  A    between atoms: C_5  and  N_6
REMARK    6  A    between atoms: C_5  and  C_18
REMARK    7  A    between atoms: C_7  and  C_9
REMARK    8  A    between atoms: C_9  and  C_10
REMARK    9  A    between atoms: C_12  and  C_13
REMARK                            x       y       z     vdW  Elec       q    Type
REMARK                         _______ _______ _______ _____ _____    ______ ____
ROOT
ATOM      1  N   UNL     1       4.884   5.772  18.225  0.00  0.00    +0.000 N 
ATOM      2  C   UNL     1       4.038   6.830  17.974  0.00  0.00    +0.000 C 
ATOM      3  O   UNL     1       4.271   7.675  17.116  0.00  0.00    +0.000 OA
ATOM      4  H   UNL     1       4.743   5.268  19.092  0.00  0.00    +0.000 HD
ENDROOT
BRANCH   1   5
ATOM      5  C   UNL     1       6.196   5.644  17.547  0.00  0.00    +0.000 C 
BRANCH   5   6
ATOM      6  C   UNL     1       7.409   5.728  18.517  0.00  0.00    +0.000 C 
ATOM      7  F   UNL     1       8.275   4.701  18.349  0.00  0.00    +0.000 F 
ATOM      8  F   UNL     1       8.113   6.867  18.334  0.00  0.00    +0.000 F 
ATOM      9  F   UNL     1       7.010   5.697  19.812  0.00  0.00    +0.000 F 
ENDBRANCH   5   6
BRANCH   5  10
ATOM     10  C   UNL     1       6.215   4.375  16.640  0.00  0.00    +0.000 C 
ATOM     11  C   UNL     1       6.889   4.697  15.295  0.00  0.00    +0.000 C 
BRANCH  10  13
ATOM     12  C   UNL     1       4.481   2.639  17.418  0.00  0.00    +0.000 C 
ATOM     13  C   UNL     1       4.811   3.761  16.443  0.00  0.00    +0.000 C 
ENDBRANCH  10  13
ENDBRANCH   5  10
ENDBRANCH   1   5
BRANCH   2  14
ATOM     14  C   UNL     1       2.771   6.840  18.806  0.00  0.00    +0.000 C 
BRANCH  14  15
ATOM     15  C   UNL     1       2.148   5.473  18.916  0.00  0.00    +0.000 A 
ATOM     16  C   UNL     1       2.061   4.814  20.138  0.00  0.00    +0.000 A 
ATOM     17  C   UNL     1       1.498   3.537  20.175  0.00  0.00    +0.000 A 
ATOM     18  C   UNL     1       1.049   2.947  18.998  0.00  0.00    +0.000 A 
ATOM     19  C   UNL     1       1.174   3.668  17.827  0.00  0.00    +0.000 A 
ATOM     20  N   UNL     1       1.705   4.909  17.761  0.00  0.00    +0.000 NA
BRANCH  17  21
ATOM     21  C   UNL     1       1.384   2.834  21.417  0.00  0.00    +0.000 C 
ATOM     22  N   UNL     1       1.279   2.265  22.426  0.00  0.00    +0.000 NA
ENDBRANCH  17  21
ENDBRANCH  14  15
ENDBRANCH   2  14
TORSDOF 7
ENDMDL
MODEL 5
REMARK VINA RESULT:      -6.8      2.278      3.460
REMARK  Name = 
REMARK  9 active torsions:
REMARK  status: ('A' for Active; 'I' for Inactive)
REMARK    1  A    between atoms: C_1  and  C_2
REMARK    2  A    between atoms: C_2  and  C_3
REMARK    3  A    between atoms: C_3  and  C_4
REMARK    4  A    between atoms: C_3  and  C_5
REMARK    5  A    between atoms: C_5  and  N_6
REMARK    6  A    between atoms: C_5  and  C_18
REMARK    7  A    between atoms: C_7  and  C_9
REMARK    8  A    between atoms: C_9  and  C_10
REMARK    9  A    between atoms: C_12  and  C_13
REMARK                            x       y       z     vdW  Elec       q    Type
REMARK                         _______ _______ _______ _____ _____    ______ ____
ROOT
ATOM      1  N   UNL     1       3.464   4.834  19.115  0.00  0.00    +0.000 N 
ATOM      2  C   UNL     1       3.033   5.875  18.322  0.00  0.00    +0.000 C 
ATOM      3  O   UNL     1       1.846   6.085  18.091  0.00  0.00    +0.000 OA
ATOM      4  H   UNL     1       4.445   4.591  19.059  0.00  0.00    +0.000 HD
ENDROOT
BRANCH   1   5
ATOM      5  C   UNL     1       2.523   3.824  19.656  0.00  0.00    +0.000 C 
BRANCH   5   6
ATOM      6  C   UNL     1       1.626   4.363  20.808  0.00  0.00    +0.000 C 
ATOM      7  F   UNL     1       1.516   3.482  21.830  0.00  0.00    +0.000 F 
ATOM      8  F   UNL     1       2.122   5.507  21.330  0.00  0.00    +0.000 F 
ATOM      9  F   UNL     1       0.368   4.622  20.375  0.00  0.00    +0.000 F 
ENDBRANCH   5   6
BRANCH   5  10
ATOM     10  C   UNL     1       1.713   3.163  18.499  0.00  0.00    +0.000 C 
ATOM     11  C   UNL     1       0.692   2.165  19.072  0.00  0.00    +0.000 C 
BRANCH  10  13
ATOM     12  C   UNL     1       3.648   1.538  18.011  0.00  0.00    +0.000 C 
ATOM     13  C   UNL     1       2.620   2.503  17.436  0.00  0.00    +0.000 C 
ENDBRANCH  10  13
ENDBRANCH   5  10
ENDBRANCH   1   5
BRANCH   2  14
ATOM     14  C   UNL     1       4.136   6.772  17.798  0.00  0.00    +0.000 C 
BRANCH  14  15
ATOM     15  C   UNL     1       5.291   5.989  17.231  0.00  0.00    +0.000 A 
ATOM     16  C   UNL     1       5.245   5.461  15.944  0.00  0.00    +0.000 A 
ATOM     17  C   UNL     1       6.333   4.720  15.482  0.00  0.00    +0.000 A 
ATOM     18  C   UNL     1       7.431   4.515  16.312  0.00  0.00    +0.000 A 
ATOM     19  C   UNL     1       7.396   5.071  17.576  0.00  0.00    +0.000 A 
ATOM     20  N   UNL     1       6.362   5.801  18.047  0.00  0.00    +0.000 NA
BRANCH  17  21
ATOM     21  C   UNL     1       6.324   4.171  14.160  0.00  0.00    +0.000 C 
ATOM     22  N   UNL     1       6.305   3.730  13.083  0.00  0.00    +0.000 NA
ENDBRANCH  17  21
ENDBRANCH  14  15
ENDBRANCH   2  14
TORSDOF 7
ENDMDL
MODEL 6
REMARK VINA RESULT:      -6.8      1.850      3.138
REMARK  Name = 
REMARK  9 active torsions:
REMARK  status: ('A' for Active; 'I' for Inactive)
REMARK    1  A    between atoms: C_1  and  C_2
REMARK    2  A    between atoms: C_2  and  C_3
REMARK    3  A    between atoms: C_3  and  C_4
REMARK    4  A    between atoms: C_3  and  C_5
REMARK    5  A    between atoms: C_5  and  N_6
REMARK    6  A    between atoms: C_5  and  C_18
REMARK    7  A    between atoms: C_7  and  C_9
REMARK    8  A    between atoms: C_9  and  C_10
REMARK    9  A    between atoms: C_12  and  C_13
REMARK                            x       y       z     vdW  Elec       q    Type
REMARK                         _______ _______ _______ _____ _____    ______ ____
ROOT
ATOM      1  N   UNL     1       3.237   4.727  18.707  0.00  0.00    +0.000 N 
ATOM      2  C   UNL     1       3.059   6.092  18.745  0.00  0.00    +0.000 C 
ATOM      3  O   UNL     1       2.099   6.621  19.298  0.00  0.00    +0.000 OA
ATOM      4  H   UNL     1       3.910   4.371  18.040  0.00  0.00    +0.000 HD
ENDROOT
BRANCH   1   5
ATOM      5  C   UNL     1       2.217   3.792  19.239  0.00  0.00    +0.000 C 
BRANCH   5   6
ATOM      6  C   UNL     1       1.306   3.174  18.139  0.00  0.00    +0.000 C 
ATOM      7  F   UNL     1       0.247   2.511  18.660  0.00  0.00    +0.000 F 
ATOM      8  F   UNL     1       0.807   4.123  17.316  0.00  0.00    +0.000 F 
ATOM      9  F   UNL     1       1.988   2.286  17.374  0.00  0.00    +0.000 F 
ENDBRANCH   5   6
BRANCH   5  10
ATOM     10  C   UNL     1       2.886   2.725  20.159  0.00  0.00    +0.000 C 
ATOM     11  C   UNL     1       2.468   2.953  21.622  0.00  0.00    +0.000 C 
BRANCH  10  13
ATOM     12  C   UNL     1       5.090   1.528  20.736  0.00  0.00    +0.000 C 
ATOM     13  C   UNL     1       4.424   2.685  20.005  0.00  0.00    +0.000 C 
ENDBRANCH  10  13
ENDBRANCH   5  10
ENDBRANCH   1   5
BRANCH   2  14
ATOM     14  C   UNL     1       4.169   6.895  18.096  0.00  0.00    +0.000 C 
BRANCH  14  15
ATOM     15  C   UNL     1       5.265   6.019  17.548  0.00  0.00    +0.000 A 
ATOM     16  C   UNL     1       5.222   5.537  16.244  0.00  0.00    +0.000 A 
ATOM     17  C   UNL     1       6.251   4.705  15.800  0.00  0.00    +0.000 A 
ATOM     18  C   UNL     1       7.287   4.368  16.665  0.00  0.00    +0.000 A 
ATOM     19  C   UNL     1       7.254   4.887  17.945  0.00  0.00    +0.000 A 
ATOM     20  N   UNL     1       6.276   5.701  18.400  0.00  0.00    +0.000 NA
BRANCH  17  21
ATOM     21  C   UNL     1       6.244   4.199  14.461  0.00  0.00    +0.000 C 
ATOM     22  N   UNL     1       6.237   3.775  13.377  0.00  0.00    +0.000 NA
ENDBRANCH  17  21
ENDBRANCH  14  15
ENDBRANCH   2  14
TORSDOF 7
ENDMDL
MODEL 7
REMARK VINA RESULT:      -6.8      4.400      7.176
REMARK  Name = 
REMARK  9 active torsions:
REMARK  status: ('A' for Active; 'I' for Inactive)
REMARK    1  A    between atoms: C_1  and  C_2
REMARK    2  A    between atoms: C_2  and  C_3
REMARK    3  A    between atoms: C_3  and  C_4
REMARK    4  A    between atoms: C_3  and  C_5
REMARK    5  A    between atoms: C_5  and  N_6
REMARK    6  A    between atoms: C_5  and  C_18
REMARK    7  A    between atoms: C_7  and  C_9
REMARK    8  A    between atoms: C_9  and  C_10
REMARK    9  A    between atoms: C_12  and  C_13
REMARK                            x       y       z     vdW  Elec       q    Type
REMARK                         _______ _______ _______ _____ _____    ______ ____
ROOT
ATOM      1  N   UNL     1       2.199   5.288  18.654  0.00  0.00    +0.000 N 
ATOM      2  C   UNL     1       3.203   6.217  18.818  0.00  0.00    +0.000 C 
ATOM      3  O   UNL     1       4.269   5.952  19.366  0.00  0.00    +0.000 OA
ATOM      4  H   UNL     1       1.281   5.642  18.415  0.00  0.00    +0.000 HD
ENDROOT
BRANCH   1   5
ATOM      5  C   UNL     1       2.295   3.926  19.231  0.00  0.00    +0.000 C 
BRANCH   5   6
ATOM      6  C   UNL     1       1.146   3.588  20.225  0.00  0.00    +0.000 C 
ATOM      7  F   UNL     1       0.470   4.691  20.625  0.00  0.00    +0.000 F 
ATOM      8  F   UNL     1       0.238   2.755  19.670  0.00  0.00    +0.000 F 
ATOM      9  F   UNL     1       1.620   2.989  21.344  0.00  0.00    +0.000 F 
ENDBRANCH   5   6
BRANCH   5  10
ATOM     10  C   UNL     1       2.464   2.868  18.098  0.00  0.00    +0.000 C 
ATOM     11  C   UNL     1       3.297   1.679  18.606  0.00  0.00    +0.000 C 
BRANCH  10  13
ATOM     12  C   UNL     1       4.577   3.548  16.796  0.00  0.00    +0.000 C 
ATOM     13  C   UNL     1       3.057   3.469  16.804  0.00  0.00    +0.000 C 
ENDBRANCH  10  13
ENDBRANCH   5  10
ENDBRANCH   1   5
BRANCH   2  14
ATOM     14  C   UNL     1       2.910   7.580  18.222  0.00  0.00    +0.000 C 
BRANCH  14  15
ATOM     15  C   UNL     1       1.880   8.342  19.015  0.00  0.00    +0.000 A 
ATOM     16  C   UNL     1       1.168   9.396  18.451  0.00  0.00    +0.000 A 
ATOM     17  C   UNL     1       0.247  10.084  19.242  0.00  0.00    +0.000 A 
ATOM     18  C   UNL     1       0.066   9.713  20.571  0.00  0.00    +0.000 A 
ATOM     19  C   UNL     1       0.814   8.657  21.053  0.00  0.00    +0.000 A 
ATOM     20  N   UNL     1       1.705   7.966  20.310  0.00  0.00    +0.000 NA
BRANCH  17  21
ATOM     21  C   UNL     1      -0.511  11.168  18.693  0.00  0.00    +0.000 C 
ATOM     22  N   UNL     1      -1.119  12.048  18.236  0.00  0.00    +0.000 NA
ENDBRANCH  17  21
ENDBRANCH  14  15
ENDBRANCH   2  14
TORSDOF 7
ENDMDL
MODEL 8
REMARK VINA RESULT:      -6.7      2.692      4.459
REMARK  Name = 
REMARK  9 active torsions:
REMARK  status: ('A' for Active; 'I' for Inactive)
REMARK    1  A    between atoms: C_1  and  C_2
REMARK    2  A    between atoms: C_2  and  C_3
REMARK    3  A    between atoms: C_3  and  C_4
REMARK    4  A    between atoms: C_3  and  C_5
REMARK    5  A    between atoms: C_5  and  N_6
REMARK    6  A    between atoms: C_5  and  C_18
REMARK    7  A    between atoms: C_7  and  C_9
REMARK    8  A    between atoms: C_9  and  C_10
REMARK    9  A    between atoms: C_12  and  C_13
REMARK                            x       y       z     vdW  Elec       q    Type
REMARK                         _______ _______ _______ _____ _____    ______ ____
ROOT
ATOM      1  N   UNL     1       4.469   4.193  17.436  0.00  0.00    +0.000 N 
ATOM      2  C   UNL     1       5.054   4.213  16.189  0.00  0.00    +0.000 C 
ATOM      3  O   UNL     1       4.400   4.269  15.152  0.00  0.00    +0.000 OA
ATOM      4  H   UNL     1       5.055   3.908  18.212  0.00  0.00    +0.000 HD
ENDROOT
BRANCH   1   5
ATOM      5  C   UNL     1       2.999   4.124  17.608  0.00  0.00    +0.000 C 
BRANCH   5   6
ATOM      6  C   UNL     1       2.483   2.710  18.003  0.00  0.00    +0.000 C 
ATOM      7  F   UNL     1       1.220   2.740  18.490  0.00  0.00    +0.000 F 
ATOM      8  F   UNL     1       2.473   1.871  16.944  0.00  0.00    +0.000 F 
ATOM      9  F   UNL     1       3.261   2.150  18.961  0.00  0.00    +0.000 F 
ENDBRANCH   5   6
BRANCH   5  10
ATOM     10  C   UNL     1       2.512   5.251  18.570  0.00  0.00    +0.000 C 
ATOM     11  C   UNL     1       2.793   6.631  17.952  0.00  0.00    +0.000 C 
BRANCH  10  13
ATOM     12  C   UNL     1       2.121   4.684  21.050  0.00  0.00    +0.000 C 
ATOM     13  C   UNL     1       3.117   5.128  19.987  0.00  0.00    +0.000 C 
ENDBRANCH  10  13
ENDBRANCH   5  10
ENDBRANCH   1   5
BRANCH   2  14
ATOM     14  C   UNL     1       6.569   4.214  16.198  0.00  0.00    +0.000 C 
BRANCH  14  15
ATOM     15  C   UNL     1       7.135   5.117  17.263  0.00  0.00    +0.000 A 
ATOM     16  C   UNL     1       7.287   6.483  17.046  0.00  0.00    +0.000 A 
ATOM     17  C   UNL     1       7.843   7.267  18.058  0.00  0.00    +0.000 A 
ATOM     18  C   UNL     1       8.242   6.671  19.251  0.00  0.00    +0.000 A 
ATOM     19  C   UNL     1       8.057   5.309  19.385  0.00  0.00    +0.000 A 
ATOM     20  N   UNL     1       7.513   4.527  18.427  0.00  0.00    +0.000 NA
BRANCH  17  21
ATOM     21  C   UNL     1       8.006   8.677  17.874  0.00  0.00    +0.000 C 
ATOM     22  N   UNL     1       8.126   9.824  17.721  0.00  0.00    +0.000 NA
ENDBRANCH  17  21
ENDBRANCH  14  15
ENDBRANCH   2  14
TORSDOF 7
ENDMDL
MODEL 9
REMARK VINA RESULT:      -6.7      2.489      3.611
REMARK  Name = 
REMARK  9 active torsions:
REMARK  status: ('A' for Active; 'I' for Inactive)
REMARK    1  A    between atoms: C_1  and  C_2
REMARK    2  A    between atoms: C_2  and  C_3
REMARK    3  A    between atoms: C_3  and  C_4
REMARK    4  A    between atoms: C_3  and  C_5
REMARK    5  A    between atoms: C_5  and  N_6
REMARK    6  A    between atoms: C_5  and  C_18
REMARK    7  A    between atoms: C_7  and  C_9
REMARK    8  A    between atoms: C_9  and  C_10
REMARK    9  A    between atoms: C_12  and  C_13
REMARK                            x       y       z     vdW  Elec       q    Type
REMARK                         _______ _______ _______ _____ _____    ______ ____
ROOT
ATOM      1  N   UNL     1       3.596   4.081  19.565  0.00  0.00    +0.000 N 
ATOM      2  C   UNL     1       4.871   3.561  19.585  0.00  0.00    +0.000 C 
ATOM      3  O   UNL     1       5.108   2.396  19.893  0.00  0.00    +0.000 OA
ATOM      4  H   UNL     1       3.512   5.090  19.536  0.00  0.00    +0.000 HD
ENDROOT
BRANCH   1   5
ATOM      5  C   UNL     1       2.426   3.296  20.025  0.00  0.00    +0.000 C 
BRANCH   5   6
ATOM      6  C   UNL     1       1.686   3.931  21.237  0.00  0.00    +0.000 C 
ATOM      7  F   UNL     1       0.761   4.843  20.856  0.00  0.00    +0.000 F 
ATOM      8  F   UNL     1       1.037   2.998  21.968  0.00  0.00    +0.000 F 
ATOM      9  F   UNL     1       2.550   4.570  22.064  0.00  0.00    +0.000 F 
ENDBRANCH   5   6
BRANCH   5  10
ATOM     10  C   UNL     1       1.483   2.975  18.824  0.00  0.00    +0.000 C 
ATOM     11  C   UNL     1       1.726   1.538  18.331  0.00  0.00    +0.000 C 
BRANCH  10  13
ATOM     12  C   UNL     1       2.572   3.582  16.572  0.00  0.00    +0.000 C 
ATOM     13  C   UNL     1       1.610   4.001  17.676  0.00  0.00    +0.000 C 
ENDBRANCH  10  13
ENDBRANCH   5  10
ENDBRANCH   1   5
BRANCH   2  14
ATOM     14  C   UNL     1       5.956   4.524  19.147  0.00  0.00    +0.000 C 
BRANCH  14  15
ATOM     15  C   UNL     1       5.699   5.091  17.775  0.00  0.00    +0.000 A 
ATOM     16  C   UNL     1       6.049   4.390  16.625  0.00  0.00    +0.000 A 
ATOM     17  C   UNL     1       5.812   4.977  15.382  0.00  0.00    +0.000 A 
ATOM     18  C   UNL     1       5.245   6.245  15.314  0.00  0.00    +0.000 A 
ATOM     19  C   UNL     1       4.928   6.874  16.503  0.00  0.00    +0.000 A 
ATOM     20  N   UNL     1       5.137   6.327  17.720  0.00  0.00    +0.000 NA
BRANCH  17  21
ATOM     21  C   UNL     1       6.151   4.280  14.177  0.00  0.00    +0.000 C 
ATOM     22  N   UNL     1       6.426   3.703  13.205  0.00  0.00    +0.000 NA
ENDBRANCH  17  21
ENDBRANCH  14  15
ENDBRANCH   2  14
TORSDOF 7
ENDMDL
