MODEL 1
REMARK VINA RESULT:      -8.8      0.000      0.000
REMARK  Name = 
REMARK  5 active torsions:
REMARK  status: ('A' for Active; 'I' for Inactive)
REMARK    1  A    between atoms: C_1  and  C_2
REMARK    2  A    between atoms: C_6  and  N_7
REMARK    3  A    between atoms: N_7  and  C_8
REMARK    4  A    between atoms: C_8  and  N_10
REMARK    5  A    between atoms: C_16  and  C_17
REMARK                            x       y       z     vdW  Elec       q    Type
REMARK                         _______ _______ _______ _____ _____    ______ ____
ROOT
ATOM      1  N   UNL     1       1.148   9.872  18.262  0.00  0.00    +0.000 NA
ATOM      2  C   UNL     1       1.727   8.877  18.871  0.00  0.00    +0.000 C 
ATOM      3  N   UNL     1       1.548   8.523  20.179  0.00  0.00    +0.000 N 
ATOM      4  N   UNL     1       2.677   8.130  18.226  0.00  0.00    +0.000 N 
ATOM      5  C   UNL     1       2.759   6.732  18.273  0.00  0.00    +0.000 A 
ATOM      6  N   UNL     1       3.612   6.128  17.432  0.00  0.00    +0.000 NA
ATOM      7  C   UNL     1       3.689   4.771  17.477  0.00  0.00    +0.000 A 
ATOM      8  C   UNL     1       4.693   4.135  16.555  0.00  0.00    +0.000 C 
ATOM      9  C   UNL     1       2.887   3.990  18.320  0.00  0.00    +0.000 A 
ATOM     10  C   UNL     1       2.893   2.573  18.403  0.00  0.00    +0.000 A 
ATOM     11  C   UNL     1       2.026   1.905  19.266  0.00  0.00    +0.000 A 
ATOM     12  C   UNL     1       1.153   2.639  20.055  0.00  0.00    +0.000 A 
ATOM     13  C   UNL     1       1.162   4.034  19.984  0.00  0.00    +0.000 A 
ATOM     14  C   UNL     1       2.020   4.719  19.134  0.00  0.00    +0.000 A 
ATOM     15  N   UNL     1       1.973   6.054  19.128  0.00  0.00    +0.000 NA
ATOM     16  H   UNL     1       0.691   8.869  20.594  0.00  0.00    +0.000 HD
ATOM     17  H   UNL     1       1.618   7.512  20.306  0.00  0.00    +0.000 HD
ATOM     18  H   UNL     1       2.947   8.447  17.306  0.00  0.00    +0.000 HD
ENDROOT
BRANCH   1  19
ATOM     19  C   UNL     1       0.129  10.590  18.847  0.00  0.00    +0.000 C 
ATOM     20  S   UNL     1       0.315  11.961  19.830  0.00  0.00    +0.000 S 
BRANCH  19  21
ATOM     21  N   UNL     1      -1.155  10.096  18.803  0.00  0.00    +0.000 N 
ATOM     22  H   UNL     1      -1.368   9.484  19.581  0.00  0.00    +0.000 HD
BRANCH  21  28
ATOM     23  C   UNL     1      -3.200   9.997  14.305  0.00  0.00    +0.000 C 
ATOM     24  C   UNL     1      -3.271  10.408  15.744  0.00  0.00    +0.000 A 
ATOM     25  C   UNL     1      -4.291  11.228  16.233  0.00  0.00    +0.000 A 
ATOM     26  C   UNL     1      -4.281  11.630  17.568  0.00  0.00    +0.000 A 
ATOM     27  C   UNL     1      -3.242  11.223  18.412  0.00  0.00    +0.000 A 
ATOM     28  C   UNL     1      -2.219  10.394  17.936  0.00  0.00    +0.000 A 
ATOM     29  C   UNL     1      -2.248   9.989  16.605  0.00  0.00    +0.000 A 
ENDBRANCH  21  28
ENDBRANCH  19  21
ENDBRANCH   1  19
TORSDOF 3
ENDMDL
MODEL 2
REMARK VINA RESULT:      -8.6      0.327      1.351
REMARK  Name = 
REMARK  5 active torsions:
REMARK  status: ('A' for Active; 'I' for Inactive)
REMARK    1  A    between atoms: C_1  and  C_2
REMARK    2  A    between atoms: C_6  and  N_7
REMARK    3  A    between atoms: N_7  and  C_8
REMARK    4  A    between atoms: C_8  and  N_10
REMARK    5  A    between atoms: C_16  and  C_17
REMARK                            x       y       z     vdW  Elec       q    Type
REMARK                         _______ _______ _______ _____ _____    ______ ____
ROOT
ATOM      1  N   UNL     1       1.280   9.820  18.201  0.00  0.00    +0.000 NA
ATOM      2  C   UNL     1       1.828   8.813  18.818  0.00  0.00    +0.000 C 
ATOM      3  N   UNL     1       1.623   8.462  20.123  0.00  0.00    +0.000 N 
ATOM      4  N   UNL     1       2.772   8.046  18.186  0.00  0.00    +0.000 N 
ATOM      5  C   UNL     1       2.823   6.647  18.233  0.00  0.00    +0.000 A 
ATOM      6  N   UNL     1       3.675   6.025  17.404  0.00  0.00    +0.000 NA
ATOM      7  C   UNL     1       3.722   4.666  17.449  0.00  0.00    +0.000 A 
ATOM      8  C   UNL     1       4.725   4.009  16.541  0.00  0.00    +0.000 C 
ATOM      9  C   UNL     1       2.891   3.902  18.280  0.00  0.00    +0.000 A 
ATOM     10  C   UNL     1       2.866   2.486  18.362  0.00  0.00    +0.000 A 
ATOM     11  C   UNL     1       1.973   1.836  19.212  0.00  0.00    +0.000 A 
ATOM     12  C   UNL     1       1.105   2.588  19.989  0.00  0.00    +0.000 A 
ATOM     13  C   UNL     1       1.145   3.983  19.919  0.00  0.00    +0.000 A 
ATOM     14  C   UNL     1       2.029   4.650  19.082  0.00  0.00    +0.000 A 
ATOM     15  N   UNL     1       2.011   5.985  19.076  0.00  0.00    +0.000 NA
ATOM     16  H   UNL     1       0.768   8.826  20.526  0.00  0.00    +0.000 HD
ATOM     17  H   UNL     1       1.670   7.450  20.250  0.00  0.00    +0.000 HD
ATOM     18  H   UNL     1       3.062   8.357  17.270  0.00  0.00    +0.000 HD
ENDROOT
BRANCH   1  19
ATOM     19  C   UNL     1       0.268  10.560  18.772  0.00  0.00    +0.000 C 
ATOM     20  S   UNL     1       0.470  11.908  19.783  0.00  0.00    +0.000 S 
BRANCH  19  21
ATOM     21  N   UNL     1      -1.029  10.107  18.686  0.00  0.00    +0.000 N 
ATOM     22  H   UNL     1      -1.284   9.496  19.453  0.00  0.00    +0.000 HD
BRANCH  21  28
ATOM     23  C   UNL     1      -5.409  12.195  17.746  0.00  0.00    +0.000 C 
ATOM     24  C   UNL     1      -4.219  11.423  17.263  0.00  0.00    +0.000 A 
ATOM     25  C   UNL     1      -4.160  10.875  15.979  0.00  0.00    +0.000 A 
ATOM     26  C   UNL     1      -3.055  10.115  15.597  0.00  0.00    +0.000 A 
ATOM     27  C   UNL     1      -2.014   9.891  16.504  0.00  0.00    +0.000 A 
ATOM     28  C   UNL     1      -2.057  10.443  17.790  0.00  0.00    +0.000 A 
ATOM     29  C   UNL     1      -3.158  11.211  18.155  0.00  0.00    +0.000 A 
ENDBRANCH  21  28
ENDBRANCH  19  21
ENDBRANCH   1  19
TORSDOF 3
ENDMDL
MODEL 3
REMARK VINA RESULT:      -8.5      2.669      8.571
REMARK  Name = 
REMARK  5 active torsions:
REMARK  status: ('A' for Active; 'I' for Inactive)
REMARK    1  A    between atoms: C_1  and  C_2
REMARK    2  A    between atoms: C_6  and  N_7
REMARK    3  A    between atoms: N_7  and  C_8
REMARK    4  A    between atoms: C_8  and  N_10
REMARK    5  A    between atoms: C_16  and  C_17
REMARK                            x       y       z     vdW  Elec       q    Type
REMARK                         _______ _______ _______ _____ _____    ______ ____
ROOT
ATOM      1  N   UNL     1       2.252   5.441  20.241  0.00  0.00    +0.000 NA
ATOM      2  C   UNL     1       2.227   6.731  20.071  0.00  0.00    +0.000 C 
ATOM      3  N   UNL     1       2.675   7.405  18.968  0.00  0.00    +0.000 N 
ATOM      4  N   UNL     1       1.806   7.555  21.082  0.00  0.00    +0.000 N 
ATOM      5  C   UNL     1       0.951   8.651  20.913  0.00  0.00    +0.000 A 
ATOM      6  N   UNL     1       0.464   9.239  22.016  0.00  0.00    +0.000 NA
ATOM      7  C   UNL     1      -0.367  10.303  21.850  0.00  0.00    +0.000 A 
ATOM      8  C   UNL     1      -0.852  10.966  23.111  0.00  0.00    +0.000 C 
ATOM      9  C   UNL     1      -0.767  10.769  20.590  0.00  0.00    +0.000 A 
ATOM     10  C   UNL     1      -1.649  11.852  20.342  0.00  0.00    +0.000 A 
ATOM     11  C   UNL     1      -1.993  12.207  19.038  0.00  0.00    +0.000 A 
ATOM     12  C   UNL     1      -1.460  11.492  17.976  0.00  0.00    +0.000 A 
ATOM     13  C   UNL     1      -0.578  10.438  18.225  0.00  0.00    +0.000 A 
ATOM     14  C   UNL     1      -0.219  10.071  19.515  0.00  0.00    +0.000 A 
ATOM     15  N   UNL     1       0.634   9.055  19.670  0.00  0.00    +0.000 NA
ATOM     16  H   UNL     1       2.742   6.840  18.130  0.00  0.00    +0.000 HD
ATOM     17  H   UNL     1       2.117   8.241  18.788  0.00  0.00    +0.000 HD
ATOM     18  H   UNL     1       1.603   7.110  21.966  0.00  0.00    +0.000 HD
ENDROOT
BRANCH   1  19
ATOM     19  C   UNL     1       2.587   4.579  19.221  0.00  0.00    +0.000 C 
ATOM     20  S   UNL     1       1.509   3.896  18.102  0.00  0.00    +0.000 S 
BRANCH  19  21
ATOM     21  N   UNL     1       3.861   4.063  19.166  0.00  0.00    +0.000 N 
ATOM     22  H   UNL     1       3.986   3.256  19.766  0.00  0.00    +0.000 HD
BRANCH  21  28
ATOM     23  C   UNL     1       6.165   3.911  14.796  0.00  0.00    +0.000 C 
ATOM     24  C   UNL     1       6.152   4.338  16.232  0.00  0.00    +0.000 A 
ATOM     25  C   UNL     1       7.263   4.927  16.842  0.00  0.00    +0.000 A 
ATOM     26  C   UNL     1       7.221   5.254  18.196  0.00  0.00    +0.000 A 
ATOM     27  C   UNL     1       6.072   4.981  18.946  0.00  0.00    +0.000 A 
ATOM     28  C   UNL     1       4.949   4.400  18.344  0.00  0.00    +0.000 A 
ATOM     29  C   UNL     1       4.999   4.090  16.988  0.00  0.00    +0.000 A 
ENDBRANCH  21  28
ENDBRANCH  19  21
ENDBRANCH   1  19
TORSDOF 3
ENDMDL
MODEL 4
REMARK VINA RESULT:      -8.4      2.732      8.512
REMARK  Name = 
REMARK  5 active torsions:
REMARK  status: ('A' for Active; 'I' for Inactive)
REMARK    1  A    between atoms: C_1  and  C_2
REMARK    2  A    between atoms: C_6  and  N_7
REMARK    3  A    between atoms: N_7  and  C_8
REMARK    4  A    between atoms: C_8  and  N_10
REMARK    5  A    between atoms: C_16  and  C_17
REMARK                            x       y       z     vdW  Elec       q    Type
REMARK                         _______ _______ _______ _____ _____    ______ ____
ROOT
ATOM      1  N   UNL     1       2.373   5.545  20.061  0.00  0.00    +0.000 NA
ATOM      2  C   UNL     1       2.310   6.839  19.927  0.00  0.00    +0.000 C 
ATOM      3  N   UNL     1       2.722   7.555  18.838  0.00  0.00    +0.000 N 
ATOM      4  N   UNL     1       1.881   7.622  20.967  0.00  0.00    +0.000 N 
ATOM      5  C   UNL     1       0.994   8.698  20.841  0.00  0.00    +0.000 A 
ATOM      6  N   UNL     1       0.507   9.241  21.967  0.00  0.00    +0.000 NA
ATOM      7  C   UNL     1      -0.355  10.286  21.843  0.00  0.00    +0.000 A 
ATOM      8  C   UNL     1      -0.839  10.899  23.128  0.00  0.00    +0.000 C 
ATOM      9  C   UNL     1      -0.787  10.775  20.603  0.00  0.00    +0.000 A 
ATOM     10  C   UNL     1      -1.702  11.840  20.397  0.00  0.00    +0.000 A 
ATOM     11  C   UNL     1      -2.075  12.221  19.109  0.00  0.00    +0.000 A 
ATOM     12  C   UNL     1      -1.538  11.551  18.019  0.00  0.00    +0.000 A 
ATOM     13  C   UNL     1      -0.624  10.515  18.226  0.00  0.00    +0.000 A 
ATOM     14  C   UNL     1      -0.236  10.122  19.500  0.00  0.00    +0.000 A 
ATOM     15  N   UNL     1       0.648   9.127  19.614  0.00  0.00    +0.000 NA
ATOM     16  H   UNL     1       2.792   7.016  17.983  0.00  0.00    +0.000 HD
ATOM     17  H   UNL     1       2.139   8.379  18.688  0.00  0.00    +0.000 HD
ATOM     18  H   UNL     1       1.704   7.147  21.841  0.00  0.00    +0.000 HD
ENDROOT
BRANCH   1  19
ATOM     19  C   UNL     1       2.716   4.721  19.012  0.00  0.00    +0.000 C 
ATOM     20  S   UNL     1       1.636   3.994  17.924  0.00  0.00    +0.000 S 
BRANCH  19  21
ATOM     21  N   UNL     1       4.015   4.284  18.896  0.00  0.00    +0.000 N 
ATOM     22  H   UNL     1       4.218   3.490  19.492  0.00  0.00    +0.000 HD
BRANCH  21  28
ATOM     23  C   UNL     1       7.732   7.320  17.713  0.00  0.00    +0.000 C 
ATOM     24  C   UNL     1       6.857   6.155  17.362  0.00  0.00    +0.000 A 
ATOM     25  C   UNL     1       6.910   5.538  16.109  0.00  0.00    +0.000 A 
ATOM     26  C   UNL     1       6.035   4.495  15.810  0.00  0.00    +0.000 A 
ATOM     27  C   UNL     1       5.096   4.077  16.759  0.00  0.00    +0.000 A 
ATOM     28  C   UNL     1       5.040   4.681  18.021  0.00  0.00    +0.000 A 
ATOM     29  C   UNL     1       5.927   5.712  18.312  0.00  0.00    +0.000 A 
ENDBRANCH  21  28
ENDBRANCH  19  21
ENDBRANCH   1  19
TORSDOF 3
ENDMDL
MODEL 5
REMARK VINA RESULT:      -8.3      1.767      8.344
REMARK  Name = 
REMARK  5 active torsions:
REMARK  status: ('A' for Active; 'I' for Inactive)
REMARK    1  A    between atoms: C_1  and  C_2
REMARK    2  A    between atoms: C_6  and  N_7
REMARK    3  A    between atoms: N_7  and  C_8
REMARK    4  A    between atoms: C_8  and  N_10
REMARK    5  A    between atoms: C_16  and  C_17
REMARK                            x       y       z     vdW  Elec       q    Type
REMARK                         _______ _______ _______ _____ _____    ______ ____
ROOT
ATOM      1  N   UNL     1       2.289   7.901  19.150  0.00  0.00    +0.000 NA
ATOM      2  C   UNL     1       1.683   8.924  18.620  0.00  0.00    +0.000 C 
ATOM      3  N   UNL     1       1.653   9.240  17.290  0.00  0.00    +0.000 N 
ATOM      4  N   UNL     1       1.072   9.856  19.419  0.00  0.00    +0.000 N 
ATOM      5  C   UNL     1      -0.188  10.413  19.172  0.00  0.00    +0.000 A 
ATOM      6  N   UNL     1      -0.744  11.155  20.142  0.00  0.00    +0.000 NA
ATOM      7  C   UNL     1      -1.969  11.694  19.901  0.00  0.00    +0.000 A 
ATOM      8  C   UNL     1      -2.536  12.561  20.992  0.00  0.00    +0.000 C 
ATOM      9  C   UNL     1      -2.684  11.466  18.717  0.00  0.00    +0.000 A 
ATOM     10  C   UNL     1      -3.973  11.971  18.408  0.00  0.00    +0.000 A 
ATOM     11  C   UNL     1      -4.594  11.652  17.202  0.00  0.00    +0.000 A 
ATOM     12  C   UNL     1      -3.937  10.834  16.295  0.00  0.00    +0.000 A 
ATOM     13  C   UNL     1      -2.661  10.352  16.595  0.00  0.00    +0.000 A 
ATOM     14  C   UNL     1      -2.023  10.662  17.789  0.00  0.00    +0.000 A 
ATOM     15  N   UNL     1      -0.800  10.168  17.999  0.00  0.00    +0.000 NA
ATOM     16  H   UNL     1       1.856   8.466  16.671  0.00  0.00    +0.000 HD
ATOM     17  H   UNL     1       0.769   9.679  17.030  0.00  0.00    +0.000 HD
ATOM     18  H   UNL     1       1.195   9.741  20.414  0.00  0.00    +0.000 HD
ENDROOT
BRANCH   1  19
ATOM     19  C   UNL     1       2.839   6.901  18.378  0.00  0.00    +0.000 C 
ATOM     20  S   UNL     1       4.390   6.914  17.691  0.00  0.00    +0.000 S 
BRANCH  19  21
ATOM     21  N   UNL     1       2.043   5.860  17.959  0.00  0.00    +0.000 N 
ATOM     22  H   UNL     1       1.512   6.081  17.125  0.00  0.00    +0.000 HD
BRANCH  21  28
ATOM     23  C   UNL     1       1.425   2.634  21.652  0.00  0.00    +0.000 C 
ATOM     24  C   UNL     1       1.678   2.896  20.198  0.00  0.00    +0.000 A 
ATOM     25  C   UNL     1       1.987   1.870  19.301  0.00  0.00    +0.000 A 
ATOM     26  C   UNL     1       2.272   2.172  17.970  0.00  0.00    +0.000 A 
ATOM     27  C   UNL     1       2.262   3.503  17.539  0.00  0.00    +0.000 A 
ATOM     28  C   UNL     1       1.945   4.538  18.426  0.00  0.00    +0.000 A 
ATOM     29  C   UNL     1       1.649   4.223  19.748  0.00  0.00    +0.000 A 
ENDBRANCH  21  28
ENDBRANCH  19  21
ENDBRANCH   1  19
TORSDOF 3
ENDMDL
MODEL 6
REMARK VINA RESULT:      -8.2      2.382      3.498
REMARK  Name = 
REMARK  5 active torsions:
REMARK  status: ('A' for Active; 'I' for Inactive)
REMARK    1  A    between atoms: C_1  and  C_2
REMARK    2  A    between atoms: C_6  and  N_7
REMARK    3  A    between atoms: N_7  and  C_8
REMARK    4  A    between atoms: C_8  and  N_10
REMARK    5  A    between atoms: C_16  and  C_17
REMARK                            x       y       z     vdW  Elec       q    Type
REMARK                         _______ _______ _______ _____ _____    ______ ____
ROOT
ATOM      1  N   UNL     1       1.283   9.733  17.973  0.00  0.00    +0.000 NA
ATOM      2  C   UNL     1       1.886   8.731  18.544  0.00  0.00    +0.000 C 
ATOM      3  N   UNL     1       1.589   8.207  19.772  0.00  0.00    +0.000 N 
ATOM      4  N   UNL     1       2.982   8.156  17.954  0.00  0.00    +0.000 N 
ATOM      5  C   UNL     1       3.205   6.776  17.862  0.00  0.00    +0.000 A 
ATOM      6  N   UNL     1       4.213   6.358  17.082  0.00  0.00    +0.000 NA
ATOM      7  C   UNL     1       4.428   5.018  16.992  0.00  0.00    +0.000 A 
ATOM      8  C   UNL     1       5.598   4.591  16.149  0.00  0.00    +0.000 C 
ATOM      9  C   UNL     1       3.617   4.071  17.634  0.00  0.00    +0.000 A 
ATOM     10  C   UNL     1       3.765   2.661  17.565  0.00  0.00    +0.000 A 
ATOM     11  C   UNL     1       2.876   1.818  18.229  0.00  0.00    +0.000 A 
ATOM     12  C   UNL     1       1.840   2.369  18.970  0.00  0.00    +0.000 A 
ATOM     13  C   UNL     1       1.710   3.758  19.050  0.00  0.00    +0.000 A 
ATOM     14  C   UNL     1       2.587   4.616  18.399  0.00  0.00    +0.000 A 
ATOM     15  N   UNL     1       2.399   5.931  18.529  0.00  0.00    +0.000 NA
ATOM     16  H   UNL     1       0.657   8.422  20.105  0.00  0.00    +0.000 HD
ATOM     17  H   UNL     1       1.750   7.199  19.799  0.00  0.00    +0.000 HD
ATOM     18  H   UNL     1       3.326   8.604  17.117  0.00  0.00    +0.000 HD
ENDROOT
BRANCH   1  19
ATOM     19  C   UNL     1       0.130  10.280  18.492  0.00  0.00    +0.000 C 
ATOM     20  S   UNL     1      -1.425  10.135  17.829  0.00  0.00    +0.000 S 
BRANCH  19  21
ATOM     21  N   UNL     1       0.218  11.167  19.540  0.00  0.00    +0.000 N 
ATOM     22  H   UNL     1       0.873  11.919  19.366  0.00  0.00    +0.000 HD
BRANCH  21  28
ATOM     23  C   UNL     1      -3.089  13.481  22.393  0.00  0.00    +0.000 C 
ATOM     24  C   UNL     1      -2.119  12.356  22.197  0.00  0.00    +0.000 A 
ATOM     25  C   UNL     1      -1.796  11.466  23.225  0.00  0.00    +0.000 A 
ATOM     26  C   UNL     1      -0.843  10.471  23.010  0.00  0.00    +0.000 A 
ATOM     27  C   UNL     1      -0.203  10.374  21.770  0.00  0.00    +0.000 A 
ATOM     28  C   UNL     1      -0.525  11.253  20.730  0.00  0.00    +0.000 A 
ATOM     29  C   UNL     1      -1.486  12.234  20.953  0.00  0.00    +0.000 A 
ENDBRANCH  21  28
ENDBRANCH  19  21
ENDBRANCH   1  19
TORSDOF 3
ENDMDL
MODEL 7
REMARK VINA RESULT:      -8.0      2.389      3.556
REMARK  Name = 
REMARK  5 active torsions:
REMARK  status: ('A' for Active; 'I' for Inactive)
REMARK    1  A    between atoms: C_1  and  C_2
REMARK    2  A    between atoms: C_6  and  N_7
REMARK    3  A    between atoms: N_7  and  C_8
REMARK    4  A    between atoms: C_8  and  N_10
REMARK    5  A    between atoms: C_16  and  C_17
REMARK                            x       y       z     vdW  Elec       q    Type
REMARK                         _______ _______ _______ _____ _____    ______ ____
ROOT
ATOM      1  N   UNL     1       1.364   9.734  17.771  0.00  0.00    +0.000 NA
ATOM      2  C   UNL     1       1.924   8.733  18.387  0.00  0.00    +0.000 C 
ATOM      3  N   UNL     1       1.560   8.236  19.607  0.00  0.00    +0.000 N 
ATOM      4  N   UNL     1       3.038   8.133  17.860  0.00  0.00    +0.000 N 
ATOM      5  C   UNL     1       3.245   6.749  17.802  0.00  0.00    +0.000 A 
ATOM      6  N   UNL     1       4.283   6.303  17.079  0.00  0.00    +0.000 NA
ATOM      7  C   UNL     1       4.482   4.959  17.022  0.00  0.00    +0.000 A 
ATOM      8  C   UNL     1       5.685   4.501  16.244  0.00  0.00    +0.000 C 
ATOM      9  C   UNL     1       3.628   4.035  17.639  0.00  0.00    +0.000 A 
ATOM     10  C   UNL     1       3.757   2.622  17.601  0.00  0.00    +0.000 A 
ATOM     11  C   UNL     1       2.825   1.803  18.236  0.00  0.00    +0.000 A 
ATOM     12  C   UNL     1       1.763   2.381  18.916  0.00  0.00    +0.000 A 
ATOM     13  C   UNL     1       1.649   3.773  18.966  0.00  0.00    +0.000 A 
ATOM     14  C   UNL     1       2.569   4.607  18.344  0.00  0.00    +0.000 A 
ATOM     15  N   UNL     1       2.395   5.927  18.443  0.00  0.00    +0.000 NA
ATOM     16  H   UNL     1       0.616   8.469  19.890  0.00  0.00    +0.000 HD
ATOM     17  H   UNL     1       1.705   7.226  19.658  0.00  0.00    +0.000 HD
ATOM     18  H   UNL     1       3.429   8.561  17.034  0.00  0.00    +0.000 HD
ENDROOT
BRANCH   1  19
ATOM     19  C   UNL     1       0.195  10.305  18.224  0.00  0.00    +0.000 C 
ATOM     20  S   UNL     1      -1.360  10.004  17.616  0.00  0.00    +0.000 S 
BRANCH  19  21
ATOM     21  N   UNL     1       0.258  11.340  19.129  0.00  0.00    +0.000 N 
ATOM     22  H   UNL     1       0.636  12.190  18.729  0.00  0.00    +0.000 HD
BRANCH  21  28
ATOM     23  C   UNL     1      -0.162   9.479  23.688  0.00  0.00    +0.000 C 
ATOM     24  C   UNL     1      -0.487  10.559  22.702  0.00  0.00    +0.000 A 
ATOM     25  C   UNL     1      -1.386  11.587  22.996  0.00  0.00    +0.000 A 
ATOM     26  C   UNL     1      -1.700  12.536  22.024  0.00  0.00    +0.000 A 
ATOM     27  C   UNL     1      -1.124  12.450  20.752  0.00  0.00    +0.000 A 
ATOM     28  C   UNL     1      -0.214  11.430  20.449  0.00  0.00    +0.000 A 
ATOM     29  C   UNL     1       0.101  10.497  21.431  0.00  0.00    +0.000 A 
ENDBRANCH  21  28
ENDBRANCH  19  21
ENDBRANCH   1  19
TORSDOF 3
ENDMDL
MODEL 8
REMARK VINA RESULT:      -8.0      3.841      8.323
REMARK  Name = 
REMARK  5 active torsions:
REMARK  status: ('A' for Active; 'I' for Inactive)
REMARK    1  A    between atoms: C_1  and  C_2
REMARK    2  A    between atoms: C_6  and  N_7
REMARK    3  A    between atoms: N_7  and  C_8
REMARK    4  A    between atoms: C_8  and  N_10
REMARK    5  A    between atoms: C_16  and  C_17
REMARK                            x       y       z     vdW  Elec       q    Type
REMARK                         _______ _______ _______ _____ _____    ______ ____
ROOT
ATOM      1  N   UNL     1       4.433   6.751  17.375  0.00  0.00    +0.000 NA
ATOM      2  C   UNL     1       3.230   7.024  17.792  0.00  0.00    +0.000 C 
ATOM      3  N   UNL     1       2.370   6.147  18.391  0.00  0.00    +0.000 N 
ATOM      4  N   UNL     1       2.682   8.259  17.564  0.00  0.00    +0.000 N 
ATOM      5  C   UNL     1       1.959   8.997  18.509  0.00  0.00    +0.000 A 
ATOM      6  N   UNL     1       1.660  10.271  18.211  0.00  0.00    +0.000 NA
ATOM      7  C   UNL     1       0.960  10.987  19.131  0.00  0.00    +0.000 A 
ATOM      8  C   UNL     1       0.601  12.394  18.740  0.00  0.00    +0.000 C 
ATOM      9  C   UNL     1       0.588  10.468  20.379  0.00  0.00    +0.000 A 
ATOM     10  C   UNL     1      -0.119  11.162  21.395  0.00  0.00    +0.000 A 
ATOM     11  C   UNL     1      -0.410  10.544  22.610  0.00  0.00    +0.000 A 
ATOM     12  C   UNL     1      -0.007   9.233  22.821  0.00  0.00    +0.000 A 
ATOM     13  C   UNL     1       0.673   8.548  21.810  0.00  0.00    +0.000 A 
ATOM     14  C   UNL     1       0.969   9.143  20.592  0.00  0.00    +0.000 A 
ATOM     15  N   UNL     1       1.616   8.420  19.674  0.00  0.00    +0.000 NA
ATOM     16  H   UNL     1       2.816   5.335  18.801  0.00  0.00    +0.000 HD
ATOM     17  H   UNL     1       1.782   6.613  19.084  0.00  0.00    +0.000 HD
ATOM     18  H   UNL     1       3.227   8.892  16.995  0.00  0.00    +0.000 HD
ENDROOT
BRANCH   1  19
ATOM     19  C   UNL     1       5.048   5.552  17.660  0.00  0.00    +0.000 C 
ATOM     20  S   UNL     1       5.982   5.216  19.036  0.00  0.00    +0.000 S 
BRANCH  19  21
ATOM     21  N   UNL     1       5.079   4.566  16.701  0.00  0.00    +0.000 N 
ATOM     22  H   UNL     1       4.512   3.763  16.943  0.00  0.00    +0.000 HD
BRANCH  21  28
ATOM     23  C   UNL     1       5.053   3.139  11.969  0.00  0.00    +0.000 C 
ATOM     24  C   UNL     1       5.731   3.860  13.094  0.00  0.00    +0.000 A 
ATOM     25  C   UNL     1       7.018   4.390  12.969  0.00  0.00    +0.000 A 
ATOM     26  C   UNL     1       7.629   5.001  14.063  0.00  0.00    +0.000 A 
ATOM     27  C   UNL     1       6.957   5.070  15.288  0.00  0.00    +0.000 A 
ATOM     28  C   UNL     1       5.664   4.551  15.424  0.00  0.00    +0.000 A 
ATOM     29  C   UNL     1       5.060   3.956  14.321  0.00  0.00    +0.000 A 
ENDBRANCH  21  28
ENDBRANCH  19  21
ENDBRANCH   1  19
TORSDOF 3
ENDMDL
MODEL 9
REMARK VINA RESULT:      -7.9      2.380      8.569
REMARK  Name = 
REMARK  5 active torsions:
REMARK  status: ('A' for Active; 'I' for Inactive)
REMARK    1  A    between atoms: C_1  and  C_2
REMARK    2  A    between atoms: C_6  and  N_7
REMARK    3  A    between atoms: N_7  and  C_8
REMARK    4  A    between atoms: C_8  and  N_10
REMARK    5  A    between atoms: C_16  and  C_17
REMARK                            x       y       z     vdW  Elec       q    Type
REMARK                         _______ _______ _______ _____ _____    ______ ____
ROOT
ATOM      1  N   UNL     1       2.334   7.289  19.702  0.00  0.00    +0.000 NA
ATOM      2  C   UNL     1       1.872   8.283  19.000  0.00  0.00    +0.000 C 
ATOM      3  N   UNL     1       2.001   8.441  17.648  0.00  0.00    +0.000 N 
ATOM      4  N   UNL     1       1.266   9.345  19.620  0.00  0.00    +0.000 N 
ATOM      5  C   UNL     1       0.088   9.959  19.178  0.00  0.00    +0.000 A 
ATOM      6  N   UNL     1      -0.496  10.850  19.994  0.00  0.00    +0.000 NA
ATOM      7  C   UNL     1      -1.642  11.444  19.564  0.00  0.00    +0.000 A 
ATOM      8  C   UNL     1      -2.238  12.473  20.485  0.00  0.00    +0.000 C 
ATOM      9  C   UNL     1      -2.252  11.129  18.343  0.00  0.00    +0.000 A 
ATOM     10  C   UNL     1      -3.457  11.687  17.842  0.00  0.00    +0.000 A 
ATOM     11  C   UNL     1      -3.981  11.272  16.619  0.00  0.00    +0.000 A 
ATOM     12  C   UNL     1      -3.309  10.307  15.884  0.00  0.00    +0.000 A 
ATOM     13  C   UNL     1      -2.114   9.773  16.372  0.00  0.00    +0.000 A 
ATOM     14  C   UNL     1      -1.573  10.175  17.586  0.00  0.00    +0.000 A 
ATOM     15  N   UNL     1      -0.423   9.622  17.980  0.00  0.00    +0.000 NA
ATOM     16  H   UNL     1       2.198   7.585  17.143  0.00  0.00    +0.000 HD
ATOM     17  H   UNL     1       1.187   8.908  17.246  0.00  0.00    +0.000 HD
ATOM     18  H   UNL     1       1.279   9.340  20.629  0.00  0.00    +0.000 HD
ENDROOT
BRANCH   1  19
ATOM     19  C   UNL     1       2.870   6.167  19.109  0.00  0.00    +0.000 C 
ATOM     20  S   UNL     1       1.995   4.933  18.342  0.00  0.00    +0.000 S 
BRANCH  19  21
ATOM     21  N   UNL     1       4.209   5.893  19.275  0.00  0.00    +0.000 N 
ATOM     22  H   UNL     1       4.487   5.862  20.248  0.00  0.00    +0.000 HD
BRANCH  21  28
ATOM     23  C   UNL     1       5.532   4.708  14.663  0.00  0.00    +0.000 C 
ATOM     24  C   UNL     1       5.909   4.925  16.096  0.00  0.00    +0.000 A 
ATOM     25  C   UNL     1       7.188   4.636  16.580  0.00  0.00    +0.000 A 
ATOM     26  C   UNL     1       7.473   4.800  17.934  0.00  0.00    +0.000 A 
ATOM     27  C   UNL     1       6.475   5.242  18.809  0.00  0.00    +0.000 A 
ATOM     28  C   UNL     1       5.194   5.545  18.335  0.00  0.00    +0.000 A 
ATOM     29  C   UNL     1       4.925   5.389  16.979  0.00  0.00    +0.000 A 
ENDBRANCH  21  28
ENDBRANCH  19  21
ENDBRANCH   1  19
TORSDOF 3
ENDMDL
