MODEL 1
REMARK VINA RESULT:      -7.7      0.000      0.000
REMARK  Name = 
REMARK  3 active torsions:
REMARK  status: ('A' for Active; 'I' for Inactive)
REMARK    1  A    between atoms: C_2  and  C_10
REMARK    2  A    between atoms: N_3  and  C_4
REMARK    3  A    between atoms: C_13  and  N_14
REMARK                            x       y       z     vdW  Elec       q    Type
REMARK                         _______ _______ _______ _____ _____    ______ ____
ROOT
ATOM      1  O   UNL     1       4.101   5.775  18.521  0.00  0.00    +0.000 OA
ATOM      2  C   UNL     1       4.369   4.706  17.982  0.00  0.00    +0.000 C 
ATOM      3  N   UNL     1       3.870   3.474  18.351  0.00  0.00    +0.000 N 
ATOM      4  H   UNL     1       4.240   2.657  17.876  0.00  0.00    +0.000 HD
ENDROOT
BRANCH   2   5
ATOM      5  C   UNL     1       5.324   4.746  16.830  0.00  0.00    +0.000 A 
ATOM      6  C   UNL     1       4.784   4.368  15.583  0.00  0.00    +0.000 A 
ATOM      7  C   UNL     1       5.542   4.438  14.412  0.00  0.00    +0.000 A 
ATOM      8  C   UNL     1       6.859   4.895  14.479  0.00  0.00    +0.000 A 
ATOM      9  C   UNL     1       7.424   5.255  15.708  0.00  0.00    +0.000 A 
ATOM     10  C   UNL     1       6.657   5.183  16.881  0.00  0.00    +0.000 A 
ATOM     11 CL   UNL     1       7.448   5.698  18.331  0.00  0.00    +0.000 Cl
BRANCH   8  12
ATOM     12  N   UNL     1       7.650   5.024  13.247  0.00  0.00    +0.000 N 
ATOM     13  O   UNL     1       7.291   4.364  12.262  0.00  0.00    +0.000 OA
ATOM     14  O   UNL     1       8.621   5.790  13.269  0.00  0.00    +0.000 OA
ENDBRANCH   8  12
ENDBRANCH   2   5
BRANCH   3  15
ATOM     15  C   UNL     1       3.013   3.211  19.443  0.00  0.00    +0.000 A 
ATOM     16  C   UNL     1       1.640   3.447  19.437  0.00  0.00    +0.000 A 
ATOM     17  C   UNL     1       0.886   3.191  20.583  0.00  0.00    +0.000 A 
ATOM     18  C   UNL     1       1.533   2.699  21.703  0.00  0.00    +0.000 A 
ATOM     19  N   UNL     1       2.855   2.433  21.746  0.00  0.00    +0.000 NA
ATOM     20  C   UNL     1       3.558   2.690  20.616  0.00  0.00    +0.000 A 
ENDBRANCH   3  15
TORSDOF 3
ENDMDL
MODEL 2
REMARK VINA RESULT:      -7.3      1.122      1.394
REMARK  Name = 
REMARK  3 active torsions:
REMARK  status: ('A' for Active; 'I' for Inactive)
REMARK    1  A    between atoms: C_2  and  C_10
REMARK    2  A    between atoms: N_3  and  C_4
REMARK    3  A    between atoms: C_13  and  N_14
REMARK                            x       y       z     vdW  Elec       q    Type
REMARK                         _______ _______ _______ _____ _____    ______ ____
ROOT
ATOM      1  O   UNL     1       5.756   3.995  19.000  0.00  0.00    +0.000 OA
ATOM      2  C   UNL     1       5.113   4.205  17.976  0.00  0.00    +0.000 C 
ATOM      3  N   UNL     1       3.737   4.219  17.881  0.00  0.00    +0.000 N 
ATOM      4  H   UNL     1       3.333   4.319  16.956  0.00  0.00    +0.000 HD
ENDROOT
BRANCH   2   5
ATOM      5  C   UNL     1       5.894   4.460  16.725  0.00  0.00    +0.000 A 
ATOM      6  C   UNL     1       5.530   3.671  15.613  0.00  0.00    +0.000 A 
ATOM      7  C   UNL     1       6.120   3.861  14.362  0.00  0.00    +0.000 A 
ATOM      8  C   UNL     1       7.088   4.856  14.210  0.00  0.00    +0.000 A 
ATOM      9  C   UNL     1       7.482   5.636  15.303  0.00  0.00    +0.000 A 
ATOM     10  C   UNL     1       6.885   5.441  16.557  0.00  0.00    +0.000 A 
ATOM     11 CL   UNL     1       7.419   6.496  17.820  0.00  0.00    +0.000 Cl
BRANCH   8  12
ATOM     12  N   UNL     1       7.679   5.102  12.887  0.00  0.00    +0.000 N 
ATOM     13  O   UNL     1       8.525   6.001  12.794  0.00  0.00    +0.000 OA
ATOM     14  O   UNL     1       7.299   4.389  11.950  0.00  0.00    +0.000 OA
ENDBRANCH   8  12
ENDBRANCH   2   5
BRANCH   3  15
ATOM     15  C   UNL     1       2.824   3.940  18.923  0.00  0.00    +0.000 A 
ATOM     16  C   UNL     1       2.367   4.884  19.839  0.00  0.00    +0.000 A 
ATOM     17  C   UNL     1       1.495   4.499  20.858  0.00  0.00    +0.000 A 
ATOM     18  C   UNL     1       1.101   3.174  20.924  0.00  0.00    +0.000 A 
ATOM     19  N   UNL     1       1.499   2.231  20.044  0.00  0.00    +0.000 NA
ATOM     20  C   UNL     1       2.344   2.638  19.066  0.00  0.00    +0.000 A 
ENDBRANCH   3  15
TORSDOF 3
ENDMDL
MODEL 3
REMARK VINA RESULT:      -7.3      0.700      1.117
REMARK  Name = 
REMARK  3 active torsions:
REMARK  status: ('A' for Active; 'I' for Inactive)
REMARK    1  A    between atoms: C_2  and  C_10
REMARK    2  A    between atoms: N_3  and  C_4
REMARK    3  A    between atoms: C_13  and  N_14
REMARK                            x       y       z     vdW  Elec       q    Type
REMARK                         _______ _______ _______ _____ _____    ______ ____
ROOT
ATOM      1  O   UNL     1       4.477   5.778  18.693  0.00  0.00    +0.000 OA
ATOM      2  C   UNL     1       4.552   4.749  18.029  0.00  0.00    +0.000 C 
ATOM      3  N   UNL     1       3.880   3.573  18.293  0.00  0.00    +0.000 N 
ATOM      4  H   UNL     1       4.098   2.769  17.714  0.00  0.00    +0.000 HD
ENDROOT
BRANCH   2   5
ATOM      5  C   UNL     1       5.455   4.774  16.836  0.00  0.00    +0.000 A 
ATOM      6  C   UNL     1       4.866   4.362  15.622  0.00  0.00    +0.000 A 
ATOM      7  C   UNL     1       5.570   4.414  14.418  0.00  0.00    +0.000 A 
ATOM      8  C   UNL     1       6.884   4.887  14.417  0.00  0.00    +0.000 A 
ATOM      9  C   UNL     1       7.498   5.280  15.612  0.00  0.00    +0.000 A 
ATOM     10  C   UNL     1       6.784   5.226  16.819  0.00  0.00    +0.000 A 
ATOM     11 CL   UNL     1       7.631   5.782  18.221  0.00  0.00    +0.000 Cl
BRANCH   8  12
ATOM     12  N   UNL     1       7.618   4.996  13.149  0.00  0.00    +0.000 N 
ATOM     13  O   UNL     1       7.231   4.304  12.198  0.00  0.00    +0.000 OA
ATOM     14  O   UNL     1       8.574   5.781  13.108  0.00  0.00    +0.000 OA
ENDBRANCH   8  12
ENDBRANCH   2   5
BRANCH   3  15
ATOM     15  C   UNL     1       3.036   3.321  19.398  0.00  0.00    +0.000 A 
ATOM     16  C   UNL     1       3.455   2.725  20.585  0.00  0.00    +0.000 A 
ATOM     17  C   UNL     1       2.534   2.482  21.604  0.00  0.00    +0.000 A 
ATOM     18  C   UNL     1       1.215   2.851  21.404  0.00  0.00    +0.000 A 
ATOM     19  N   UNL     1       0.769   3.452  20.281  0.00  0.00    +0.000 NA
ATOM     20  C   UNL     1       1.690   3.676  19.312  0.00  0.00    +0.000 A 
ENDBRANCH   3  15
TORSDOF 3
ENDMDL
MODEL 4
REMARK VINA RESULT:      -7.1      1.281      1.296
REMARK  Name = 
REMARK  3 active torsions:
REMARK  status: ('A' for Active; 'I' for Inactive)
REMARK    1  A    between atoms: C_2  and  C_10
REMARK    2  A    between atoms: N_3  and  C_4
REMARK    3  A    between atoms: C_13  and  N_14
REMARK                            x       y       z     vdW  Elec       q    Type
REMARK                         _______ _______ _______ _____ _____    ______ ____
ROOT
ATOM      1  O   UNL     1       5.586   3.694  18.856  0.00  0.00    +0.000 OA
ATOM      2  C   UNL     1       5.016   4.113  17.853  0.00  0.00    +0.000 C 
ATOM      3  N   UNL     1       3.658   4.327  17.732  0.00  0.00    +0.000 N 
ATOM      4  H   UNL     1       3.306   4.593  16.819  0.00  0.00    +0.000 HD
ENDROOT
BRANCH   2   5
ATOM      5  C   UNL     1       5.870   4.409  16.660  0.00  0.00    +0.000 A 
ATOM      6  C   UNL     1       5.525   3.715  15.481  0.00  0.00    +0.000 A 
ATOM      7  C   UNL     1       6.186   3.957  14.275  0.00  0.00    +0.000 A 
ATOM      8  C   UNL     1       7.208   4.908  14.238  0.00  0.00    +0.000 A 
ATOM      9  C   UNL     1       7.584   5.593  15.399  0.00  0.00    +0.000 A 
ATOM     10  C   UNL     1       6.914   5.346  16.608  0.00  0.00    +0.000 A 
ATOM     11 CL   UNL     1       7.434   6.287  17.963  0.00  0.00    +0.000 Cl
BRANCH   8  12
ATOM     12  N   UNL     1       7.876   5.210  12.964  0.00  0.00    +0.000 N 
ATOM     13  O   UNL     1       7.458   4.641  11.947  0.00  0.00    +0.000 OA
ATOM     14  O   UNL     1       8.809   6.022  12.987  0.00  0.00    +0.000 OA
ENDBRANCH   8  12
ENDBRANCH   2   5
BRANCH   3  15
ATOM     15  C   UNL     1       2.677   4.051  18.711  0.00  0.00    +0.000 A 
ATOM     16  C   UNL     1       1.755   3.011  18.625  0.00  0.00    +0.000 A 
ATOM     17  C   UNL     1       0.798   2.846  19.626  0.00  0.00    +0.000 A 
ATOM     18  C   UNL     1       0.797   3.729  20.692  0.00  0.00    +0.000 A 
ATOM     19  N   UNL     1       1.686   4.736  20.828  0.00  0.00    +0.000 NA
ATOM     20  C   UNL     1       2.604   4.867  19.839  0.00  0.00    +0.000 A 
ENDBRANCH   3  15
TORSDOF 3
ENDMDL
MODEL 5
REMARK VINA RESULT:      -7.1      2.217      7.175
REMARK  Name = 
REMARK  3 active torsions:
REMARK  status: ('A' for Active; 'I' for Inactive)
REMARK    1  A    between atoms: C_2  and  C_10
REMARK    2  A    between atoms: N_3  and  C_4
REMARK    3  A    between atoms: C_13  and  N_14
REMARK                            x       y       z     vdW  Elec       q    Type
REMARK                         _______ _______ _______ _____ _____    ______ ____
ROOT
ATOM      1  O   UNL     1       4.758   6.210  16.190  0.00  0.00    +0.000 OA
ATOM      2  C   UNL     1       4.844   5.022  16.484  0.00  0.00    +0.000 C 
ATOM      3  N   UNL     1       5.507   4.060  15.751  0.00  0.00    +0.000 N 
ATOM      4  H   UNL     1       5.427   3.097  16.062  0.00  0.00    +0.000 HD
ENDROOT
BRANCH   2   5
ATOM      5  C   UNL     1       4.164   4.584  17.743  0.00  0.00    +0.000 A 
ATOM      6  C   UNL     1       2.906   3.970  17.570  0.00  0.00    +0.000 A 
ATOM      7  C   UNL     1       2.200   3.440  18.652  0.00  0.00    +0.000 A 
ATOM      8  C   UNL     1       2.754   3.519  19.931  0.00  0.00    +0.000 A 
ATOM      9  C   UNL     1       3.991   4.144  20.132  0.00  0.00    +0.000 A 
ATOM     10  C   UNL     1       4.696   4.673  19.040  0.00  0.00    +0.000 A 
ATOM     11 CL   UNL     1       6.233   5.378  19.405  0.00  0.00    +0.000 Cl
BRANCH   8  12
ATOM     12  N   UNL     1       2.047   2.920  21.071  0.00  0.00    +0.000 N 
ATOM     13  O   UNL     1       0.810   2.888  21.027  0.00  0.00    +0.000 OA
ATOM     14  O   UNL     1       2.733   2.476  22.000  0.00  0.00    +0.000 OA
ENDBRANCH   8  12
ENDBRANCH   2   5
BRANCH   3  15
ATOM     15  C   UNL     1       6.153   4.251  14.509  0.00  0.00    +0.000 A 
ATOM     16  C   UNL     1       5.801   3.595  13.332  0.00  0.00    +0.000 A 
ATOM     17  C   UNL     1       6.528   3.823  12.165  0.00  0.00    +0.000 A 
ATOM     18  C   UNL     1       7.589   4.711  12.209  0.00  0.00    +0.000 A 
ATOM     19  N   UNL     1       7.950   5.387  13.320  0.00  0.00    +0.000 NA
ATOM     20  C   UNL     1       7.222   5.144  14.436  0.00  0.00    +0.000 A 
ENDBRANCH   3  15
TORSDOF 3
ENDMDL
MODEL 6
REMARK VINA RESULT:      -7.0      2.483      7.314
REMARK  Name = 
REMARK  3 active torsions:
REMARK  status: ('A' for Active; 'I' for Inactive)
REMARK    1  A    between atoms: C_2  and  C_10
REMARK    2  A    between atoms: N_3  and  C_4
REMARK    3  A    between atoms: C_13  and  N_14
REMARK                            x       y       z     vdW  Elec       q    Type
REMARK                         _______ _______ _______ _____ _____    ______ ____
ROOT
ATOM      1  O   UNL     1       4.680   6.157  16.390  0.00  0.00    +0.000 OA
ATOM      2  C   UNL     1       4.692   4.945  16.582  0.00  0.00    +0.000 C 
ATOM      3  N   UNL     1       5.349   4.015  15.804  0.00  0.00    +0.000 N 
ATOM      4  H   UNL     1       5.205   3.035  16.023  0.00  0.00    +0.000 HD
ENDROOT
BRANCH   2   5
ATOM      5  C   UNL     1       3.919   4.437  17.759  0.00  0.00    +0.000 A 
ATOM      6  C   UNL     1       4.280   3.149  18.210  0.00  0.00    +0.000 A 
ATOM      7  C   UNL     1       3.698   2.587  19.348  0.00  0.00    +0.000 A 
ATOM      8  C   UNL     1       2.740   3.318  20.054  0.00  0.00    +0.000 A 
ATOM      9  C   UNL     1       2.349   4.588  19.614  0.00  0.00    +0.000 A 
ATOM     10  C   UNL     1       2.939   5.147  18.470  0.00  0.00    +0.000 A 
ATOM     11 CL   UNL     1       2.410   6.740  18.052  0.00  0.00    +0.000 Cl
BRANCH   8  12
ATOM     12  N   UNL     1       2.158   2.760  21.282  0.00  0.00    +0.000 N 
ATOM     13  O   UNL     1       0.925   2.784  21.396  0.00  0.00    +0.000 OA
ATOM     14  O   UNL     1       2.937   2.293  22.123  0.00  0.00    +0.000 OA
ENDBRANCH   8  12
ENDBRANCH   2   5
BRANCH   3  15
ATOM     15  C   UNL     1       6.075   4.278  14.620  0.00  0.00    +0.000 A 
ATOM     16  C   UNL     1       5.799   3.695  13.385  0.00  0.00    +0.000 A 
ATOM     17  C   UNL     1       6.602   3.990  12.284  0.00  0.00    +0.000 A 
ATOM     18  C   UNL     1       7.658   4.868  12.451  0.00  0.00    +0.000 A 
ATOM     19  N   UNL     1       7.948   5.474  13.621  0.00  0.00    +0.000 NA
ATOM     20  C   UNL     1       7.147   5.168  14.672  0.00  0.00    +0.000 A 
ENDBRANCH   3  15
TORSDOF 3
ENDMDL
MODEL 7
REMARK VINA RESULT:      -6.8      1.327      1.522
REMARK  Name = 
REMARK  3 active torsions:
REMARK  status: ('A' for Active; 'I' for Inactive)
REMARK    1  A    between atoms: C_2  and  C_10
REMARK    2  A    between atoms: N_3  and  C_4
REMARK    3  A    between atoms: C_13  and  N_14
REMARK                            x       y       z     vdW  Elec       q    Type
REMARK                         _______ _______ _______ _____ _____    ______ ____
ROOT
ATOM      1  O   UNL     1       2.750   3.331  16.737  0.00  0.00    +0.000 OA
ATOM      2  C   UNL     1       3.780   3.778  17.231  0.00  0.00    +0.000 C 
ATOM      3  N   UNL     1       4.038   3.893  18.581  0.00  0.00    +0.000 N 
ATOM      4  H   UNL     1       4.896   4.360  18.856  0.00  0.00    +0.000 HD
ENDROOT
BRANCH   2   5
ATOM      5  C   UNL     1       4.842   4.242  16.284  0.00  0.00    +0.000 A 
ATOM      6  C   UNL     1       5.409   3.237  15.472  0.00  0.00    +0.000 A 
ATOM      7  C   UNL     1       6.352   3.544  14.488  0.00  0.00    +0.000 A 
ATOM      8  C   UNL     1       6.737   4.873  14.304  0.00  0.00    +0.000 A 
ATOM      9  C   UNL     1       6.205   5.885  15.112  0.00  0.00    +0.000 A 
ATOM     10  C   UNL     1       5.257   5.570  16.099  0.00  0.00    +0.000 A 
ATOM     11 CL   UNL     1       4.636   6.909  17.002  0.00  0.00    +0.000 Cl
BRANCH   8  12
ATOM     12  N   UNL     1       7.687   5.216  13.238  0.00  0.00    +0.000 N 
ATOM     13  O   UNL     1       8.652   5.932  13.536  0.00  0.00    +0.000 OA
ATOM     14  O   UNL     1       7.469   4.759  12.109  0.00  0.00    +0.000 OA
ENDBRANCH   8  12
ENDBRANCH   2   5
BRANCH   3  15
ATOM     15  C   UNL     1       3.149   3.576  19.633  0.00  0.00    +0.000 A 
ATOM     16  C   UNL     1       1.857   4.083  19.748  0.00  0.00    +0.000 A 
ATOM     17  C   UNL     1       1.072   3.740  20.848  0.00  0.00    +0.000 A 
ATOM     18  C   UNL     1       1.605   2.890  21.802  0.00  0.00    +0.000 A 
ATOM     19  N   UNL     1       2.842   2.357  21.720  0.00  0.00    +0.000 NA
ATOM     20  C   UNL     1       3.578   2.708  20.638  0.00  0.00    +0.000 A 
ENDBRANCH   3  15
TORSDOF 3
ENDMDL
MODEL 8
REMARK VINA RESULT:      -6.7      1.079      1.083
REMARK  Name = 
REMARK  3 active torsions:
REMARK  status: ('A' for Active; 'I' for Inactive)
REMARK    1  A    between atoms: C_2  and  C_10
REMARK    2  A    between atoms: N_3  and  C_4
REMARK    3  A    between atoms: C_13  and  N_14
REMARK                            x       y       z     vdW  Elec       q    Type
REMARK                         _______ _______ _______ _____ _____    ______ ____
ROOT
ATOM      1  O   UNL     1       3.083   3.556  16.780  0.00  0.00    +0.000 OA
ATOM      2  C   UNL     1       4.193   3.852  17.210  0.00  0.00    +0.000 C 
ATOM      3  N   UNL     1       4.544   3.928  18.542  0.00  0.00    +0.000 N 
ATOM      4  H   UNL     1       5.473   4.270  18.762  0.00  0.00    +0.000 HD
ENDROOT
BRANCH   2   5
ATOM      5  C   UNL     1       5.252   4.163  16.199  0.00  0.00    +0.000 A 
ATOM      6  C   UNL     1       4.916   3.871  14.860  0.00  0.00    +0.000 A 
ATOM      7  C   UNL     1       5.778   4.186  13.808  0.00  0.00    +0.000 A 
ATOM      8  C   UNL     1       6.997   4.805  14.089  0.00  0.00    +0.000 A 
ATOM      9  C   UNL     1       7.364   5.085  15.411  0.00  0.00    +0.000 A 
ATOM     10  C   UNL     1       6.492   4.766  16.464  0.00  0.00    +0.000 A 
ATOM     11 CL   UNL     1       7.033   5.202  18.048  0.00  0.00    +0.000 Cl
BRANCH   8  12
ATOM     12  N   UNL     1       7.891   5.190  12.988  0.00  0.00    +0.000 N 
ATOM     13  O   UNL     1       7.655   4.721  11.866  0.00  0.00    +0.000 OA
ATOM     14  O   UNL     1       8.819   5.966  13.249  0.00  0.00    +0.000 OA
ENDBRANCH   8  12
ENDBRANCH   2   5
BRANCH   3  15
ATOM     15  C   UNL     1       3.683   3.738  19.646  0.00  0.00    +0.000 A 
ATOM     16  C   UNL     1       2.694   4.639  20.034  0.00  0.00    +0.000 A 
ATOM     17  C   UNL     1       1.922   4.379  21.165  0.00  0.00    +0.000 A 
ATOM     18  C   UNL     1       2.160   3.215  21.875  0.00  0.00    +0.000 A 
ATOM     19  N   UNL     1       3.090   2.303  21.523  0.00  0.00    +0.000 NA
ATOM     20  C   UNL     1       3.822   2.585  20.417  0.00  0.00    +0.000 A 
ENDBRANCH   3  15
TORSDOF 3
ENDMDL
MODEL 9
REMARK VINA RESULT:      -6.7      2.260      7.237
REMARK  Name = 
REMARK  3 active torsions:
REMARK  status: ('A' for Active; 'I' for Inactive)
REMARK    1  A    between atoms: C_2  and  C_10
REMARK    2  A    between atoms: N_3  and  C_4
REMARK    3  A    between atoms: C_13  and  N_14
REMARK                            x       y       z     vdW  Elec       q    Type
REMARK                         _______ _______ _______ _____ _____    ______ ____
ROOT
ATOM      1  O   UNL     1       4.880   6.333  16.084  0.00  0.00    +0.000 OA
ATOM      2  C   UNL     1       4.866   5.146  16.396  0.00  0.00    +0.000 C 
ATOM      3  N   UNL     1       5.468   4.124  15.692  0.00  0.00    +0.000 N 
ATOM      4  H   UNL     1       5.306   3.175  16.014  0.00  0.00    +0.000 HD
ENDROOT
BRANCH   2   5
ATOM      5  C   UNL     1       4.126   4.781  17.645  0.00  0.00    +0.000 A 
ATOM      6  C   UNL     1       2.817   4.293  17.452  0.00  0.00    +0.000 A 
ATOM      7  C   UNL     1       2.045   3.839  18.524  0.00  0.00    +0.000 A 
ATOM      8  C   UNL     1       2.583   3.868  19.811  0.00  0.00    +0.000 A 
ATOM      9  C   UNL     1       3.872   4.370  20.032  0.00  0.00    +0.000 A 
ATOM     10  C   UNL     1       4.643   4.823  18.950  0.00  0.00    +0.000 A 
ATOM     11 CL   UNL     1       6.236   5.374  19.339  0.00  0.00    +0.000 Cl
BRANCH   8  12
ATOM     12  N   UNL     1       1.801   3.346  20.940  0.00  0.00    +0.000 N 
ATOM     13  O   UNL     1       2.344   3.322  22.053  0.00  0.00    +0.000 OA
ATOM     14  O   UNL     1       0.646   2.969  20.709  0.00  0.00    +0.000 OA
ENDBRANCH   8  12
ENDBRANCH   2   5
BRANCH   3  15
ATOM     15  C   UNL     1       6.155   4.245  14.463  0.00  0.00    +0.000 A 
ATOM     16  C   UNL     1       7.266   5.060  14.263  0.00  0.00    +0.000 A 
ATOM     17  C   UNL     1       7.849   5.141  12.998  0.00  0.00    +0.000 A 
ATOM     18  C   UNL     1       7.302   4.397  11.968  0.00  0.00    +0.000 A 
ATOM     19  N   UNL     1       6.241   3.577  12.122  0.00  0.00    +0.000 NA
ATOM     20  C   UNL     1       5.699   3.518  13.363  0.00  0.00    +0.000 A 
ENDBRANCH   3  15
TORSDOF 3
ENDMDL
