MODEL 1
REMARK VINA RESULT:      -8.2      0.000      0.000
REMARK  Name = 
REMARK  6 active torsions:
REMARK  status: ('A' for Active; 'I' for Inactive)
REMARK    1  A    between atoms: C_1  and  C_2
REMARK    2  A    between atoms: C_4  and  N_5
REMARK    3  A    between atoms: C_7  and  C_8
REMARK    4  A    between atoms: C_10  and  C_11
REMARK    5  A    between atoms: C_14  and  C_15
REMARK    6  A    between atoms: C_16  and  C_17
REMARK                            x       y       z     vdW  Elec       q    Type
REMARK                         _______ _______ _______ _____ _____    ______ ____
ROOT
ATOM      1  C   UNL     1       2.215   3.685  21.516  0.00  0.00    +0.000 C 
ATOM      2  C   UNL     1       2.523   4.737  20.482  0.00  0.00    +0.000 A 
ATOM      3  C   UNL     1       3.421   4.347  19.359  0.00  0.00    +0.000 A 
ATOM      4  C   UNL     1       3.806   5.322  18.506  0.00  0.00    +0.000 A 
ATOM      5  N   UNL     1       3.215   6.592  18.647  0.00  0.00    +0.000 N 
ATOM      6  N   UNL     1       3.301   7.650  17.805  0.00  0.00    +0.000 NA
ATOM      7  C   UNL     1       2.566   8.618  18.355  0.00  0.00    +0.000 A 
ATOM      8  C   UNL     1       2.512   9.938  17.673  0.00  0.00    +0.000 C 
ATOM      9  C   UNL     1       1.913   8.185  19.538  0.00  0.00    +0.000 A 
ATOM     10  C   UNL     1       2.322   6.865  19.695  0.00  0.00    +0.000 A 
ATOM     11  N   UNL     1       2.014   5.922  20.640  0.00  0.00    +0.000 NA
ENDROOT
BRANCH   4  12
ATOM     12  N   UNL     1       4.721   5.031  17.475  0.00  0.00    +0.000 N 
ATOM     13  N   UNL     1       4.344   4.431  16.296  0.00  0.00    +0.000 NA
ATOM     14  C   UNL     1       5.432   4.420  15.526  0.00  0.00    +0.000 A 
ATOM     15  C   UNL     1       5.363   3.965  14.116  0.00  0.00    +0.000 C 
ATOM     16  C   UNL     1       6.571   4.814  16.239  0.00  0.00    +0.000 A 
ATOM     17  C   UNL     1       6.121   5.130  17.501  0.00  0.00    +0.000 A 
ATOM     18  C   UNL     1       6.935   5.415  18.712  0.00  0.00    +0.000 C 
ENDBRANCH   4  12
BRANCH   9  19
ATOM     19  C   UNL     1       1.012   8.892  20.443  0.00  0.00    +0.000 A 
ATOM     20  C   UNL     1       1.099   8.733  21.833  0.00  0.00    +0.000 A 
ATOM     21  C   UNL     1       0.255   9.442  22.695  0.00  0.00    +0.000 A 
ATOM     22  C   UNL     1      -0.706  10.301  22.171  0.00  0.00    +0.000 A 
ATOM     23 CL   UNL     1      -1.732  11.191  23.225  0.00  0.00    +0.000 Cl
ATOM     24  C   UNL     1      -0.830  10.455  20.795  0.00  0.00    +0.000 A 
ATOM     25  C   UNL     1       0.034   9.764  19.939  0.00  0.00    +0.000 A 
ENDBRANCH   9  19
TORSDOF 2
ENDMDL
MODEL 2
REMARK VINA RESULT:      -7.3      0.839      1.422
REMARK  Name = 
REMARK  6 active torsions:
REMARK  status: ('A' for Active; 'I' for Inactive)
REMARK    1  A    between atoms: C_1  and  C_2
REMARK    2  A    between atoms: C_4  and  N_5
REMARK    3  A    between atoms: C_7  and  C_8
REMARK    4  A    between atoms: C_10  and  C_11
REMARK    5  A    between atoms: C_14  and  C_15
REMARK    6  A    between atoms: C_16  and  C_17
REMARK                            x       y       z     vdW  Elec       q    Type
REMARK                         _______ _______ _______ _____ _____    ______ ____
ROOT
ATOM      1  C   UNL     1       2.049   3.657  21.865  0.00  0.00    +0.000 C 
ATOM      2  C   UNL     1       2.332   4.650  20.767  0.00  0.00    +0.000 A 
ATOM      3  C   UNL     1       3.158   4.181  19.620  0.00  0.00    +0.000 A 
ATOM      4  C   UNL     1       3.524   5.104  18.702  0.00  0.00    +0.000 A 
ATOM      5  N   UNL     1       2.976   6.396  18.811  0.00  0.00    +0.000 N 
ATOM      6  N   UNL     1       3.047   7.411  17.916  0.00  0.00    +0.000 NA
ATOM      7  C   UNL     1       2.368   8.425  18.456  0.00  0.00    +0.000 A 
ATOM      8  C   UNL     1       2.315   9.713  17.715  0.00  0.00    +0.000 C 
ATOM      9  C   UNL     1       1.767   8.066  19.691  0.00  0.00    +0.000 A 
ATOM     10  C   UNL     1       2.148   6.744  19.890  0.00  0.00    +0.000 A 
ATOM     11  N   UNL     1       1.864   5.855  20.894  0.00  0.00    +0.000 NA
ENDROOT
BRANCH   4  12
ATOM     12  N   UNL     1       4.375   4.738  17.641  0.00  0.00    +0.000 N 
ATOM     13  N   UNL     1       5.454   5.500  17.258  0.00  0.00    +0.000 NA
ATOM     14  C   UNL     1       6.085   4.797  16.316  0.00  0.00    +0.000 A 
ATOM     15  C   UNL     1       7.382   5.256  15.764  0.00  0.00    +0.000 C 
ATOM     16  C   UNL     1       5.338   3.680  15.922  0.00  0.00    +0.000 A 
ATOM     17  C   UNL     1       4.214   3.691  16.719  0.00  0.00    +0.000 A 
ATOM     18  C   UNL     1       2.997   2.848  16.586  0.00  0.00    +0.000 C 
ENDBRANCH   4  12
BRANCH   9  19
ATOM     19  C   UNL     1       0.935   8.842  20.606  0.00  0.00    +0.000 A 
ATOM     20  C   UNL     1       1.097   8.752  21.996  0.00  0.00    +0.000 A 
ATOM     21  C   UNL     1       0.319   9.526  22.864  0.00  0.00    +0.000 A 
ATOM     22  C   UNL     1      -0.651  10.381  22.350  0.00  0.00    +0.000 A 
ATOM     23 CL   UNL     1      -1.596  11.349  23.410  0.00  0.00    +0.000 Cl
ATOM     24  C   UNL     1      -0.849  10.466  20.976  0.00  0.00    +0.000 A 
ATOM     25  C   UNL     1      -0.052   9.710  20.112  0.00  0.00    +0.000 A 
ENDBRANCH   9  19
TORSDOF 2
ENDMDL
MODEL 3
REMARK VINA RESULT:      -6.9      3.574      7.327
REMARK  Name = 
REMARK  6 active torsions:
REMARK  status: ('A' for Active; 'I' for Inactive)
REMARK    1  A    between atoms: C_1  and  C_2
REMARK    2  A    between atoms: C_4  and  N_5
REMARK    3  A    between atoms: C_7  and  C_8
REMARK    4  A    between atoms: C_10  and  C_11
REMARK    5  A    between atoms: C_14  and  C_15
REMARK    6  A    between atoms: C_16  and  C_17
REMARK                            x       y       z     vdW  Elec       q    Type
REMARK                         _______ _______ _______ _____ _____    ______ ____
ROOT
ATOM      1  C   UNL     1      -0.102   9.386  23.620  0.00  0.00    +0.000 C 
ATOM      2  C   UNL     1       0.419   9.508  22.211  0.00  0.00    +0.000 A 
ATOM      3  C   UNL     1       0.275  10.832  21.543  0.00  0.00    +0.000 A 
ATOM      4  C   UNL     1       0.618  10.907  20.238  0.00  0.00    +0.000 A 
ATOM      5  N   UNL     1       1.225   9.782  19.649  0.00  0.00    +0.000 N 
ATOM      6  N   UNL     1       1.816   9.692  18.433  0.00  0.00    +0.000 NA
ATOM      7  C   UNL     1       2.254   8.436  18.328  0.00  0.00    +0.000 A 
ATOM      8  C   UNL     1       2.909   8.020  17.060  0.00  0.00    +0.000 C 
ATOM      9  C   UNL     1       2.028   7.692  19.515  0.00  0.00    +0.000 A 
ATOM     10  C   UNL     1       1.388   8.586  20.367  0.00  0.00    +0.000 A 
ATOM     11  N   UNL     1       0.936   8.454  21.653  0.00  0.00    +0.000 NA
ENDROOT
BRANCH   4  12
ATOM     12  N   UNL     1       0.425  12.111  19.530  0.00  0.00    +0.000 N 
ATOM     13  N   UNL     1       1.139  13.254  19.803  0.00  0.00    +0.000 NA
ATOM     14  C   UNL     1       0.779  14.141  18.874  0.00  0.00    +0.000 A 
ATOM     15  C   UNL     1       1.455  15.457  18.776  0.00  0.00    +0.000 C 
ATOM     16  C   UNL     1      -0.304  13.681  18.117  0.00  0.00    +0.000 A 
ATOM     17  C   UNL     1      -0.572  12.416  18.591  0.00  0.00    +0.000 A 
ATOM     18  C   UNL     1      -1.744  11.557  18.277  0.00  0.00    +0.000 C 
ENDBRANCH   4  12
BRANCH   9  19
ATOM     19  C   UNL     1       2.351   6.308  19.848  0.00  0.00    +0.000 A 
ATOM     20  C   UNL     1       3.562   5.725  19.449  0.00  0.00    +0.000 A 
ATOM     21  C   UNL     1       3.879   4.409  19.803  0.00  0.00    +0.000 A 
ATOM     22  C   UNL     1       2.974   3.652  20.540  0.00  0.00    +0.000 A 
ATOM     23 CL   UNL     1       3.366   2.042  20.996  0.00  0.00    +0.000 Cl
ATOM     24  C   UNL     1       1.755   4.200  20.924  0.00  0.00    +0.000 A 
ATOM     25  C   UNL     1       1.453   5.524  20.590  0.00  0.00    +0.000 A 
ENDBRANCH   9  19
TORSDOF 2
ENDMDL
MODEL 4
REMARK VINA RESULT:      -6.8      5.489      8.843
REMARK  Name = 
REMARK  6 active torsions:
REMARK  status: ('A' for Active; 'I' for Inactive)
REMARK    1  A    between atoms: C_1  and  C_2
REMARK    2  A    between atoms: C_4  and  N_5
REMARK    3  A    between atoms: C_7  and  C_8
REMARK    4  A    between atoms: C_10  and  C_11
REMARK    5  A    between atoms: C_14  and  C_15
REMARK    6  A    between atoms: C_16  and  C_17
REMARK                            x       y       z     vdW  Elec       q    Type
REMARK                         _______ _______ _______ _____ _____    ______ ____
ROOT
ATOM      1  C   UNL     1       1.742   9.098  18.308  0.00  0.00    +0.000 C 
ATOM      2  C   UNL     1       1.017  10.414  18.427  0.00  0.00    +0.000 A 
ATOM      3  C   UNL     1      -0.470  10.383  18.345  0.00  0.00    +0.000 A 
ATOM      4  C   UNL     1      -1.112  11.572  18.317  0.00  0.00    +0.000 A 
ATOM      5  N   UNL     1      -0.351  12.739  18.520  0.00  0.00    +0.000 N 
ATOM      6  N   UNL     1      -0.798  14.002  18.720  0.00  0.00    +0.000 NA
ATOM      7  C   UNL     1       0.291  14.757  18.876  0.00  0.00    +0.000 A 
ATOM      8  C   UNL     1       0.115  16.222  19.062  0.00  0.00    +0.000 C 
ATOM      9  C   UNL     1       1.482  13.984  18.859  0.00  0.00    +0.000 A 
ATOM     10  C   UNL     1       1.044  12.680  18.657  0.00  0.00    +0.000 A 
ATOM     11  N   UNL     1       1.726  11.494  18.567  0.00  0.00    +0.000 NA
ENDROOT
BRANCH   4  12
ATOM     12  N   UNL     1      -2.512  11.608  18.156  0.00  0.00    +0.000 N 
ATOM     13  N   UNL     1      -3.376  11.786  19.211  0.00  0.00    +0.000 NA
ATOM     14  C   UNL     1      -4.593  11.884  18.675  0.00  0.00    +0.000 A 
ATOM     15  C   UNL     1      -5.770  12.218  19.514  0.00  0.00    +0.000 C 
ATOM     16  C   UNL     1      -4.581  11.572  17.311  0.00  0.00    +0.000 A 
ATOM     17  C   UNL     1      -3.262  11.325  17.003  0.00  0.00    +0.000 A 
ATOM     18  C   UNL     1      -2.712  10.760  15.743  0.00  0.00    +0.000 C 
ENDBRANCH   4  12
BRANCH   9  19
ATOM     19  C   UNL     1       2.878  14.383  19.006  0.00  0.00    +0.000 A 
ATOM     20  C   UNL     1       3.464  14.543  20.271  0.00  0.00    +0.000 A 
ATOM     21  C   UNL     1       4.812  14.891  20.402  0.00  0.00    +0.000 A 
ATOM     22  C   UNL     1       5.585  15.109  19.266  0.00  0.00    +0.000 A 
ATOM     23 CL   UNL     1       7.248  15.517  19.420  0.00  0.00    +0.000 Cl
ATOM     24  C   UNL     1       5.020  14.984  18.002  0.00  0.00    +0.000 A 
ATOM     25  C   UNL     1       3.678  14.611  17.875  0.00  0.00    +0.000 A 
ENDBRANCH   9  19
TORSDOF 2
ENDMDL
MODEL 5
REMARK VINA RESULT:      -6.8      4.466      9.117
REMARK  Name = 
REMARK  6 active torsions:
REMARK  status: ('A' for Active; 'I' for Inactive)
REMARK    1  A    between atoms: C_1  and  C_2
REMARK    2  A    between atoms: C_4  and  N_5
REMARK    3  A    between atoms: C_7  and  C_8
REMARK    4  A    between atoms: C_10  and  C_11
REMARK    5  A    between atoms: C_14  and  C_15
REMARK    6  A    between atoms: C_16  and  C_17
REMARK                            x       y       z     vdW  Elec       q    Type
REMARK                         _______ _______ _______ _____ _____    ______ ____
ROOT
ATOM      1  C   UNL     1      -2.370  10.988  16.511  0.00  0.00    +0.000 C 
ATOM      2  C   UNL     1      -1.859  10.972  17.929  0.00  0.00    +0.000 A 
ATOM      3  C   UNL     1      -2.551  11.850  18.913  0.00  0.00    +0.000 A 
ATOM      4  C   UNL     1      -2.012  11.940  20.149  0.00  0.00    +0.000 A 
ATOM      5  N   UNL     1      -0.936  11.088  20.463  0.00  0.00    +0.000 N 
ATOM      6  N   UNL     1      -0.371  10.869  21.675  0.00  0.00    +0.000 NA
ATOM      7  C   UNL     1       0.599   9.976  21.472  0.00  0.00    +0.000 A 
ATOM      8  C   UNL     1       1.443   9.574  22.629  0.00  0.00    +0.000 C 
ATOM      9  C   UNL     1       0.638   9.528  20.126  0.00  0.00    +0.000 A 
ATOM     10  C   UNL     1      -0.379  10.236  19.497  0.00  0.00    +0.000 A 
ATOM     11  N   UNL     1      -0.835  10.221  18.205  0.00  0.00    +0.000 NA
ENDROOT
BRANCH   4  12
ATOM     12  N   UNL     1      -2.574  12.818  21.097  0.00  0.00    +0.000 N 
ATOM     13  N   UNL     1      -3.698  12.505  21.825  0.00  0.00    +0.000 NA
ATOM     14  C   UNL     1      -3.865  13.506  22.690  0.00  0.00    +0.000 A 
ATOM     15  C   UNL     1      -4.914  13.441  23.736  0.00  0.00    +0.000 C 
ATOM     16  C   UNL     1      -2.999  14.572  22.418  0.00  0.00    +0.000 A 
ATOM     17  C   UNL     1      -2.230  14.155  21.354  0.00  0.00    +0.000 A 
ATOM     18  C   UNL     1      -1.291  14.968  20.538  0.00  0.00    +0.000 C 
ENDBRANCH   4  12
BRANCH   9  19
ATOM     19  C   UNL     1       1.511   8.559  19.469  0.00  0.00    +0.000 A 
ATOM     20  C   UNL     1       1.796   7.317  20.055  0.00  0.00    +0.000 A 
ATOM     21  C   UNL     1       2.605   6.381  19.402  0.00  0.00    +0.000 A 
ATOM     22  C   UNL     1       3.161   6.689  18.164  0.00  0.00    +0.000 A 
ATOM     23 CL   UNL     1       4.139   5.535  17.348  0.00  0.00    +0.000 Cl
ATOM     24  C   UNL     1       2.916   7.925  17.577  0.00  0.00    +0.000 A 
ATOM     25  C   UNL     1       2.085   8.847  18.221  0.00  0.00    +0.000 A 
ENDBRANCH   9  19
TORSDOF 2
ENDMDL
MODEL 6
REMARK VINA RESULT:      -6.7      5.148     10.150
REMARK  Name = 
REMARK  6 active torsions:
REMARK  status: ('A' for Active; 'I' for Inactive)
REMARK    1  A    between atoms: C_1  and  C_2
REMARK    2  A    between atoms: C_4  and  N_5
REMARK    3  A    between atoms: C_7  and  C_8
REMARK    4  A    between atoms: C_10  and  C_11
REMARK    5  A    between atoms: C_14  and  C_15
REMARK    6  A    between atoms: C_16  and  C_17
REMARK                            x       y       z     vdW  Elec       q    Type
REMARK                         _______ _______ _______ _____ _____    ______ ____
ROOT
ATOM      1  C   UNL     1       0.072  14.870  18.751  0.00  0.00    +0.000 C 
ATOM      2  C   UNL     1      -0.178  13.991  19.950  0.00  0.00    +0.000 A 
ATOM      3  C   UNL     1      -0.864  14.610  21.118  0.00  0.00    +0.000 A 
ATOM      4  C   UNL     1      -0.969  13.865  22.241  0.00  0.00    +0.000 A 
ATOM      5  N   UNL     1      -0.564  12.518  22.179  0.00  0.00    +0.000 N 
ATOM      6  N   UNL     1      -0.750  11.547  23.105  0.00  0.00    +0.000 NA
ATOM      7  C   UNL     1      -0.207  10.441  22.593  0.00  0.00    +0.000 A 
ATOM      8  C   UNL     1      -0.213   9.204  23.418  0.00  0.00    +0.000 C 
ATOM      9  C   UNL     1       0.280  10.647  21.276  0.00  0.00    +0.000 A 
ATOM     10  C   UNL     1       0.015  11.987  21.016  0.00  0.00    +0.000 A 
ATOM     11  N   UNL     1       0.240  12.761  19.907  0.00  0.00    +0.000 NA
ENDROOT
BRANCH   4  12
ATOM     12  N   UNL     1      -1.532  14.425  23.404  0.00  0.00    +0.000 N 
ATOM     13  N   UNL     1      -0.770  14.983  24.404  0.00  0.00    +0.000 NA
ATOM     14  C   UNL     1      -1.634  15.508  25.274  0.00  0.00    +0.000 A 
ATOM     15  C   UNL     1      -1.160  16.316  26.423  0.00  0.00    +0.000 C 
ATOM     16  C   UNL     1      -2.950  15.135  24.980  0.00  0.00    +0.000 A 
ATOM     17  C   UNL     1      -2.870  14.383  23.829  0.00  0.00    +0.000 A 
ATOM     18  C   UNL     1      -3.944  13.577  23.193  0.00  0.00    +0.000 C 
ENDBRANCH   4  12
BRANCH   9  19
ATOM     19  C   UNL     1       0.926   9.728  20.345  0.00  0.00    +0.000 A 
ATOM     20  C   UNL     1       1.084  10.051  18.989  0.00  0.00    +0.000 A 
ATOM     21  C   UNL     1       1.736   9.178  18.111  0.00  0.00    +0.000 A 
ATOM     22  C   UNL     1       2.216   7.958  18.576  0.00  0.00    +0.000 A 
ATOM     23 CL   UNL     1       3.036   6.891  17.506  0.00  0.00    +0.000 Cl
ATOM     24  C   UNL     1       2.047   7.604  19.910  0.00  0.00    +0.000 A 
ATOM     25  C   UNL     1       1.418   8.490  20.789  0.00  0.00    +0.000 A 
ENDBRANCH   9  19
TORSDOF 2
ENDMDL
MODEL 7
REMARK VINA RESULT:      -6.5      5.462      9.568
REMARK  Name = 
REMARK  6 active torsions:
REMARK  status: ('A' for Active; 'I' for Inactive)
REMARK    1  A    between atoms: C_1  and  C_2
REMARK    2  A    between atoms: C_4  and  N_5
REMARK    3  A    between atoms: C_7  and  C_8
REMARK    4  A    between atoms: C_10  and  C_11
REMARK    5  A    between atoms: C_14  and  C_15
REMARK    6  A    between atoms: C_16  and  C_17
REMARK                            x       y       z     vdW  Elec       q    Type
REMARK                         _______ _______ _______ _____ _____    ______ ____
ROOT
ATOM      1  C   UNL     1       3.634  14.193  21.395  0.00  0.00    +0.000 C 
ATOM      2  C   UNL     1       2.338  13.884  20.691  0.00  0.00    +0.000 A 
ATOM      3  C   UNL     1       1.375  15.006  20.510  0.00  0.00    +0.000 A 
ATOM      4  C   UNL     1       0.160  14.704  20.002  0.00  0.00    +0.000 A 
ATOM      5  N   UNL     1      -0.055  13.391  19.542  0.00  0.00    +0.000 N 
ATOM      6  N   UNL     1      -1.108  12.917  18.833  0.00  0.00    +0.000 NA
ATOM      7  C   UNL     1      -0.855  11.624  18.621  0.00  0.00    +0.000 A 
ATOM      8  C   UNL     1      -1.875  10.814  17.902  0.00  0.00    +0.000 C 
ATOM      9  C   UNL     1       0.416  11.239  19.121  0.00  0.00    +0.000 A 
ATOM     10  C   UNL     1       0.930  12.401  19.687  0.00  0.00    +0.000 A 
ATOM     11  N   UNL     1       2.122  12.660  20.310  0.00  0.00    +0.000 NA
ENDROOT
BRANCH   4  12
ATOM     12  N   UNL     1      -0.821  15.709  19.886  0.00  0.00    +0.000 N 
ATOM     13  N   UNL     1      -0.673  16.798  19.060  0.00  0.00    +0.000 NA
ATOM     14  C   UNL     1      -1.828  17.462  19.118  0.00  0.00    +0.000 A 
ATOM     15  C   UNL     1      -2.080  18.631  18.240  0.00  0.00    +0.000 C 
ATOM     16  C   UNL     1      -2.665  16.952  20.117  0.00  0.00    +0.000 A 
ATOM     17  C   UNL     1      -1.984  15.881  20.653  0.00  0.00    +0.000 A 
ATOM     18  C   UNL     1      -2.326  15.105  21.874  0.00  0.00    +0.000 C 
ENDBRANCH   4  12
BRANCH   9  19
ATOM     19  C   UNL     1       1.099   9.950  19.097  0.00  0.00    +0.000 A 
ATOM     20  C   UNL     1       1.125   9.115  20.224  0.00  0.00    +0.000 A 
ATOM     21  C   UNL     1       1.752   7.865  20.181  0.00  0.00    +0.000 A 
ATOM     22  C   UNL     1       2.384   7.447  19.014  0.00  0.00    +0.000 A 
ATOM     23 CL   UNL     1       3.138   5.904  18.948  0.00  0.00    +0.000 Cl
ATOM     24  C   UNL     1       2.395   8.269  17.892  0.00  0.00    +0.000 A 
ATOM     25  C   UNL     1       1.745   9.506  17.932  0.00  0.00    +0.000 A 
ENDBRANCH   9  19
TORSDOF 2
ENDMDL
MODEL 8
REMARK VINA RESULT:      -6.5      4.653      9.431
REMARK  Name = 
REMARK  6 active torsions:
REMARK  status: ('A' for Active; 'I' for Inactive)
REMARK    1  A    between atoms: C_1  and  C_2
REMARK    2  A    between atoms: C_4  and  N_5
REMARK    3  A    between atoms: C_7  and  C_8
REMARK    4  A    between atoms: C_10  and  C_11
REMARK    5  A    between atoms: C_14  and  C_15
REMARK    6  A    between atoms: C_16  and  C_17
REMARK                            x       y       z     vdW  Elec       q    Type
REMARK                         _______ _______ _______ _____ _____    ______ ____
ROOT
ATOM      1  C   UNL     1       2.148  14.109  18.219  0.00  0.00    +0.000 C 
ATOM      2  C   UNL     1       1.368  13.281  19.208  0.00  0.00    +0.000 A 
ATOM      3  C   UNL     1       0.466  14.008  20.144  0.00  0.00    +0.000 A 
ATOM      4  C   UNL     1      -0.131  13.283  21.116  0.00  0.00    +0.000 A 
ATOM      5  N   UNL     1       0.018  11.884  21.082  0.00  0.00    +0.000 N 
ATOM      6  N   UNL     1      -0.632  10.957  21.826  0.00  0.00    +0.000 NA
ATOM      7  C   UNL     1      -0.164   9.772  21.428  0.00  0.00    +0.000 A 
ATOM      8  C   UNL     1      -0.663   8.550  22.113  0.00  0.00    +0.000 C 
ATOM      9  C   UNL     1       0.752   9.895  20.351  0.00  0.00    +0.000 A 
ATOM     10  C   UNL     1       0.835  11.264  20.124  0.00  0.00    +0.000 A 
ATOM     11  N   UNL     1       1.544  11.993  19.205  0.00  0.00    +0.000 NA
ENDROOT
BRANCH   4  12
ATOM     12  N   UNL     1      -0.929  13.929  22.082  0.00  0.00    +0.000 N 
ATOM     13  N   UNL     1      -0.469  14.231  23.343  0.00  0.00    +0.000 NA
ATOM     14  C   UNL     1      -1.441  14.931  23.929  0.00  0.00    +0.000 A 
ATOM     15  C   UNL     1      -1.238  15.545  25.264  0.00  0.00    +0.000 C 
ATOM     16  C   UNL     1      -2.612  14.927  23.163  0.00  0.00    +0.000 A 
ATOM     17  C   UNL     1      -2.300  14.222  22.021  0.00  0.00    +0.000 A 
ATOM     18  C   UNL     1      -3.230  13.748  20.963  0.00  0.00    +0.000 C 
ENDBRANCH   4  12
BRANCH   9  19
ATOM     19  C   UNL     1       1.486   8.878  19.604  0.00  0.00    +0.000 A 
ATOM     20  C   UNL     1       1.796   9.050  18.247  0.00  0.00    +0.000 A 
ATOM     21  C   UNL     1       2.530   8.086  17.548  0.00  0.00    +0.000 A 
ATOM     22  C   UNL     1       2.940   6.924  18.194  0.00  0.00    +0.000 A 
ATOM     23 CL   UNL     1       3.860   5.746  17.345  0.00  0.00    +0.000 Cl
ATOM     24  C   UNL     1       2.620   6.719  19.531  0.00  0.00    +0.000 A 
ATOM     25  C   UNL     1       1.909   7.697  20.233  0.00  0.00    +0.000 A 
ENDBRANCH   9  19
TORSDOF 2
ENDMDL
MODEL 9
REMARK VINA RESULT:      -6.4      4.797      9.324
REMARK  Name = 
REMARK  6 active torsions:
REMARK  status: ('A' for Active; 'I' for Inactive)
REMARK    1  A    between atoms: C_1  and  C_2
REMARK    2  A    between atoms: C_4  and  N_5
REMARK    3  A    between atoms: C_7  and  C_8
REMARK    4  A    between atoms: C_10  and  C_11
REMARK    5  A    between atoms: C_14  and  C_15
REMARK    6  A    between atoms: C_16  and  C_17
REMARK                            x       y       z     vdW  Elec       q    Type
REMARK                         _______ _______ _______ _____ _____    ______ ____
ROOT
ATOM      1  C   UNL     1      -2.660  10.449  15.712  0.00  0.00    +0.000 C 
ATOM      2  C   UNL     1      -2.267  10.691  17.147  0.00  0.00    +0.000 A 
ATOM      3  C   UNL     1      -3.116  11.623  17.939  0.00  0.00    +0.000 A 
ATOM      4  C   UNL     1      -2.690  11.945  19.181  0.00  0.00    +0.000 A 
ATOM      5  N   UNL     1      -1.569  11.265  19.691  0.00  0.00    +0.000 N 
ATOM      6  N   UNL     1      -1.086  11.282  20.957  0.00  0.00    +0.000 NA
ATOM      7  C   UNL     1      -0.023  10.476  20.956  0.00  0.00    +0.000 A 
ATOM      8  C   UNL     1       0.757  10.335  22.214  0.00  0.00    +0.000 C 
ATOM      9  C   UNL     1       0.168   9.846  19.699  0.00  0.00    +0.000 A 
ATOM     10  C   UNL     1      -0.857  10.346  18.903  0.00  0.00    +0.000 A 
ATOM     11  N   UNL     1      -1.203  10.098  17.601  0.00  0.00    +0.000 NA
ENDROOT
BRANCH   4  12
ATOM     12  N   UNL     1      -3.408  12.887  19.946  0.00  0.00    +0.000 N 
ATOM     13  N   UNL     1      -2.792  13.903  20.640  0.00  0.00    +0.000 NA
ATOM     14  C   UNL     1      -3.775  14.652  21.140  0.00  0.00    +0.000 A 
ATOM     15  C   UNL     1      -3.479  15.925  21.841  0.00  0.00    +0.000 C 
ATOM     16  C   UNL     1      -5.024  14.046  20.967  0.00  0.00    +0.000 A 
ATOM     17  C   UNL     1      -4.773  12.884  20.270  0.00  0.00    +0.000 A 
ATOM     18  C   UNL     1      -5.716  11.768  19.995  0.00  0.00    +0.000 C 
ENDBRANCH   4  12
BRANCH   9  19
ATOM     19  C   UNL     1       1.178   8.890  19.256  0.00  0.00    +0.000 A 
ATOM     20  C   UNL     1       1.528   7.781  20.039  0.00  0.00    +0.000 A 
ATOM     21  C   UNL     1       2.472   6.851  19.590  0.00  0.00    +0.000 A 
ATOM     22  C   UNL     1       3.097   7.036  18.361  0.00  0.00    +0.000 A 
ATOM     23 CL   UNL     1       4.242   5.886  17.795  0.00  0.00    +0.000 Cl
ATOM     24  C   UNL     1       2.787   8.143  17.579  0.00  0.00    +0.000 A 
ATOM     25  C   UNL     1       1.824   9.056  18.020  0.00  0.00    +0.000 A 
ENDBRANCH   9  19
TORSDOF 2
ENDMDL
