MODEL 1
REMARK VINA RESULT:      -8.4      0.000      0.000
REMARK  Name = 
REMARK  5 active torsions:
REMARK  status: ('A' for Active; 'I' for Inactive)
REMARK    1  A    between atoms: C_2  and  C_3
REMARK    2  A    between atoms: C_3  and  C_4
REMARK    3  A    between atoms: N_10  and  C_11
REMARK    4  A    between atoms: C_14  and  N_15
REMARK    5  A    between atoms: N_18  and  C_19
REMARK                            x       y       z     vdW  Elec       q    Type
REMARK                         _______ _______ _______ _____ _____    ______ ____
ROOT
ATOM      1  C   UNL     1       5.935   5.461  18.213  0.00  0.00    +0.000 A 
ATOM      2  C   UNL     1       7.224   5.579  18.727  0.00  0.00    +0.000 A 
ATOM      3  C   UNL     1       7.990   6.719  18.492  0.00  0.00    +0.000 A 
ATOM      4  C   UNL     1       7.495   7.775  17.727  0.00  0.00    +0.000 A 
ATOM      5  C   UNL     1       6.174   7.709  17.282  0.00  0.00    +0.000 A 
ATOM      6  C   UNL     1       5.405   6.552  17.512  0.00  0.00    +0.000 A 
ENDROOT
BRANCH   4   7
ATOM      7  N   UNL     1       8.300   8.891  17.391  0.00  0.00    +0.000 N 
ATOM      8  C   UNL     1       8.866   9.729  18.345  0.00  0.00    +0.000 C 
ATOM      9  O   UNL     1       8.837   9.523  19.554  0.00  0.00    +0.000 OA
ATOM     10  N   UNL     1       9.446  10.850  17.773  0.00  0.00    +0.000 N 
ATOM     11  H   UNL     1       8.763   8.882  16.494  0.00  0.00    +0.000 HD
ATOM     12  H   UNL     1       8.972  11.186  16.946  0.00  0.00    +0.000 HD
BRANCH  10  13
ATOM     13  C   UNL     1      10.079  11.828  18.577  0.00  0.00    +0.000 A 
ATOM     14  C   UNL     1       9.396  12.965  19.030  0.00  0.00    +0.000 A 
ATOM     15  C   UNL     1      10.062  13.948  19.765  0.00  0.00    +0.000 A 
ATOM     16  C   UNL     1      11.418  13.804  20.045  0.00  0.00    +0.000 A 
ATOM     17  C   UNL     1      12.099  12.664  19.616  0.00  0.00    +0.000 A 
ATOM     18  C   UNL     1      11.427  11.666  18.906  0.00  0.00    +0.000 A 
ENDBRANCH  10  13
ENDBRANCH   4   7
BRANCH   1  21
ATOM     19  O   UNL     1       4.590   3.847  16.111  0.00  0.00    +0.000 OA
ATOM     20  C   UNL     1       4.518   3.597  17.313  0.00  0.00    +0.000 C 
ATOM     21  N   UNL     1       5.163   4.281  18.338  0.00  0.00    +0.000 N 
ATOM     22  H   UNL     1       5.012   3.944  19.281  0.00  0.00    +0.000 HD
BRANCH  20  23
ATOM     23  C   UNL     1       3.653   2.439  17.788  0.00  0.00    +0.000 C 
BRANCH  23  24
ATOM     24  C   UNL     1       2.846   2.763  19.022  0.00  0.00    +0.000 A 
ATOM     25  C   UNL     1       1.586   3.374  18.919  0.00  0.00    +0.000 A 
ATOM     26  C   UNL     1       0.837   3.656  20.062  0.00  0.00    +0.000 A 
ATOM     27  C   UNL     1       1.332   3.322  21.321  0.00  0.00    +0.000 A 
ATOM     28  C   UNL     1       2.573   2.699  21.436  0.00  0.00    +0.000 A 
ATOM     29  C   UNL     1       3.324   2.417  20.293  0.00  0.00    +0.000 A 
ENDBRANCH  23  24
ENDBRANCH  20  23
ENDBRANCH   1  21
TORSDOF 5
ENDMDL
MODEL 2
REMARK VINA RESULT:      -8.2      0.400      1.376
REMARK  Name = 
REMARK  5 active torsions:
REMARK  status: ('A' for Active; 'I' for Inactive)
REMARK    1  A    between atoms: C_2  and  C_3
REMARK    2  A    between atoms: C_3  and  C_4
REMARK    3  A    between atoms: N_10  and  C_11
REMARK    4  A    between atoms: C_14  and  N_15
REMARK    5  A    between atoms: N_18  and  C_19
REMARK                            x       y       z     vdW  Elec       q    Type
REMARK                         _______ _______ _______ _____ _____    ______ ____
ROOT
ATOM      1  C   UNL     1       6.299   5.379  18.343  0.00  0.00    +0.000 A 
ATOM      2  C   UNL     1       7.524   5.664  18.942  0.00  0.00    +0.000 A 
ATOM      3  C   UNL     1       8.185   6.864  18.688  0.00  0.00    +0.000 A 
ATOM      4  C   UNL     1       7.649   7.813  17.818  0.00  0.00    +0.000 A 
ATOM      5  C   UNL     1       6.382   7.579  17.283  0.00  0.00    +0.000 A 
ATOM      6  C   UNL     1       5.719   6.363  17.533  0.00  0.00    +0.000 A 
ENDROOT
BRANCH   4   7
ATOM      7  N   UNL     1       8.360   8.988  17.468  0.00  0.00    +0.000 N 
ATOM      8  C   UNL     1       8.917   9.844  18.413  0.00  0.00    +0.000 C 
ATOM      9  O   UNL     1       8.962   9.613  19.616  0.00  0.00    +0.000 OA
ATOM     10  N   UNL     1       9.391  11.012  17.837  0.00  0.00    +0.000 N 
ATOM     11  H   UNL     1       8.776   9.027  16.550  0.00  0.00    +0.000 HD
ATOM     12  H   UNL     1       8.855  11.331  17.043  0.00  0.00    +0.000 HD
BRANCH  10  13
ATOM     13  C   UNL     1       9.998  12.015  18.631  0.00  0.00    +0.000 A 
ATOM     14  C   UNL     1      11.365  11.986  18.939  0.00  0.00    +0.000 A 
ATOM     15  C   UNL     1      11.923  12.950  19.780  0.00  0.00    +0.000 A 
ATOM     16  C   UNL     1      11.117  13.946  20.325  0.00  0.00    +0.000 A 
ATOM     17  C   UNL     1       9.760  13.993  20.006  0.00  0.00    +0.000 A 
ATOM     18  C   UNL     1       9.205  13.047  19.140  0.00  0.00    +0.000 A 
ENDBRANCH  10  13
ENDBRANCH   4   7
BRANCH   1  21
ATOM     19  O   UNL     1       4.243   4.105  16.617  0.00  0.00    +0.000 OA
ATOM     20  C   UNL     1       4.651   3.613  17.667  0.00  0.00    +0.000 C 
ATOM     21  N   UNL     1       5.645   4.132  18.491  0.00  0.00    +0.000 N 
ATOM     22  H   UNL     1       5.878   3.601  19.320  0.00  0.00    +0.000 HD
BRANCH  20  23
ATOM     23  C   UNL     1       4.048   2.310  18.169  0.00  0.00    +0.000 C 
BRANCH  23  24
ATOM     24  C   UNL     1       3.004   2.507  19.241  0.00  0.00    +0.000 A 
ATOM     25  C   UNL     1       3.361   2.523  20.600  0.00  0.00    +0.000 A 
ATOM     26  C   UNL     1       2.395   2.722  21.587  0.00  0.00    +0.000 A 
ATOM     27  C   UNL     1       1.063   2.918  21.230  0.00  0.00    +0.000 A 
ATOM     28  C   UNL     1       0.699   2.922  19.884  0.00  0.00    +0.000 A 
ATOM     29  C   UNL     1       1.664   2.722  18.896  0.00  0.00    +0.000 A 
ENDBRANCH  23  24
ENDBRANCH  20  23
ENDBRANCH   1  21
TORSDOF 5
ENDMDL
MODEL 3
REMARK VINA RESULT:      -8.1      0.773      1.528
REMARK  Name = 
REMARK  5 active torsions:
REMARK  status: ('A' for Active; 'I' for Inactive)
REMARK    1  A    between atoms: C_2  and  C_3
REMARK    2  A    between atoms: C_3  and  C_4
REMARK    3  A    between atoms: N_10  and  C_11
REMARK    4  A    between atoms: C_14  and  N_15
REMARK    5  A    between atoms: N_18  and  C_19
REMARK                            x       y       z     vdW  Elec       q    Type
REMARK                         _______ _______ _______ _____ _____    ______ ____
ROOT
ATOM      1  C   UNL     1       5.767   5.054  17.857  0.00  0.00    +0.000 A 
ATOM      2  C   UNL     1       5.078   6.124  17.291  0.00  0.00    +0.000 A 
ATOM      3  C   UNL     1       5.711   7.342  17.057  0.00  0.00    +0.000 A 
ATOM      4  C   UNL     1       7.052   7.534  17.389  0.00  0.00    +0.000 A 
ATOM      5  C   UNL     1       7.777   6.444  17.872  0.00  0.00    +0.000 A 
ATOM      6  C   UNL     1       7.134   5.216  18.117  0.00  0.00    +0.000 A 
ENDROOT
BRANCH   4   7
ATOM      7  N   UNL     1       7.679   8.798  17.256  0.00  0.00    +0.000 N 
ATOM      8  C   UNL     1       8.549   9.314  18.210  0.00  0.00    +0.000 C 
ATOM      9  O   UNL     1       8.959   8.692  19.184  0.00  0.00    +0.000 OA
ATOM     10  N   UNL     1       8.880  10.635  17.949  0.00  0.00    +0.000 N 
ATOM     11  H   UNL     1       7.787   9.171  16.325  0.00  0.00    +0.000 HD
ATOM     12  H   UNL     1       8.139  11.172  17.522  0.00  0.00    +0.000 HD
BRANCH  10  13
ATOM     13  C   UNL     1       9.758  11.343  18.805  0.00  0.00    +0.000 A 
ATOM     14  C   UNL     1       9.348  11.807  20.062  0.00  0.00    +0.000 A 
ATOM     15  C   UNL     1      10.212  12.562  20.857  0.00  0.00    +0.000 A 
ATOM     16  C   UNL     1      11.491  12.864  20.397  0.00  0.00    +0.000 A 
ATOM     17  C   UNL     1      11.914  12.387  19.156  0.00  0.00    +0.000 A 
ATOM     18  C   UNL     1      11.060  11.606  18.372  0.00  0.00    +0.000 A 
ENDBRANCH  10  13
ENDBRANCH   4   7
BRANCH   1  21
ATOM     19  O   UNL     1       3.851   3.398  16.302  0.00  0.00    +0.000 OA
ATOM     20  C   UNL     1       4.209   3.131  17.447  0.00  0.00    +0.000 C 
ATOM     21  N   UNL     1       5.138   3.835  18.207  0.00  0.00    +0.000 N 
ATOM     22  H   UNL     1       5.335   3.481  19.135  0.00  0.00    +0.000 HD
BRANCH  20  23
ATOM     23  C   UNL     1       3.611   1.927  18.158  0.00  0.00    +0.000 C 
BRANCH  23  24
ATOM     24  C   UNL     1       2.758   2.296  19.348  0.00  0.00    +0.000 A 
ATOM     25  C   UNL     1       3.291   2.286  20.647  0.00  0.00    +0.000 A 
ATOM     26  C   UNL     1       2.504   2.644  21.742  0.00  0.00    +0.000 A 
ATOM     27  C   UNL     1       1.177   3.026  21.552  0.00  0.00    +0.000 A 
ATOM     28  C   UNL     1       0.642   3.057  20.266  0.00  0.00    +0.000 A 
ATOM     29  C   UNL     1       1.428   2.699  19.169  0.00  0.00    +0.000 A 
ENDBRANCH  23  24
ENDBRANCH  20  23
ENDBRANCH   1  21
TORSDOF 5
ENDMDL
MODEL 4
REMARK VINA RESULT:      -8.1      6.629      9.627
REMARK  Name = 
REMARK  5 active torsions:
REMARK  status: ('A' for Active; 'I' for Inactive)
REMARK    1  A    between atoms: C_2  and  C_3
REMARK    2  A    between atoms: C_3  and  C_4
REMARK    3  A    between atoms: N_10  and  C_11
REMARK    4  A    between atoms: C_14  and  N_15
REMARK    5  A    between atoms: N_18  and  C_19
REMARK                            x       y       z     vdW  Elec       q    Type
REMARK                         _______ _______ _______ _____ _____    ______ ____
ROOT
ATOM      1  C   UNL     1       2.513   7.506  18.827  0.00  0.00    +0.000 A 
ATOM      2  C   UNL     1       2.308   8.414  17.791  0.00  0.00    +0.000 A 
ATOM      3  C   UNL     1       1.466   9.512  17.955  0.00  0.00    +0.000 A 
ATOM      4  C   UNL     1       0.795   9.734  19.157  0.00  0.00    +0.000 A 
ATOM      5  C   UNL     1       1.062   8.884  20.230  0.00  0.00    +0.000 A 
ATOM      6  C   UNL     1       1.905   7.769  20.061  0.00  0.00    +0.000 A 
ENDROOT
BRANCH   4   7
ATOM      7  N   UNL     1      -0.145  10.784  19.302  0.00  0.00    +0.000 N 
ATOM      8  C   UNL     1      -1.477  10.664  18.923  0.00  0.00    +0.000 C 
ATOM      9  O   UNL     1      -2.001   9.619  18.551  0.00  0.00    +0.000 OA
ATOM     10  N   UNL     1      -2.146  11.877  18.986  0.00  0.00    +0.000 N 
ATOM     11  H   UNL     1       0.045  11.489  19.999  0.00  0.00    +0.000 HD
ATOM     12  H   UNL     1      -1.572  12.678  18.763  0.00  0.00    +0.000 HD
BRANCH  10  13
ATOM     13  C   UNL     1      -3.516  11.967  18.641  0.00  0.00    +0.000 A 
ATOM     14  C   UNL     1      -4.489  12.344  19.576  0.00  0.00    +0.000 A 
ATOM     15  C   UNL     1      -5.840  12.358  19.228  0.00  0.00    +0.000 A 
ATOM     16  C   UNL     1      -6.229  11.989  17.943  0.00  0.00    +0.000 A 
ATOM     17  C   UNL     1      -5.264  11.633  17.000  0.00  0.00    +0.000 A 
ATOM     18  C   UNL     1      -3.908  11.646  17.339  0.00  0.00    +0.000 A 
ENDBRANCH  10  13
ENDBRANCH   4   7
BRANCH   1  21
ATOM     19  O   UNL     1       1.664   4.821  17.876  0.00  0.00    +0.000 OA
ATOM     20  C   UNL     1       2.803   5.079  18.263  0.00  0.00    +0.000 C 
ATOM     21  N   UNL     1       3.275   6.323  18.670  0.00  0.00    +0.000 N 
ATOM     22  H   UNL     1       4.245   6.376  18.951  0.00  0.00    +0.000 HD
BRANCH  20  23
ATOM     23  C   UNL     1       3.842   3.970  18.326  0.00  0.00    +0.000 C 
BRANCH  23  24
ATOM     24  C   UNL     1       5.024   4.205  17.417  0.00  0.00    +0.000 A 
ATOM     25  C   UNL     1       6.294   4.490  17.945  0.00  0.00    +0.000 A 
ATOM     26  C   UNL     1       7.387   4.690  17.100  0.00  0.00    +0.000 A 
ATOM     27  C   UNL     1       7.227   4.598  15.719  0.00  0.00    +0.000 A 
ATOM     28  C   UNL     1       5.976   4.298  15.184  0.00  0.00    +0.000 A 
ATOM     29  C   UNL     1       4.881   4.099  16.027  0.00  0.00    +0.000 A 
ENDBRANCH  23  24
ENDBRANCH  20  23
ENDBRANCH   1  21
TORSDOF 5
ENDMDL
MODEL 5
REMARK VINA RESULT:      -7.9      0.350      1.003
REMARK  Name = 
REMARK  5 active torsions:
REMARK  status: ('A' for Active; 'I' for Inactive)
REMARK    1  A    between atoms: C_2  and  C_3
REMARK    2  A    between atoms: C_3  and  C_4
REMARK    3  A    between atoms: N_10  and  C_11
REMARK    4  A    between atoms: C_14  and  N_15
REMARK    5  A    between atoms: N_18  and  C_19
REMARK                            x       y       z     vdW  Elec       q    Type
REMARK                         _______ _______ _______ _____ _____    ______ ____
ROOT
ATOM      1  C   UNL     1       5.534   5.737  18.019  0.00  0.00    +0.000 A 
ATOM      2  C   UNL     1       6.840   5.633  18.491  0.00  0.00    +0.000 A 
ATOM      3  C   UNL     1       7.755   6.668  18.305  0.00  0.00    +0.000 A 
ATOM      4  C   UNL     1       7.396   7.836  17.633  0.00  0.00    +0.000 A 
ATOM      5  C   UNL     1       6.067   7.990  17.236  0.00  0.00    +0.000 A 
ATOM      6  C   UNL     1       5.146   6.940  17.416  0.00  0.00    +0.000 A 
ENDROOT
BRANCH   4   7
ATOM      7  N   UNL     1       8.343   8.849  17.343  0.00  0.00    +0.000 N 
ATOM      8  C   UNL     1       8.852   9.708  18.312  0.00  0.00    +0.000 C 
ATOM      9  O   UNL     1       8.638   9.600  19.515  0.00  0.00    +0.000 OA
ATOM     10  N   UNL     1       9.610  10.726  17.756  0.00  0.00    +0.000 N 
ATOM     11  H   UNL     1       8.921   8.730  16.525  0.00  0.00    +0.000 HD
ATOM     12  H   UNL     1       9.287  11.036  16.850  0.00  0.00    +0.000 HD
BRANCH  10  13
ATOM     13  C   UNL     1      10.218  11.706  18.577  0.00  0.00    +0.000 A 
ATOM     14  C   UNL     1       9.558  12.893  18.921  0.00  0.00    +0.000 A 
ATOM     15  C   UNL     1      10.205  13.873  19.675  0.00  0.00    +0.000 A 
ATOM     16  C   UNL     1      11.522  13.675  20.084  0.00  0.00    +0.000 A 
ATOM     17  C   UNL     1      12.178  12.487  19.763  0.00  0.00    +0.000 A 
ATOM     18  C   UNL     1      11.521  11.493  19.033  0.00  0.00    +0.000 A 
ENDBRANCH  10  13
ENDBRANCH   4   7
BRANCH   1  21
ATOM     19  O   UNL     1       5.235   3.360  16.261  0.00  0.00    +0.000 OA
ATOM     20  C   UNL     1       4.488   3.607  17.206  0.00  0.00    +0.000 C 
ATOM     21  N   UNL     1       4.605   4.671  18.094  0.00  0.00    +0.000 N 
ATOM     22  H   UNL     1       3.913   4.733  18.831  0.00  0.00    +0.000 HD
BRANCH  20  23
ATOM     23  C   UNL     1       3.300   2.698  17.481  0.00  0.00    +0.000 C 
BRANCH  23  24
ATOM     24  C   UNL     1       2.676   2.921  18.837  0.00  0.00    +0.000 A 
ATOM     25  C   UNL     1       3.313   2.474  20.006  0.00  0.00    +0.000 A 
ATOM     26  C   UNL     1       2.740   2.698  21.259  0.00  0.00    +0.000 A 
ATOM     27  C   UNL     1       1.529   3.379  21.360  0.00  0.00    +0.000 A 
ATOM     28  C   UNL     1       0.895   3.843  20.209  0.00  0.00    +0.000 A 
ATOM     29  C   UNL     1       1.467   3.620  18.955  0.00  0.00    +0.000 A 
ENDBRANCH  23  24
ENDBRANCH  20  23
ENDBRANCH   1  21
TORSDOF 5
ENDMDL
MODEL 6
REMARK VINA RESULT:      -7.9      6.677      8.027
REMARK  Name = 
REMARK  5 active torsions:
REMARK  status: ('A' for Active; 'I' for Inactive)
REMARK    1  A    between atoms: C_2  and  C_3
REMARK    2  A    between atoms: C_3  and  C_4
REMARK    3  A    between atoms: N_10  and  C_11
REMARK    4  A    between atoms: C_14  and  N_15
REMARK    5  A    between atoms: N_18  and  C_19
REMARK                            x       y       z     vdW  Elec       q    Type
REMARK                         _______ _______ _______ _____ _____    ______ ____
ROOT
ATOM      1  C   UNL     1       2.559   7.361  18.779  0.00  0.00    +0.000 A 
ATOM      2  C   UNL     1       2.389   8.386  17.851  0.00  0.00    +0.000 A 
ATOM      3  C   UNL     1       1.610   9.502  18.149  0.00  0.00    +0.000 A 
ATOM      4  C   UNL     1       0.968   9.627  19.381  0.00  0.00    +0.000 A 
ATOM      5  C   UNL     1       1.204   8.652  20.351  0.00  0.00    +0.000 A 
ATOM      6  C   UNL     1       1.984   7.520  20.047  0.00  0.00    +0.000 A 
ENDROOT
BRANCH   4   7
ATOM      7  N   UNL     1       0.088  10.702  19.657  0.00  0.00    +0.000 N 
ATOM      8  C   UNL     1       0.320  11.627  20.670  0.00  0.00    +0.000 C 
ATOM      9  O   UNL     1       1.350  11.685  21.333  0.00  0.00    +0.000 OA
ATOM     10  N   UNL     1      -0.768  12.464  20.866  0.00  0.00    +0.000 N 
ATOM     11  H   UNL     1      -0.512  11.019  18.910  0.00  0.00    +0.000 HD
ATOM     12  H   UNL     1      -1.663  12.024  20.705  0.00  0.00    +0.000 HD
BRANCH  10  13
ATOM     13  C   UNL     1      -0.731  13.477  21.854  0.00  0.00    +0.000 A 
ATOM     14  C   UNL     1      -1.319  13.301  23.114  0.00  0.00    +0.000 A 
ATOM     15  C   UNL     1      -1.328  14.341  24.045  0.00  0.00    +0.000 A 
ATOM     16  C   UNL     1      -0.756  15.568  23.719  0.00  0.00    +0.000 A 
ATOM     17  C   UNL     1      -0.150  15.744  22.475  0.00  0.00    +0.000 A 
ATOM     18  C   UNL     1      -0.114  14.694  21.553  0.00  0.00    +0.000 A 
ENDBRANCH  10  13
ENDBRANCH   4   7
BRANCH   1  21
ATOM     19  O   UNL     1       1.532   4.803  17.671  0.00  0.00    +0.000 OA
ATOM     20  C   UNL     1       2.702   4.980  18.006  0.00  0.00    +0.000 C 
ATOM     21  N   UNL     1       3.254   6.164  18.482  0.00  0.00    +0.000 N 
ATOM     22  H   UNL     1       4.241   6.153  18.706  0.00  0.00    +0.000 HD
BRANCH  20  23
ATOM     23  C   UNL     1       3.690   3.827  17.916  0.00  0.00    +0.000 C 
BRANCH  23  24
ATOM     24  C   UNL     1       4.920   4.155  17.105  0.00  0.00    +0.000 A 
ATOM     25  C   UNL     1       4.850   4.276  15.707  0.00  0.00    +0.000 A 
ATOM     26  C   UNL     1       5.987   4.595  14.963  0.00  0.00    +0.000 A 
ATOM     27  C   UNL     1       7.205   4.806  15.606  0.00  0.00    +0.000 A 
ATOM     28  C   UNL     1       7.284   4.706  16.994  0.00  0.00    +0.000 A 
ATOM     29  C   UNL     1       6.148   4.387  17.740  0.00  0.00    +0.000 A 
ENDBRANCH  23  24
ENDBRANCH  20  23
ENDBRANCH   1  21
TORSDOF 5
ENDMDL
MODEL 7
REMARK VINA RESULT:      -7.9      1.353      1.935
REMARK  Name = 
REMARK  5 active torsions:
REMARK  status: ('A' for Active; 'I' for Inactive)
REMARK    1  A    between atoms: C_2  and  C_3
REMARK    2  A    between atoms: C_3  and  C_4
REMARK    3  A    between atoms: N_10  and  C_11
REMARK    4  A    between atoms: C_14  and  N_15
REMARK    5  A    between atoms: N_18  and  C_19
REMARK                            x       y       z     vdW  Elec       q    Type
REMARK                         _______ _______ _______ _____ _____    ______ ____
ROOT
ATOM      1  C   UNL     1       6.354   5.805  17.877  0.00  0.00    +0.000 A 
ATOM      2  C   UNL     1       6.473   6.966  17.117  0.00  0.00    +0.000 A 
ATOM      3  C   UNL     1       7.417   7.940  17.437  0.00  0.00    +0.000 A 
ATOM      4  C   UNL     1       8.266   7.789  18.533  0.00  0.00    +0.000 A 
ATOM      5  C   UNL     1       8.218   6.592  19.248  0.00  0.00    +0.000 A 
ATOM      6  C   UNL     1       7.258   5.613  18.930  0.00  0.00    +0.000 A 
ENDROOT
BRANCH   4   7
ATOM      7  N   UNL     1       9.156   8.817  18.932  0.00  0.00    +0.000 N 
ATOM      8  C   UNL     1       9.055  10.125  18.471  0.00  0.00    +0.000 C 
ATOM      9  O   UNL     1       8.130  10.549  17.786  0.00  0.00    +0.000 OA
ATOM     10  N   UNL     1      10.143  10.895  18.852  0.00  0.00    +0.000 N 
ATOM     11  H   UNL     1       9.636   8.704  19.812  0.00  0.00    +0.000 HD
ATOM     12  H   UNL     1      11.014  10.385  18.899  0.00  0.00    +0.000 HD
BRANCH  10  13
ATOM     13  C   UNL     1      10.230  12.259  18.482  0.00  0.00    +0.000 A 
ATOM     14  C   UNL     1       9.533  13.257  19.176  0.00  0.00    +0.000 A 
ATOM     15  C   UNL     1       9.581  14.585  18.749  0.00  0.00    +0.000 A 
ATOM     16  C   UNL     1      10.322  14.923  17.620  0.00  0.00    +0.000 A 
ATOM     17  C   UNL     1      11.035  13.938  16.936  0.00  0.00    +0.000 A 
ATOM     18  C   UNL     1      11.011  12.613  17.380  0.00  0.00    +0.000 A 
ENDBRANCH  10  13
ENDBRANCH   4   7
BRANCH   1  21
ATOM     19  O   UNL     1       3.437   6.187  17.454  0.00  0.00    +0.000 OA
ATOM     20  C   UNL     1       3.980   5.085  17.507  0.00  0.00    +0.000 C 
ATOM     21  N   UNL     1       5.342   4.841  17.652  0.00  0.00    +0.000 N 
ATOM     22  H   UNL     1       5.636   3.873  17.667  0.00  0.00    +0.000 HD
BRANCH  20  23
ATOM     23  C   UNL     1       3.131   3.826  17.414  0.00  0.00    +0.000 C 
BRANCH  23  24
ATOM     24  C   UNL     1       2.527   3.413  18.734  0.00  0.00    +0.000 A 
ATOM     25  C   UNL     1       3.329   2.887  19.761  0.00  0.00    +0.000 A 
ATOM     26  C   UNL     1       2.768   2.522  20.985  0.00  0.00    +0.000 A 
ATOM     27  C   UNL     1       1.402   2.685  21.203  0.00  0.00    +0.000 A 
ATOM     28  C   UNL     1       0.598   3.222  20.199  0.00  0.00    +0.000 A 
ATOM     29  C   UNL     1       1.157   3.587  18.973  0.00  0.00    +0.000 A 
ENDBRANCH  23  24
ENDBRANCH  20  23
ENDBRANCH   1  21
TORSDOF 5
ENDMDL
MODEL 8
REMARK VINA RESULT:      -7.8      5.531      7.976
REMARK  Name = 
REMARK  5 active torsions:
REMARK  status: ('A' for Active; 'I' for Inactive)
REMARK    1  A    between atoms: C_2  and  C_3
REMARK    2  A    between atoms: C_3  and  C_4
REMARK    3  A    between atoms: N_10  and  C_11
REMARK    4  A    between atoms: C_14  and  N_15
REMARK    5  A    between atoms: N_18  and  C_19
REMARK                            x       y       z     vdW  Elec       q    Type
REMARK                         _______ _______ _______ _____ _____    ______ ____
ROOT
ATOM      1  C   UNL     1       5.201   4.486  17.167  0.00  0.00    +0.000 A 
ATOM      2  C   UNL     1       5.711   5.083  18.317  0.00  0.00    +0.000 A 
ATOM      3  C   UNL     1       4.867   5.498  19.345  0.00  0.00    +0.000 A 
ATOM      4  C   UNL     1       3.484   5.338  19.253  0.00  0.00    +0.000 A 
ATOM      5  C   UNL     1       2.969   4.660  18.147  0.00  0.00    +0.000 A 
ATOM      6  C   UNL     1       3.822   4.250  17.105  0.00  0.00    +0.000 A 
ENDROOT
BRANCH   4   7
ATOM      7  N   UNL     1       2.608   5.850  20.241  0.00  0.00    +0.000 N 
ATOM      8  C   UNL     1       2.040   7.118  20.164  0.00  0.00    +0.000 C 
ATOM      9  O   UNL     1       2.133   7.861  19.193  0.00  0.00    +0.000 OA
ATOM     10  N   UNL     1       1.377   7.461  21.332  0.00  0.00    +0.000 N 
ATOM     11  H   UNL     1       2.107   5.186  20.812  0.00  0.00    +0.000 HD
ATOM     12  H   UNL     1       1.797   7.087  22.172  0.00  0.00    +0.000 HD
BRANCH  10  13
ATOM     13  C   UNL     1       0.730   8.713  21.455  0.00  0.00    +0.000 A 
ATOM     14  C   UNL     1       0.320   9.213  22.698  0.00  0.00    +0.000 A 
ATOM     15  C   UNL     1      -0.378  10.419  22.784  0.00  0.00    +0.000 A 
ATOM     16  C   UNL     1      -0.676  11.131  21.625  0.00  0.00    +0.000 A 
ATOM     17  C   UNL     1      -0.252  10.651  20.386  0.00  0.00    +0.000 A 
ATOM     18  C   UNL     1       0.472   9.458  20.301  0.00  0.00    +0.000 A 
ENDBRANCH  10  13
ENDBRANCH   4   7
BRANCH   1  21
ATOM     19  O   UNL     1       5.982   6.133  14.820  0.00  0.00    +0.000 OA
ATOM     20  C   UNL     1       6.300   4.954  14.961  0.00  0.00    +0.000 C 
ATOM     21  N   UNL     1       6.011   4.146  16.056  0.00  0.00    +0.000 N 
ATOM     22  H   UNL     1       6.354   3.194  16.028  0.00  0.00    +0.000 HD
BRANCH  20  23
ATOM     23  C   UNL     1       7.087   4.253  13.864  0.00  0.00    +0.000 C 
BRANCH  23  24
ATOM     24  C   UNL     1       6.210   3.561  12.848  0.00  0.00    +0.000 A 
ATOM     25  C   UNL     1       4.897   3.999  12.612  0.00  0.00    +0.000 A 
ATOM     26  C   UNL     1       4.096   3.366  11.661  0.00  0.00    +0.000 A 
ATOM     27  C   UNL     1       4.599   2.294  10.927  0.00  0.00    +0.000 A 
ATOM     28  C   UNL     1       5.907   1.861  11.139  0.00  0.00    +0.000 A 
ATOM     29  C   UNL     1       6.709   2.493  12.091  0.00  0.00    +0.000 A 
ENDBRANCH  23  24
ENDBRANCH  20  23
ENDBRANCH   1  21
TORSDOF 5
ENDMDL
MODEL 9
REMARK VINA RESULT:      -7.8      6.366      8.768
REMARK  Name = 
REMARK  5 active torsions:
REMARK  status: ('A' for Active; 'I' for Inactive)
REMARK    1  A    between atoms: C_2  and  C_3
REMARK    2  A    between atoms: C_3  and  C_4
REMARK    3  A    between atoms: N_10  and  C_11
REMARK    4  A    between atoms: C_14  and  N_15
REMARK    5  A    between atoms: N_18  and  C_19
REMARK                            x       y       z     vdW  Elec       q    Type
REMARK                         _______ _______ _______ _____ _____    ______ ____
ROOT
ATOM      1  C   UNL     1       2.550   6.828  18.521  0.00  0.00    +0.000 A 
ATOM      2  C   UNL     1       2.185   6.918  19.862  0.00  0.00    +0.000 A 
ATOM      3  C   UNL     1       1.632   8.088  20.378  0.00  0.00    +0.000 A 
ATOM      4  C   UNL     1       1.433   9.209  19.573  0.00  0.00    +0.000 A 
ATOM      5  C   UNL     1       1.710   9.102  18.209  0.00  0.00    +0.000 A 
ATOM      6  C   UNL     1       2.279   7.923  17.690  0.00  0.00    +0.000 A 
ENDROOT
BRANCH   4   7
ATOM      7  N   UNL     1       0.972  10.437  20.107  0.00  0.00    +0.000 N 
ATOM      8  C   UNL     1      -0.269  10.576  20.719  0.00  0.00    +0.000 C 
ATOM      9  O   UNL     1      -1.026   9.645  20.971  0.00  0.00    +0.000 OA
ATOM     10  N   UNL     1      -0.569  11.903  20.987  0.00  0.00    +0.000 N 
ATOM     11  H   UNL     1       1.664  11.122  20.372  0.00  0.00    +0.000 HD
ATOM     12  H   UNL     1      -0.206  12.556  20.306  0.00  0.00    +0.000 HD
BRANCH  10  13
ATOM     13  C   UNL     1      -1.790  12.257  21.610  0.00  0.00    +0.000 A 
ATOM     14  C   UNL     1      -1.971  12.141  22.995  0.00  0.00    +0.000 A 
ATOM     15  C   UNL     1      -3.207  12.432  23.576  0.00  0.00    +0.000 A 
ATOM     16  C   UNL     1      -4.272  12.833  22.775  0.00  0.00    +0.000 A 
ATOM     17  C   UNL     1      -4.093  12.971  21.398  0.00  0.00    +0.000 A 
ATOM     18  C   UNL     1      -2.849  12.709  20.819  0.00  0.00    +0.000 A 
ENDBRANCH  10  13
ENDBRANCH   4   7
BRANCH   1  21
ATOM     19  O   UNL     1       1.416   4.259  17.548  0.00  0.00    +0.000 OA
ATOM     20  C   UNL     1       2.621   4.502  17.584  0.00  0.00    +0.000 C 
ATOM     21  N   UNL     1       3.210   5.698  17.980  0.00  0.00    +0.000 N 
ATOM     22  H   UNL     1       4.221   5.746  17.943  0.00  0.00    +0.000 HD
BRANCH  20  23
ATOM     23  C   UNL     1       3.615   3.427  17.172  0.00  0.00    +0.000 C 
BRANCH  23  24
ATOM     24  C   UNL     1       4.923   3.985  16.664  0.00  0.00    +0.000 A 
ATOM     25  C   UNL     1       5.076   4.347  15.316  0.00  0.00    +0.000 A 
ATOM     26  C   UNL     1       6.282   4.877  14.855  0.00  0.00    +0.000 A 
ATOM     27  C   UNL     1       7.346   5.061  15.736  0.00  0.00    +0.000 A 
ATOM     28  C   UNL     1       7.200   4.722  17.080  0.00  0.00    +0.000 A 
ATOM     29  C   UNL     1       5.994   4.191  17.543  0.00  0.00    +0.000 A 
ENDBRANCH  23  24
ENDBRANCH  20  23
ENDBRANCH   1  21
TORSDOF 5
ENDMDL
