MODEL 1
REMARK VINA RESULT:      -9.0      0.000      0.000
REMARK  Name = 
REMARK  7 active torsions:
REMARK  status: ('A' for Active; 'I' for Inactive)
REMARK    1  A    between atoms: C_2  and  C_3
REMARK    2  A    between atoms: C_3  and  N_4
REMARK    3  A    between atoms: C_5  and  C_7
REMARK    4  A    between atoms: C_7  and  O_8
REMARK    5  A    between atoms: O_8  and  C_9
REMARK    6  A    between atoms: C_15  and  C_16
REMARK    7  A    between atoms: C_23  and  C_24
REMARK                            x       y       z     vdW  Elec       q    Type
REMARK                         _______ _______ _______ _____ _____    ______ ____
ROOT
ATOM      1  C   UNL     1       4.915   4.674  17.119  0.00  0.00    +0.000 A 
ATOM      2  C   UNL     1       4.401   3.974  18.214  0.00  0.00    +0.000 A 
ATOM      3  C   UNL     1       3.492   4.585  19.085  0.00  0.00    +0.000 A 
ATOM      4  C   UNL     1       3.086   5.902  18.850  0.00  0.00    +0.000 A 
ATOM      5  C   UNL     1       2.169   6.600  19.765  0.00  0.00    +0.000 A 
ATOM      6  O   UNL     1       1.690   6.023  20.732  0.00  0.00    +0.000 OA
ATOM      7  C   UNL     1       1.887   8.037  19.462  0.00  0.00    +0.000 A 
ATOM      8  C   UNL     1       2.398   8.564  18.328  0.00  0.00    +0.000 A 
ATOM      9  C   UNL     1       2.214   9.985  17.869  0.00  0.00    +0.000 C 
ATOM     10  O   UNL     1       3.183   7.857  17.429  0.00  0.00    +0.000 OA
ATOM     11  C   UNL     1       3.565   6.582  17.739  0.00  0.00    +0.000 A 
ATOM     12  C   UNL     1       4.476   5.974  16.870  0.00  0.00    +0.000 A 
ENDROOT
BRANCH   7  13
ATOM     13  C   UNL     1       1.103   8.846  20.410  0.00  0.00    +0.000 A 
ATOM     14  C   UNL     1       1.330   8.758  21.791  0.00  0.00    +0.000 A 
ATOM     15  C   UNL     1       0.521   9.469  22.684  0.00  0.00    +0.000 A 
ATOM     16  C   UNL     1      -0.510  10.272  22.199  0.00  0.00    +0.000 A 
ATOM     17 CL   UNL     1      -1.525  11.121  23.300  0.00  0.00    +0.000 Cl
ATOM     18  C   UNL     1      -0.734  10.381  20.828  0.00  0.00    +0.000 A 
ATOM     19  C   UNL     1       0.072   9.671  19.936  0.00  0.00    +0.000 A 
ENDBRANCH   7  13
BRANCH   1  20
ATOM     20  O   UNL     1       5.798   3.983  16.334  0.00  0.00    +0.000 OA
BRANCH  20  21
ATOM     21  C   UNL     1       6.934   4.727  15.894  0.00  0.00    +0.000 C 
BRANCH  21  23
ATOM     22  N   UNL     1       6.382   3.728  13.723  0.00  0.00    +0.000 N 
ATOM     23  C   UNL     1       7.082   4.716  14.372  0.00  0.00    +0.000 C 
ATOM     24  O   UNL     1       7.767   5.557  13.792  0.00  0.00    +0.000 OA
ATOM     25  H   UNL     1       5.891   3.044  14.289  0.00  0.00    +0.000 HD
BRANCH  22  26
ATOM     26  C   UNL     1       6.468   3.537  12.297  0.00  0.00    +0.000 C 
BRANCH  26  28
ATOM     27  C   UNL     1       4.187   3.271  11.291  0.00  0.00    +0.000 C 
ATOM     28  C   UNL     1       5.280   2.744  11.858  0.00  0.00    +0.000 C 
ENDBRANCH  26  28
ENDBRANCH  22  26
ENDBRANCH  21  23
ENDBRANCH  20  21
ENDBRANCH   1  20
TORSDOF 6
ENDMDL
MODEL 2
REMARK VINA RESULT:      -8.5      2.395      3.896
REMARK  Name = 
REMARK  7 active torsions:
REMARK  status: ('A' for Active; 'I' for Inactive)
REMARK    1  A    between atoms: C_2  and  C_3
REMARK    2  A    between atoms: C_3  and  N_4
REMARK    3  A    between atoms: C_5  and  C_7
REMARK    4  A    between atoms: C_7  and  O_8
REMARK    5  A    between atoms: O_8  and  C_9
REMARK    6  A    between atoms: C_15  and  C_16
REMARK    7  A    between atoms: C_23  and  C_24
REMARK                            x       y       z     vdW  Elec       q    Type
REMARK                         _______ _______ _______ _____ _____    ______ ____
ROOT
ATOM      1  C   UNL     1       2.902   5.435  18.887  0.00  0.00    +0.000 A 
ATOM      2  C   UNL     1       3.138   6.271  17.793  0.00  0.00    +0.000 A 
ATOM      3  C   UNL     1       2.711   7.603  17.810  0.00  0.00    +0.000 A 
ATOM      4  C   UNL     1       2.054   8.104  18.939  0.00  0.00    +0.000 A 
ATOM      5  C   UNL     1       1.546   9.484  18.984  0.00  0.00    +0.000 A 
ATOM      6  O   UNL     1       1.735  10.253  18.051  0.00  0.00    +0.000 OA
ATOM      7  C   UNL     1       0.775   9.874  20.205  0.00  0.00    +0.000 A 
ATOM      8  C   UNL     1       0.686   8.983  21.217  0.00  0.00    +0.000 A 
ATOM      9  C   UNL     1      -0.046   9.208  22.512  0.00  0.00    +0.000 C 
ATOM     10  O   UNL     1       1.257   7.719  21.190  0.00  0.00    +0.000 OA
ATOM     11  C   UNL     1       1.858   7.285  20.042  0.00  0.00    +0.000 A 
ATOM     12  C   UNL     1       2.281   5.953  20.023  0.00  0.00    +0.000 A 
ENDROOT
BRANCH   7  13
ATOM     13  C   UNL     1       0.105  11.184  20.262  0.00  0.00    +0.000 A 
ATOM     14  C   UNL     1       0.739  12.291  20.844  0.00  0.00    +0.000 A 
ATOM     15  C   UNL     1       0.060  13.507  20.967  0.00  0.00    +0.000 A 
ATOM     16  C   UNL     1      -1.251  13.620  20.505  0.00  0.00    +0.000 A 
ATOM     17 CL   UNL     1      -2.098  15.108  20.686  0.00  0.00    +0.000 Cl
ATOM     18  C   UNL     1      -1.886  12.533  19.910  0.00  0.00    +0.000 A 
ATOM     19  C   UNL     1      -1.208  11.317  19.787  0.00  0.00    +0.000 A 
ENDBRANCH   7  13
BRANCH   1  20
ATOM     20  O   UNL     1       3.360   4.150  18.763  0.00  0.00    +0.000 OA
BRANCH  20  21
ATOM     21  C   UNL     1       4.508   3.834  19.551  0.00  0.00    +0.000 C 
BRANCH  21  23
ATOM     22  N   UNL     1       6.088   4.090  17.693  0.00  0.00    +0.000 N 
ATOM     23  C   UNL     1       5.788   4.449  18.984  0.00  0.00    +0.000 C 
ATOM     24  O   UNL     1       6.473   5.223  19.651  0.00  0.00    +0.000 OA
ATOM     25  H   UNL     1       5.497   3.401  17.242  0.00  0.00    +0.000 HD
BRANCH  22  26
ATOM     26  C   UNL     1       7.294   4.528  17.035  0.00  0.00    +0.000 C 
BRANCH  26  28
ATOM     27  C   UNL     1       6.244   4.026  14.815  0.00  0.00    +0.000 C 
ATOM     28  C   UNL     1       6.968   4.827  15.608  0.00  0.00    +0.000 C 
ENDBRANCH  26  28
ENDBRANCH  22  26
ENDBRANCH  21  23
ENDBRANCH  20  21
ENDBRANCH   1  20
TORSDOF 6
ENDMDL
MODEL 3
REMARK VINA RESULT:      -8.5      3.051      4.270
REMARK  Name = 
REMARK  7 active torsions:
REMARK  status: ('A' for Active; 'I' for Inactive)
REMARK    1  A    between atoms: C_2  and  C_3
REMARK    2  A    between atoms: C_3  and  N_4
REMARK    3  A    between atoms: C_5  and  C_7
REMARK    4  A    between atoms: C_7  and  O_8
REMARK    5  A    between atoms: O_8  and  C_9
REMARK    6  A    between atoms: C_15  and  C_16
REMARK    7  A    between atoms: C_23  and  C_24
REMARK                            x       y       z     vdW  Elec       q    Type
REMARK                         _______ _______ _______ _____ _____    ______ ____
ROOT
ATOM      1  C   UNL     1       2.947   5.263  18.781  0.00  0.00    +0.000 A 
ATOM      2  C   UNL     1       3.215   6.116  17.708  0.00  0.00    +0.000 A 
ATOM      3  C   UNL     1       2.814   7.456  17.746  0.00  0.00    +0.000 A 
ATOM      4  C   UNL     1       2.150   7.947  18.874  0.00  0.00    +0.000 A 
ATOM      5  C   UNL     1       1.668   9.336  18.940  0.00  0.00    +0.000 A 
ATOM      6  O   UNL     1       1.887  10.119  18.025  0.00  0.00    +0.000 OA
ATOM      7  C   UNL     1       0.886   9.716  20.156  0.00  0.00    +0.000 A 
ATOM      8  C   UNL     1       0.765   8.807  21.149  0.00  0.00    +0.000 A 
ATOM      9  C   UNL     1       0.018   9.021  22.437  0.00  0.00    +0.000 C 
ATOM     10  O   UNL     1       1.311   7.533  21.105  0.00  0.00    +0.000 OA
ATOM     11  C   UNL     1       1.921   7.110  19.958  0.00  0.00    +0.000 A 
ATOM     12  C   UNL     1       2.319   5.770  19.918  0.00  0.00    +0.000 A 
ENDROOT
BRANCH   7  13
ATOM     13  C   UNL     1       0.242  11.038  20.231  0.00  0.00    +0.000 A 
ATOM     14  C   UNL     1      -1.045  11.241  19.713  0.00  0.00    +0.000 A 
ATOM     15  C   UNL     1      -1.611  12.520  19.715  0.00  0.00    +0.000 A 
ATOM     16  C   UNL     1      -0.894  13.596  20.239  0.00  0.00    +0.000 A 
ATOM     17 CL   UNL     1      -1.578  15.175  20.212  0.00  0.00    +0.000 Cl
ATOM     18  C   UNL     1       0.377  13.403  20.773  0.00  0.00    +0.000 A 
ATOM     19  C   UNL     1       0.944  12.126  20.771  0.00  0.00    +0.000 A 
ENDBRANCH   7  13
BRANCH   1  20
ATOM     20  O   UNL     1       3.381   3.972  18.638  0.00  0.00    +0.000 OA
BRANCH  20  21
ATOM     21  C   UNL     1       4.481   3.603  19.471  0.00  0.00    +0.000 C 
BRANCH  21  23
ATOM     22  N   UNL     1       6.293   4.110  17.899  0.00  0.00    +0.000 N 
ATOM     23  C   UNL     1       5.753   4.381  19.132  0.00  0.00    +0.000 C 
ATOM     24  O   UNL     1       6.228   5.200  19.917  0.00  0.00    +0.000 OA
ATOM     25  H   UNL     1       5.866   3.376  17.344  0.00  0.00    +0.000 HD
BRANCH  22  26
ATOM     26  C   UNL     1       7.527   4.706  17.453  0.00  0.00    +0.000 C 
BRANCH  26  28
ATOM     27  C   UNL     1       7.579   7.212  17.440  0.00  0.00    +0.000 C 
ATOM     28  C   UNL     1       7.219   6.050  16.879  0.00  0.00    +0.000 C 
ENDBRANCH  26  28
ENDBRANCH  22  26
ENDBRANCH  21  23
ENDBRANCH  20  21
ENDBRANCH   1  20
TORSDOF 6
ENDMDL
MODEL 4
REMARK VINA RESULT:      -8.3      2.986      4.719
REMARK  Name = 
REMARK  7 active torsions:
REMARK  status: ('A' for Active; 'I' for Inactive)
REMARK    1  A    between atoms: C_2  and  C_3
REMARK    2  A    between atoms: C_3  and  N_4
REMARK    3  A    between atoms: C_5  and  C_7
REMARK    4  A    between atoms: C_7  and  O_8
REMARK    5  A    between atoms: O_8  and  C_9
REMARK    6  A    between atoms: C_15  and  C_16
REMARK    7  A    between atoms: C_23  and  C_24
REMARK                            x       y       z     vdW  Elec       q    Type
REMARK                         _______ _______ _______ _____ _____    ______ ____
ROOT
ATOM      1  C   UNL     1       4.145   5.582  18.183  0.00  0.00    +0.000 A 
ATOM      2  C   UNL     1       4.219   6.501  17.132  0.00  0.00    +0.000 A 
ATOM      3  C   UNL     1       3.493   7.696  17.179  0.00  0.00    +0.000 A 
ATOM      4  C   UNL     1       2.696   7.978  18.293  0.00  0.00    +0.000 A 
ATOM      5  C   UNL     1       1.879   9.199  18.365  0.00  0.00    +0.000 A 
ATOM      6  O   UNL     1       1.919  10.034  17.471  0.00  0.00    +0.000 OA
ATOM      7  C   UNL     1       0.993   9.342  19.561  0.00  0.00    +0.000 A 
ATOM      8  C   UNL     1       1.076   8.408  20.535  0.00  0.00    +0.000 A 
ATOM      9  C   UNL     1       0.264   8.397  21.801  0.00  0.00    +0.000 C 
ATOM     10  O   UNL     1       1.927   7.313  20.488  0.00  0.00    +0.000 OA
ATOM     11  C   UNL     1       2.655   7.085  19.354  0.00  0.00    +0.000 A 
ATOM     12  C   UNL     1       3.377   5.889  19.307  0.00  0.00    +0.000 A 
ENDROOT
BRANCH   7  13
ATOM     13  C   UNL     1       0.035  10.458  19.636  0.00  0.00    +0.000 A 
ATOM     14  C   UNL     1       0.306  11.588  20.421  0.00  0.00    +0.000 A 
ATOM     15  C   UNL     1      -0.649  12.601  20.549  0.00  0.00    +0.000 A 
ATOM     16  C   UNL     1      -1.873  12.490  19.889  0.00  0.00    +0.000 A 
ATOM     17 CL   UNL     1      -3.060  13.723  20.072  0.00  0.00    +0.000 Cl
ATOM     18  C   UNL     1      -2.146  11.381  19.092  0.00  0.00    +0.000 A 
ATOM     19  C   UNL     1      -1.193  10.367  18.964  0.00  0.00    +0.000 A 
ENDBRANCH   7  13
BRANCH   1  20
ATOM     20  O   UNL     1       4.893   4.446  18.033  0.00  0.00    +0.000 OA
BRANCH  20  21
ATOM     21  C   UNL     1       4.320   3.445  17.190  0.00  0.00    +0.000 C 
BRANCH  21  23
ATOM     22  N   UNL     1       2.788   2.437  18.818  0.00  0.00    +0.000 N 
ATOM     23  C   UNL     1       2.896   3.080  17.608  0.00  0.00    +0.000 C 
ATOM     24  O   UNL     1       1.930   3.369  16.904  0.00  0.00    +0.000 OA
ATOM     25  H   UNL     1       3.644   2.187  19.301  0.00  0.00    +0.000 HD
BRANCH  22  26
ATOM     26  C   UNL     1       1.525   1.964  19.326  0.00  0.00    +0.000 C 
BRANCH  26  28
ATOM     27  C   UNL     1       1.732   3.047  21.576  0.00  0.00    +0.000 C 
ATOM     28  C   UNL     1       1.083   2.884  20.416  0.00  0.00    +0.000 C 
ENDBRANCH  26  28
ENDBRANCH  22  26
ENDBRANCH  21  23
ENDBRANCH  20  21
ENDBRANCH   1  20
TORSDOF 6
ENDMDL
MODEL 5
REMARK VINA RESULT:      -8.1      2.518      4.306
REMARK  Name = 
REMARK  7 active torsions:
REMARK  status: ('A' for Active; 'I' for Inactive)
REMARK    1  A    between atoms: C_2  and  C_3
REMARK    2  A    between atoms: C_3  and  N_4
REMARK    3  A    between atoms: C_5  and  C_7
REMARK    4  A    between atoms: C_7  and  O_8
REMARK    5  A    between atoms: O_8  and  C_9
REMARK    6  A    between atoms: C_15  and  C_16
REMARK    7  A    between atoms: C_23  and  C_24
REMARK                            x       y       z     vdW  Elec       q    Type
REMARK                         _______ _______ _______ _____ _____    ______ ____
ROOT
ATOM      1  C   UNL     1       2.711   6.501  18.877  0.00  0.00    +0.000 A 
ATOM      2  C   UNL     1       2.775   7.447  17.851  0.00  0.00    +0.000 A 
ATOM      3  C   UNL     1       2.225   8.722  18.022  0.00  0.00    +0.000 A 
ATOM      4  C   UNL     1       1.616   9.055  19.236  0.00  0.00    +0.000 A 
ATOM      5  C   UNL     1       0.982  10.367  19.444  0.00  0.00    +0.000 A 
ATOM      6  O   UNL     1       1.021  11.227  18.574  0.00  0.00    +0.000 OA
ATOM      7  C   UNL     1       0.278  10.570  20.747  0.00  0.00    +0.000 A 
ATOM      8  C   UNL     1       0.358   9.593  21.677  0.00  0.00    +0.000 A 
ATOM      9  C   UNL     1      -0.285   9.631  23.037  0.00  0.00    +0.000 C 
ATOM     10  O   UNL     1       1.044   8.401  21.493  0.00  0.00    +0.000 OA
ATOM     11  C   UNL     1       1.589   8.130  20.270  0.00  0.00    +0.000 A 
ATOM     12  C   UNL     1       2.136   6.855  20.098  0.00  0.00    +0.000 A 
ENDROOT
BRANCH   7  13
ATOM     13  C   UNL     1      -0.507  11.795  20.974  0.00  0.00    +0.000 A 
ATOM     14  C   UNL     1       0.046  12.890  21.652  0.00  0.00    +0.000 A 
ATOM     15  C   UNL     1      -0.738  14.013  21.933  0.00  0.00    +0.000 A 
ATOM     16  C   UNL     1      -2.073  14.046  21.532  0.00  0.00    +0.000 A 
ATOM     17 CL   UNL     1      -3.046  15.416  21.907  0.00  0.00    +0.000 Cl
ATOM     18  C   UNL     1      -2.630  12.972  20.842  0.00  0.00    +0.000 A 
ATOM     19  C   UNL     1      -1.847  11.849  20.562  0.00  0.00    +0.000 A 
ENDBRANCH   7  13
BRANCH   1  20
ATOM     20  O   UNL     1       3.279   5.286  18.603  0.00  0.00    +0.000 OA
BRANCH  20  21
ATOM     21  C   UNL     1       4.252   4.841  19.548  0.00  0.00    +0.000 C 
BRANCH  21  23
ATOM     22  N   UNL     1       5.809   4.709  17.658  0.00  0.00    +0.000 N 
ATOM     23  C   UNL     1       5.678   4.944  19.005  0.00  0.00    +0.000 C 
ATOM     24  O   UNL     1       6.620   5.237  19.739  0.00  0.00    +0.000 OA
ATOM     25  H   UNL     1       4.985   4.417  17.144  0.00  0.00    +0.000 HD
BRANCH  22  26
ATOM     26  C   UNL     1       7.092   4.700  17.002  0.00  0.00    +0.000 C 
BRANCH  26  28
ATOM     27  C   UNL     1       5.806   4.842  14.855  0.00  0.00    +0.000 C 
ATOM     28  C   UNL     1       6.875   4.429  15.549  0.00  0.00    +0.000 C 
ENDBRANCH  26  28
ENDBRANCH  22  26
ENDBRANCH  21  23
ENDBRANCH  20  21
ENDBRANCH   1  20
TORSDOF 6
ENDMDL
MODEL 6
REMARK VINA RESULT:      -8.1      3.314      5.090
REMARK  Name = 
REMARK  7 active torsions:
REMARK  status: ('A' for Active; 'I' for Inactive)
REMARK    1  A    between atoms: C_2  and  C_3
REMARK    2  A    between atoms: C_3  and  N_4
REMARK    3  A    between atoms: C_5  and  C_7
REMARK    4  A    between atoms: C_7  and  O_8
REMARK    5  A    between atoms: O_8  and  C_9
REMARK    6  A    between atoms: C_15  and  C_16
REMARK    7  A    between atoms: C_23  and  C_24
REMARK                            x       y       z     vdW  Elec       q    Type
REMARK                         _______ _______ _______ _____ _____    ______ ____
ROOT
ATOM      1  C   UNL     1       2.636   7.044  18.694  0.00  0.00    +0.000 A 
ATOM      2  C   UNL     1       2.606   8.051  17.726  0.00  0.00    +0.000 A 
ATOM      3  C   UNL     1       1.988   9.278  17.994  0.00  0.00    +0.000 A 
ATOM      4  C   UNL     1       1.408   9.500  19.246  0.00  0.00    +0.000 A 
ATOM      5  C   UNL     1       0.707  10.756  19.557  0.00  0.00    +0.000 A 
ATOM      6  O   UNL     1       0.662  11.667  18.741  0.00  0.00    +0.000 OA
ATOM      7  C   UNL     1       0.042  10.838  20.894  0.00  0.00    +0.000 A 
ATOM      8  C   UNL     1       0.214   9.814  21.758  0.00  0.00    +0.000 A 
ATOM      9  C   UNL     1      -0.378   9.732  23.139  0.00  0.00    +0.000 C 
ATOM     10  O   UNL     1       0.961   8.680  21.477  0.00  0.00    +0.000 OA
ATOM     11  C   UNL     1       1.475   8.516  20.222  0.00  0.00    +0.000 A 
ATOM     12  C   UNL     1       2.089   7.289  19.953  0.00  0.00    +0.000 A 
ENDROOT
BRANCH   7  13
ATOM     13  C   UNL     1      -0.805  11.997  21.222  0.00  0.00    +0.000 A 
ATOM     14  C   UNL     1      -2.127  12.077  20.760  0.00  0.00    +0.000 A 
ATOM     15  C   UNL     1      -2.892  13.221  21.009  0.00  0.00    +0.000 A 
ATOM     16  C   UNL     1      -2.340  14.284  21.723  0.00  0.00    +0.000 A 
ATOM     17 CL   UNL     1      -3.271  15.704  22.001  0.00  0.00    +0.000 Cl
ATOM     18  C   UNL     1      -1.034  14.209  22.203  0.00  0.00    +0.000 A 
ATOM     19  C   UNL     1      -0.269  13.067  21.954  0.00  0.00    +0.000 A 
ENDBRANCH   7  13
BRANCH   1  20
ATOM     20  O   UNL     1       3.263   5.884  18.326  0.00  0.00    +0.000 OA
BRANCH  20  21
ATOM     21  C   UNL     1       4.081   5.287  19.333  0.00  0.00    +0.000 C 
BRANCH  21  23
ATOM     22  N   UNL     1       5.873   6.123  17.882  0.00  0.00    +0.000 N 
ATOM     23  C   UNL     1       5.573   5.445  19.038  0.00  0.00    +0.000 C 
ATOM     24  O   UNL     1       6.425   5.004  19.808  0.00  0.00    +0.000 OA
ATOM     25  H   UNL     1       5.104   6.399  17.280  0.00  0.00    +0.000 HD
BRANCH  22  26
ATOM     26  C   UNL     1       7.228   6.298  17.424  0.00  0.00    +0.000 C 
BRANCH  26  28
ATOM     27  C   UNL     1       8.240   8.483  18.121  0.00  0.00    +0.000 C 
ATOM     28  C   UNL     1       7.489   7.762  17.279  0.00  0.00    +0.000 C 
ENDBRANCH  26  28
ENDBRANCH  22  26
ENDBRANCH  21  23
ENDBRANCH  20  21
ENDBRANCH   1  20
TORSDOF 6
ENDMDL
MODEL 7
REMARK VINA RESULT:      -8.0      3.530      5.466
REMARK  Name = 
REMARK  7 active torsions:
REMARK  status: ('A' for Active; 'I' for Inactive)
REMARK    1  A    between atoms: C_2  and  C_3
REMARK    2  A    between atoms: C_3  and  N_4
REMARK    3  A    between atoms: C_5  and  C_7
REMARK    4  A    between atoms: C_7  and  O_8
REMARK    5  A    between atoms: O_8  and  C_9
REMARK    6  A    between atoms: C_15  and  C_16
REMARK    7  A    between atoms: C_23  and  C_24
REMARK                            x       y       z     vdW  Elec       q    Type
REMARK                         _______ _______ _______ _____ _____    ______ ____
ROOT
ATOM      1  C   UNL     1       2.519   7.196  18.503  0.00  0.00    +0.000 A 
ATOM      2  C   UNL     1       2.445   8.242  17.579  0.00  0.00    +0.000 A 
ATOM      3  C   UNL     1       1.847   9.459  17.928  0.00  0.00    +0.000 A 
ATOM      4  C   UNL     1       1.332   9.632  19.217  0.00  0.00    +0.000 A 
ATOM      5  C   UNL     1       0.654  10.876  19.613  0.00  0.00    +0.000 A 
ATOM      6  O   UNL     1       0.572  11.819  18.838  0.00  0.00    +0.000 OA
ATOM      7  C   UNL     1       0.058  10.905  20.984  0.00  0.00    +0.000 A 
ATOM      8  C   UNL     1       0.268   9.846  21.797  0.00  0.00    +0.000 A 
ATOM      9  C   UNL     1      -0.253   9.709  23.201  0.00  0.00    +0.000 C 
ATOM     10  O   UNL     1       0.995   8.722  21.432  0.00  0.00    +0.000 OA
ATOM     11  C   UNL     1       1.443   8.608  20.147  0.00  0.00    +0.000 A 
ATOM     12  C   UNL     1       2.037   7.391  19.798  0.00  0.00    +0.000 A 
ENDROOT
BRANCH   7  13
ATOM     13  C   UNL     1      -0.766  12.052  21.402  0.00  0.00    +0.000 A 
ATOM     14  C   UNL     1      -2.135  12.101  21.103  0.00  0.00    +0.000 A 
ATOM     15  C   UNL     1      -2.887  13.234  21.432  0.00  0.00    +0.000 A 
ATOM     16  C   UNL     1      -2.274  14.315  22.064  0.00  0.00    +0.000 A 
ATOM     17 CL   UNL     1      -3.193  15.721  22.439  0.00  0.00    +0.000 Cl
ATOM     18  C   UNL     1      -0.919  14.271  22.382  0.00  0.00    +0.000 A 
ATOM     19  C   UNL     1      -0.166  13.140  22.053  0.00  0.00    +0.000 A 
ENDBRANCH   7  13
BRANCH   1  20
ATOM     20  O   UNL     1       3.121   6.051  18.057  0.00  0.00    +0.000 OA
BRANCH  20  21
ATOM     21  C   UNL     1       4.512   5.935  18.361  0.00  0.00    +0.000 C 
BRANCH  21  23
ATOM     22  N   UNL     1       3.755   3.859  19.426  0.00  0.00    +0.000 N 
ATOM     23  C   UNL     1       4.841   4.630  19.087  0.00  0.00    +0.000 C 
ATOM     24  O   UNL     1       6.004   4.307  19.322  0.00  0.00    +0.000 OA
ATOM     25  H   UNL     1       2.831   4.235  19.244  0.00  0.00    +0.000 HD
BRANCH  22  26
ATOM     26  C   UNL     1       3.887   2.634  20.173  0.00  0.00    +0.000 C 
BRANCH  26  28
ATOM     27  C   UNL     1       2.089   3.597  21.631  0.00  0.00    +0.000 C 
ATOM     28  C   UNL     1       2.741   2.540  21.127  0.00  0.00    +0.000 C 
ENDBRANCH  26  28
ENDBRANCH  22  26
ENDBRANCH  21  23
ENDBRANCH  20  21
ENDBRANCH   1  20
TORSDOF 6
ENDMDL
MODEL 8
REMARK VINA RESULT:      -8.0      2.459      4.392
REMARK  Name = 
REMARK  7 active torsions:
REMARK  status: ('A' for Active; 'I' for Inactive)
REMARK    1  A    between atoms: C_2  and  C_3
REMARK    2  A    between atoms: C_3  and  N_4
REMARK    3  A    between atoms: C_5  and  C_7
REMARK    4  A    between atoms: C_7  and  O_8
REMARK    5  A    between atoms: O_8  and  C_9
REMARK    6  A    between atoms: C_15  and  C_16
REMARK    7  A    between atoms: C_23  and  C_24
REMARK                            x       y       z     vdW  Elec       q    Type
REMARK                         _______ _______ _______ _____ _____    ______ ____
ROOT
ATOM      1  C   UNL     1       2.559   6.806  18.871  0.00  0.00    +0.000 A 
ATOM      2  C   UNL     1       2.572   7.769  17.859  0.00  0.00    +0.000 A 
ATOM      3  C   UNL     1       2.000   9.029  18.070  0.00  0.00    +0.000 A 
ATOM      4  C   UNL     1       1.423   9.329  19.307  0.00  0.00    +0.000 A 
ATOM      5  C   UNL     1       0.768  10.623  19.558  0.00  0.00    +0.000 A 
ATOM      6  O   UNL     1       0.762  11.498  18.702  0.00  0.00    +0.000 OA
ATOM      7  C   UNL     1       0.101  10.789  20.885  0.00  0.00    +0.000 A 
ATOM      8  C   UNL     1       0.229   9.799  21.795  0.00  0.00    +0.000 A 
ATOM      9  C   UNL     1      -0.372   9.800  23.174  0.00  0.00    +0.000 C 
ATOM     10  O   UNL     1       0.934   8.625  21.569  0.00  0.00    +0.000 OA
ATOM     11  C   UNL     1       1.447   8.387  20.325  0.00  0.00    +0.000 A 
ATOM     12  C   UNL     1       2.015   7.126  20.115  0.00  0.00    +0.000 A 
ENDROOT
BRANCH   7  13
ATOM     13  C   UNL     1      -0.703  11.993  21.157  0.00  0.00    +0.000 A 
ATOM     14  C   UNL     1      -2.027  12.091  20.707  0.00  0.00    +0.000 A 
ATOM     15  C   UNL     1      -2.750  13.272  20.898  0.00  0.00    +0.000 A 
ATOM     16  C   UNL     1      -2.154  14.355  21.545  0.00  0.00    +0.000 A 
ATOM     17 CL   UNL     1      -3.034  15.819  21.752  0.00  0.00    +0.000 Cl
ATOM     18  C   UNL     1      -0.845  14.263  22.012  0.00  0.00    +0.000 A 
ATOM     19  C   UNL     1      -0.121  13.084  21.820  0.00  0.00    +0.000 A 
ENDBRANCH   7  13
BRANCH   1  20
ATOM     20  O   UNL     1       3.143   5.608  18.558  0.00  0.00    +0.000 OA
BRANCH  20  21
ATOM     21  C   UNL     1       4.293   5.270  19.334  0.00  0.00    +0.000 C 
BRANCH  21  23
ATOM     22  N   UNL     1       5.199   4.734  17.119  0.00  0.00    +0.000 N 
ATOM     23  C   UNL     1       5.445   4.756  18.470  0.00  0.00    +0.000 C 
ATOM     24  O   UNL     1       6.514   4.411  18.973  0.00  0.00    +0.000 OA
ATOM     25  H   UNL     1       4.268   4.982  16.802  0.00  0.00    +0.000 HD
BRANCH  22  26
ATOM     26  C   UNL     1       6.155   4.215  16.173  0.00  0.00    +0.000 C 
BRANCH  26  28
ATOM     27  C   UNL     1       6.141   3.887  13.688  0.00  0.00    +0.000 C 
ATOM     28  C   UNL     1       5.613   4.422  14.797  0.00  0.00    +0.000 C 
ENDBRANCH  26  28
ENDBRANCH  22  26
ENDBRANCH  21  23
ENDBRANCH  20  21
ENDBRANCH   1  20
TORSDOF 6
ENDMDL
MODEL 9
REMARK VINA RESULT:      -8.0      4.633      8.277
REMARK  Name = 
REMARK  7 active torsions:
REMARK  status: ('A' for Active; 'I' for Inactive)
REMARK    1  A    between atoms: C_2  and  C_3
REMARK    2  A    between atoms: C_3  and  N_4
REMARK    3  A    between atoms: C_5  and  C_7
REMARK    4  A    between atoms: C_7  and  O_8
REMARK    5  A    between atoms: O_8  and  C_9
REMARK    6  A    between atoms: C_15  and  C_16
REMARK    7  A    between atoms: C_23  and  C_24
REMARK                            x       y       z     vdW  Elec       q    Type
REMARK                         _______ _______ _______ _____ _____    ______ ____
ROOT
ATOM      1  C   UNL     1       0.459  11.250  19.724  0.00  0.00    +0.000 A 
ATOM      2  C   UNL     1       0.043  10.446  20.788  0.00  0.00    +0.000 A 
ATOM      3  C   UNL     1       0.478   9.120  20.891  0.00  0.00    +0.000 A 
ATOM      4  C   UNL     1       1.345   8.600  19.925  0.00  0.00    +0.000 A 
ATOM      5  C   UNL     1       1.790   7.198  19.965  0.00  0.00    +0.000 A 
ATOM      6  O   UNL     1       1.456   6.460  20.883  0.00  0.00    +0.000 OA
ATOM      7  C   UNL     1       2.637   6.731  18.825  0.00  0.00    +0.000 A 
ATOM      8  C   UNL     1       3.020   7.638  17.899  0.00  0.00    +0.000 A 
ATOM      9  C   UNL     1       3.869   7.344  16.693  0.00  0.00    +0.000 C 
ATOM     10  O   UNL     1       2.666   8.979  17.934  0.00  0.00    +0.000 OA
ATOM     11  C   UNL     1       1.791   9.410  18.891  0.00  0.00    +0.000 A 
ATOM     12  C   UNL     1       1.354  10.735  18.786  0.00  0.00    +0.000 A 
ENDROOT
BRANCH   7  13
ATOM     13  C   UNL     1       2.997   5.308  18.713  0.00  0.00    +0.000 A 
ATOM     14  C   UNL     1       2.169   4.407  18.027  0.00  0.00    +0.000 A 
ATOM     15  C   UNL     1       2.480   3.044  18.001  0.00  0.00    +0.000 A 
ATOM     16  C   UNL     1       3.622   2.580  18.653  0.00  0.00    +0.000 A 
ATOM     17 CL   UNL     1       3.988   0.898  18.647  0.00  0.00    +0.000 Cl
ATOM     18  C   UNL     1       4.462   3.467  19.322  0.00  0.00    +0.000 A 
ATOM     19  C   UNL     1       4.151   4.829  19.350  0.00  0.00    +0.000 A 
ENDBRANCH   7  13
BRANCH   1  20
ATOM     20  O   UNL     1      -0.027  12.529  19.720  0.00  0.00    +0.000 OA
BRANCH  20  21
ATOM     21  C   UNL     1      -0.700  12.922  18.522  0.00  0.00    +0.000 C 
BRANCH  21  23
ATOM     22  N   UNL     1      -1.655  11.187  17.076  0.00  0.00    +0.000 N 
ATOM     23  C   UNL     1      -1.859  11.987  18.174  0.00  0.00    +0.000 C 
ATOM     24  O   UNL     1      -2.882  11.959  18.856  0.00  0.00    +0.000 OA
ATOM     25  H   UNL     1      -0.805  11.322  16.541  0.00  0.00    +0.000 HD
BRANCH  22  26
ATOM     26  C   UNL     1      -2.674  10.299  16.575  0.00  0.00    +0.000 C 
BRANCH  26  28
ATOM     27  C   UNL     1      -3.454  10.079  14.203  0.00  0.00    +0.000 C 
ATOM     28  C   UNL     1      -3.162  10.836  15.269  0.00  0.00    +0.000 C 
ENDBRANCH  26  28
ENDBRANCH  22  26
ENDBRANCH  21  23
ENDBRANCH  20  21
ENDBRANCH   1  20
TORSDOF 6
ENDMDL
