MODEL 1
REMARK VINA RESULT:      -8.9      0.000      0.000
REMARK  Name = 
REMARK  5 active torsions:
REMARK  status: ('A' for Active; 'I' for Inactive)
REMARK    1  A    between atoms: C_2  and  C_3
REMARK    2  A    between atoms: C_3  and  C_4
REMARK    3  A    between atoms: C_4  and  N_5
REMARK    4  A    between atoms: C_10  and  S_11
REMARK    5  A    between atoms: S_11  and  N_14
REMARK                            x       y       z     vdW  Elec       q    Type
REMARK                         _______ _______ _______ _____ _____    ______ ____
ROOT
ATOM      1  N   UNL     1       1.476   9.260  19.615  0.00  0.00    +0.000 N 
ATOM      2  C   UNL     1       1.689   9.790  18.375  0.00  0.00    +0.000 A 
ATOM      3  N   UNL     1       2.104   8.877  17.524  0.00  0.00    +0.000 NA
ATOM      4  C   UNL     1       2.178   7.711  18.249  0.00  0.00    +0.000 A 
ATOM      5  C   UNL     1       2.588   6.432  17.844  0.00  0.00    +0.000 A 
ATOM      6  C   UNL     1       2.608   5.406  18.802  0.00  0.00    +0.000 A 
ATOM      7  C   UNL     1       2.163   5.628  20.111  0.00  0.00    +0.000 A 
ATOM      8  C   UNL     1       1.744   6.898  20.523  0.00  0.00    +0.000 A 
ATOM      9  C   UNL     1       1.778   7.920  19.567  0.00  0.00    +0.000 A 
ENDROOT
BRANCH   6  10
ATOM     10  S   UNL     1       3.102   3.758  18.303  0.00  0.00    +0.000 S 
ATOM     11  O   UNL     1       3.113   2.940  19.499  0.00  0.00    +0.000 OA
ATOM     12  O   UNL     1       2.295   3.395  17.161  0.00  0.00    +0.000 OA
BRANCH  10  13
ATOM     13  N   UNL     1       4.730   3.944  17.772  0.00  0.00    +0.000 NA
ATOM     14  C   UNL     1       4.885   4.159  16.310  0.00  0.00    +0.000 C 
ATOM     15  C   UNL     1       6.340   4.284  15.879  0.00  0.00    +0.000 C 
ATOM     16  C   UNL     1       7.085   5.300  16.729  0.00  0.00    +0.000 C 
ATOM     17  C   UNL     1       7.026   4.862  18.181  0.00  0.00    +0.000 C 
ATOM     18  C   UNL     1       5.587   4.757  18.671  0.00  0.00    +0.000 C 
ENDBRANCH  10  13
ENDBRANCH   6  10
BRANCH   1  19
ATOM     19  C   UNL     1       1.097  10.010  20.793  0.00  0.00    +0.000 C 
BRANCH  19  20
ATOM     20  C   UNL     1      -0.332  10.536  20.733  0.00  0.00    +0.000 C 
BRANCH  20  22
ATOM     21  O   UNL     1      -0.173  10.605  23.111  0.00  0.00    +0.000 OA
ATOM     22  C   UNL     1      -0.729  11.033  22.106  0.00  0.00    +0.000 C 
ATOM     23  N   UNL     1      -1.739  11.976  22.172  0.00  0.00    +0.000 N 
ATOM     24  C   UNL     1      -2.477  12.558  21.026  0.00  0.00    +0.000 C 
ATOM     25  C   UNL     1      -4.003  12.647  21.302  0.00  0.00    +0.000 C 
ATOM     26  N   UNL     1      -4.170  13.312  22.591  0.00  0.00    +0.000 N 
ATOM     27  C   UNL     1      -5.137  14.258  22.814  0.00  0.00    +0.000 A 
ATOM     28  C   UNL     1      -4.890  15.265  23.755  0.00  0.00    +0.000 A 
ATOM     29  C   UNL     1      -5.859  16.217  24.038  0.00  0.00    +0.000 A 
ATOM     30  C   UNL     1      -7.068  16.154  23.368  0.00  0.00    +0.000 A 
ATOM     31  C   UNL     1      -7.231  15.154  22.422  0.00  0.00    +0.000 A 
ATOM     32  N   UNL     1      -6.291  14.226  22.119  0.00  0.00    +0.000 NA
ATOM     33  C   UNL     1      -3.562  12.618  23.726  0.00  0.00    +0.000 C 
ATOM     34  C   UNL     1      -2.049  12.568  23.484  0.00  0.00    +0.000 C 
ENDBRANCH  20  22
ENDBRANCH  19  20
ENDBRANCH   1  19
TORSDOF 5
ENDMDL
MODEL 2
REMARK VINA RESULT:      -8.8      7.716     10.237
REMARK  Name = 
REMARK  5 active torsions:
REMARK  status: ('A' for Active; 'I' for Inactive)
REMARK    1  A    between atoms: C_2  and  C_3
REMARK    2  A    between atoms: C_3  and  C_4
REMARK    3  A    between atoms: C_4  and  N_5
REMARK    4  A    between atoms: C_10  and  S_11
REMARK    5  A    between atoms: S_11  and  N_14
REMARK                            x       y       z     vdW  Elec       q    Type
REMARK                         _______ _______ _______ _____ _____    ______ ____
ROOT
ATOM      1  N   UNL     1       7.637   7.080  17.947  0.00  0.00    +0.000 N 
ATOM      2  C   UNL     1       8.198   6.576  19.085  0.00  0.00    +0.000 A 
ATOM      3  N   UNL     1       7.556   5.507  19.506  0.00  0.00    +0.000 NA
ATOM      4  C   UNL     1       6.529   5.324  18.611  0.00  0.00    +0.000 A 
ATOM      5  C   UNL     1       5.521   4.348  18.597  0.00  0.00    +0.000 A 
ATOM      6  C   UNL     1       4.555   4.404  17.580  0.00  0.00    +0.000 A 
ATOM      7  C   UNL     1       4.630   5.364  16.562  0.00  0.00    +0.000 A 
ATOM      8  C   UNL     1       5.636   6.336  16.563  0.00  0.00    +0.000 A 
ATOM      9  C   UNL     1       6.561   6.293  17.613  0.00  0.00    +0.000 A 
ENDROOT
BRANCH   6  10
ATOM     10  S   UNL     1       3.274   3.153  17.524  0.00  0.00    +0.000 S 
ATOM     11  O   UNL     1       2.390   3.502  16.430  0.00  0.00    +0.000 OA
ATOM     12  O   UNL     1       3.929   1.866  17.570  0.00  0.00    +0.000 OA
BRANCH  10  13
ATOM     13  N   UNL     1       2.407   3.367  18.997  0.00  0.00    +0.000 NA
ATOM     14  C   UNL     1       2.715   2.364  20.049  0.00  0.00    +0.000 C 
ATOM     15  C   UNL     1       1.902   2.568  21.321  0.00  0.00    +0.000 C 
ATOM     16  C   UNL     1       1.982   4.006  21.805  0.00  0.00    +0.000 C 
ATOM     17  C   UNL     1       1.450   4.921  20.716  0.00  0.00    +0.000 C 
ATOM     18  C   UNL     1       2.256   4.778  19.430  0.00  0.00    +0.000 C 
ENDBRANCH  10  13
ENDBRANCH   6  10
BRANCH   1  19
ATOM     19  C   UNL     1       8.051   8.294  17.276  0.00  0.00    +0.000 C 
BRANCH  19  20
ATOM     20  C   UNL     1       7.621   9.559  18.009  0.00  0.00    +0.000 C 
BRANCH  20  22
ATOM     21  O   UNL     1       9.630   9.630  19.291  0.00  0.00    +0.000 OA
ATOM     22  C   UNL     1       8.849  10.241  18.571  0.00  0.00    +0.000 C 
ATOM     23  N   UNL     1       9.044  11.570  18.240  0.00  0.00    +0.000 N 
ATOM     24  C   UNL     1       8.165  12.402  17.383  0.00  0.00    +0.000 C 
ATOM     25  C   UNL     1       7.944  13.819  17.981  0.00  0.00    +0.000 C 
ATOM     26  N   UNL     1       9.261  14.367  18.292  0.00  0.00    +0.000 N 
ATOM     27  C   UNL     1       9.597  15.672  18.037  0.00  0.00    +0.000 A 
ATOM     28  C   UNL     1      10.934  15.980  17.755  0.00  0.00    +0.000 A 
ATOM     29  C   UNL     1      11.320  17.293  17.531  0.00  0.00    +0.000 A 
ATOM     30  C   UNL     1      10.360  18.287  17.587  0.00  0.00    +0.000 A 
ATOM     31  C   UNL     1       9.050  17.907  17.833  0.00  0.00    +0.000 A 
ATOM     32  N   UNL     1       8.649  16.629  18.037  0.00  0.00    +0.000 NA
ATOM     33  C   UNL     1      10.033  13.599  19.268  0.00  0.00    +0.000 C 
ATOM     34  C   UNL     1      10.297  12.214  18.667  0.00  0.00    +0.000 C 
ENDBRANCH  20  22
ENDBRANCH  19  20
ENDBRANCH   1  19
TORSDOF 5
ENDMDL
MODEL 3
REMARK VINA RESULT:      -8.8      2.698     12.269
REMARK  Name = 
REMARK  5 active torsions:
REMARK  status: ('A' for Active; 'I' for Inactive)
REMARK    1  A    between atoms: C_2  and  C_3
REMARK    2  A    between atoms: C_3  and  C_4
REMARK    3  A    between atoms: C_4  and  N_5
REMARK    4  A    between atoms: C_10  and  S_11
REMARK    5  A    between atoms: S_11  and  N_14
REMARK                            x       y       z     vdW  Elec       q    Type
REMARK                         _______ _______ _______ _____ _____    ______ ____
ROOT
ATOM      1  N   UNL     1       1.720   8.005  19.508  0.00  0.00    +0.000 N 
ATOM      2  C   UNL     1       1.975   8.413  18.230  0.00  0.00    +0.000 A 
ATOM      3  N   UNL     1       1.618   9.665  18.042  0.00  0.00    +0.000 NA
ATOM      4  C   UNL     1       1.095  10.077  19.244  0.00  0.00    +0.000 A 
ATOM      5  C   UNL     1       0.539  11.317  19.598  0.00  0.00    +0.000 A 
ATOM      6  C   UNL     1       0.034  11.472  20.898  0.00  0.00    +0.000 A 
ATOM      7  C   UNL     1       0.141  10.445  21.845  0.00  0.00    +0.000 A 
ATOM      8  C   UNL     1       0.700   9.208  21.505  0.00  0.00    +0.000 A 
ATOM      9  C   UNL     1       1.154   9.057  20.189  0.00  0.00    +0.000 A 
ENDROOT
BRANCH   6  10
ATOM     10  S   UNL     1      -0.656  13.053  21.383  0.00  0.00    +0.000 S 
ATOM     11  O   UNL     1       0.147  13.545  22.484  0.00  0.00    +0.000 OA
ATOM     12  O   UNL     1      -0.826  13.834  20.178  0.00  0.00    +0.000 OA
BRANCH  10  13
ATOM     13  N   UNL     1      -2.218  12.666  21.995  0.00  0.00    +0.000 NA
ATOM     14  C   UNL     1      -2.370  12.837  23.463  0.00  0.00    +0.000 C 
ATOM     15  C   UNL     1      -3.755  12.451  23.966  0.00  0.00    +0.000 C 
ATOM     16  C   UNL     1      -4.848  13.126  23.156  0.00  0.00    +0.000 C 
ATOM     17  C   UNL     1      -4.707  12.712  21.701  0.00  0.00    +0.000 C 
ATOM     18  C   UNL     1      -3.348  13.109  21.140  0.00  0.00    +0.000 C 
ENDBRANCH  10  13
ENDBRANCH   6  10
BRANCH   1  19
ATOM     19  C   UNL     1       1.918   6.664  20.015  0.00  0.00    +0.000 C 
BRANCH  19  20
ATOM     20  C   UNL     1       3.371   6.210  19.954  0.00  0.00    +0.000 C 
BRANCH  20  22
ATOM     21  O   UNL     1       3.011   3.876  19.627  0.00  0.00    +0.000 OA
ATOM     22  C   UNL     1       3.449   4.922  19.163  0.00  0.00    +0.000 C 
ATOM     23  N   UNL     1       4.033   4.981  17.910  0.00  0.00    +0.000 N 
ATOM     24  C   UNL     1       4.594   6.187  17.257  0.00  0.00    +0.000 C 
ATOM     25  C   UNL     1       5.955   5.893  16.565  0.00  0.00    +0.000 C 
ATOM     26  N   UNL     1       5.764   4.719  15.718  0.00  0.00    +0.000 N 
ATOM     27  C   UNL     1       6.295   4.625  14.457  0.00  0.00    +0.000 A 
ATOM     28  C   UNL     1       5.622   3.858  13.499  0.00  0.00    +0.000 A 
ATOM     29  C   UNL     1       6.149   3.705  12.224  0.00  0.00    +0.000 A 
ATOM     30  C   UNL     1       7.345   4.328  11.920  0.00  0.00    +0.000 A 
ATOM     31  C   UNL     1       7.939   5.104  12.905  0.00  0.00    +0.000 A 
ATOM     32  N   UNL     1       7.432   5.280  14.149  0.00  0.00    +0.000 NA
ATOM     33  C   UNL     1       5.365   3.505  16.427  0.00  0.00    +0.000 C 
ATOM     34  C   UNL     1       4.001   3.770  17.074  0.00  0.00    +0.000 C 
ENDBRANCH  20  22
ENDBRANCH  19  20
ENDBRANCH   1  19
TORSDOF 5
ENDMDL
MODEL 4
REMARK VINA RESULT:      -8.7      1.652      2.053
REMARK  Name = 
REMARK  5 active torsions:
REMARK  status: ('A' for Active; 'I' for Inactive)
REMARK    1  A    between atoms: C_2  and  C_3
REMARK    2  A    between atoms: C_3  and  C_4
REMARK    3  A    between atoms: C_4  and  N_5
REMARK    4  A    between atoms: C_10  and  S_11
REMARK    5  A    between atoms: S_11  and  N_14
REMARK                            x       y       z     vdW  Elec       q    Type
REMARK                         _______ _______ _______ _____ _____    ______ ____
ROOT
ATOM      1  N   UNL     1       1.296   9.381  19.480  0.00  0.00    +0.000 N 
ATOM      2  C   UNL     1       1.615   9.888  18.253  0.00  0.00    +0.000 A 
ATOM      3  N   UNL     1       2.209   8.988  17.499  0.00  0.00    +0.000 NA
ATOM      4  C   UNL     1       2.291   7.858  18.278  0.00  0.00    +0.000 A 
ATOM      5  C   UNL     1       2.856   6.609  17.981  0.00  0.00    +0.000 A 
ATOM      6  C   UNL     1       2.845   5.620  18.978  0.00  0.00    +0.000 A 
ATOM      7  C   UNL     1       2.224   5.844  20.213  0.00  0.00    +0.000 A 
ATOM      8  C   UNL     1       1.651   7.084  20.516  0.00  0.00    +0.000 A 
ATOM      9  C   UNL     1       1.716   8.073  19.527  0.00  0.00    +0.000 A 
ENDROOT
BRANCH   6  10
ATOM     10  S   UNL     1       3.536   4.008  18.614  0.00  0.00    +0.000 S 
ATOM     11  O   UNL     1       3.405   3.211  19.818  0.00  0.00    +0.000 OA
ATOM     12  O   UNL     1       2.962   3.567  17.363  0.00  0.00    +0.000 OA
BRANCH  10  13
ATOM     13  N   UNL     1       5.211   4.311  18.358  0.00  0.00    +0.000 NA
ATOM     14  C   UNL     1       5.613   4.408  16.931  0.00  0.00    +0.000 C 
ATOM     15  C   UNL     1       7.107   4.642  16.749  0.00  0.00    +0.000 C 
ATOM     16  C   UNL     1       7.595   5.801  17.601  0.00  0.00    +0.000 C 
ATOM     17  C   UNL     1       7.308   5.492  19.060  0.00  0.00    +0.000 C 
ATOM     18  C   UNL     1       5.818   5.284  19.300  0.00  0.00    +0.000 C 
ENDBRANCH  10  13
ENDBRANCH   6  10
BRANCH   1  19
ATOM     19  C   UNL     1       0.712  10.132  20.570  0.00  0.00    +0.000 C 
BRANCH  19  20
ATOM     20  C   UNL     1       0.961  11.632  20.465  0.00  0.00    +0.000 C 
BRANCH  20  22
ATOM     21  O   UNL     1      -0.104  12.874  18.730  0.00  0.00    +0.000 OA
ATOM     22  C   UNL     1      -0.231  12.280  19.794  0.00  0.00    +0.000 C 
ATOM     23  N   UNL     1      -1.454  12.175  20.433  0.00  0.00    +0.000 N 
ATOM     24  C   UNL     1      -1.718  11.484  21.718  0.00  0.00    +0.000 C 
ATOM     25  C   UNL     1      -2.652  12.315  22.642  0.00  0.00    +0.000 C 
ATOM     26  N   UNL     1      -3.819  12.693  21.850  0.00  0.00    +0.000 N 
ATOM     27  C   UNL     1      -5.095  12.655  22.352  0.00  0.00    +0.000 A 
ATOM     28  C   UNL     1      -6.156  12.407  21.473  0.00  0.00    +0.000 A 
ATOM     29  C   UNL     1      -7.465  12.401  21.935  0.00  0.00    +0.000 A 
ATOM     30  C   UNL     1      -7.696  12.639  23.278  0.00  0.00    +0.000 A 
ATOM     31  C   UNL     1      -6.597  12.839  24.098  0.00  0.00    +0.000 A 
ATOM     32  N   UNL     1      -5.311  12.831  23.670  0.00  0.00    +0.000 NA
ATOM     33  C   UNL     1      -3.528  13.513  20.675  0.00  0.00    +0.000 C 
ATOM     34  C   UNL     1      -2.646  12.683  19.735  0.00  0.00    +0.000 C 
ENDBRANCH  20  22
ENDBRANCH  19  20
ENDBRANCH   1  19
TORSDOF 5
ENDMDL
MODEL 5
REMARK VINA RESULT:      -8.6      2.624      4.481
REMARK  Name = 
REMARK  5 active torsions:
REMARK  status: ('A' for Active; 'I' for Inactive)
REMARK    1  A    between atoms: C_2  and  C_3
REMARK    2  A    between atoms: C_3  and  C_4
REMARK    3  A    between atoms: C_4  and  N_5
REMARK    4  A    between atoms: C_10  and  S_11
REMARK    5  A    between atoms: S_11  and  N_14
REMARK                            x       y       z     vdW  Elec       q    Type
REMARK                         _______ _______ _______ _____ _____    ______ ____
ROOT
ATOM      1  N   UNL     1       2.519   5.015  19.862  0.00  0.00    +0.000 N 
ATOM      2  C   UNL     1       2.806   3.795  20.404  0.00  0.00    +0.000 A 
ATOM      3  N   UNL     1       3.939   3.314  19.938  0.00  0.00    +0.000 NA
ATOM      4  C   UNL     1       4.393   4.255  19.045  0.00  0.00    +0.000 A 
ATOM      5  C   UNL     1       5.543   4.241  18.242  0.00  0.00    +0.000 A 
ATOM      6  C   UNL     1       5.762   5.324  17.375  0.00  0.00    +0.000 A 
ATOM      7  C   UNL     1       4.897   6.426  17.359  0.00  0.00    +0.000 A 
ATOM      8  C   UNL     1       3.752   6.453  18.162  0.00  0.00    +0.000 A 
ATOM      9  C   UNL     1       3.525   5.342  18.983  0.00  0.00    +0.000 A 
ENDROOT
BRANCH   6  10
ATOM     10  S   UNL     1       7.237   5.343  16.358  0.00  0.00    +0.000 S 
ATOM     11  O   UNL     1       7.746   6.700  16.377  0.00  0.00    +0.000 OA
ATOM     12  O   UNL     1       8.062   4.233  16.778  0.00  0.00    +0.000 OA
BRANCH  10  13
ATOM     13  N   UNL     1       6.662   5.012  14.769  0.00  0.00    +0.000 NA
ATOM     14  C   UNL     1       7.709   5.027  13.715  0.00  0.00    +0.000 C 
ATOM     15  C   UNL     1       7.152   4.764  12.321  0.00  0.00    +0.000 C 
ATOM     16  C   UNL     1       6.279   3.522  12.298  0.00  0.00    +0.000 C 
ATOM     17  C   UNL     1       5.129   3.712  13.271  0.00  0.00    +0.000 C 
ATOM     18  C   UNL     1       5.635   3.943  14.690  0.00  0.00    +0.000 C 
ENDBRANCH  10  13
ENDBRANCH   6  10
BRANCH   1  19
ATOM     19  C   UNL     1       1.310   5.774  20.099  0.00  0.00    +0.000 C 
BRANCH  19  20
ATOM     20  C   UNL     1       1.514   6.936  21.064  0.00  0.00    +0.000 C 
BRANCH  20  22
ATOM     21  O   UNL     1       1.981   8.512  19.337  0.00  0.00    +0.000 OA
ATOM     22  C   UNL     1       1.301   8.235  20.318  0.00  0.00    +0.000 C 
ATOM     23  N   UNL     1       0.317   9.085  20.792  0.00  0.00    +0.000 N 
ATOM     24  C   UNL     1      -0.557   8.850  21.965  0.00  0.00    +0.000 C 
ATOM     25  C   UNL     1      -0.705  10.124  22.843  0.00  0.00    +0.000 C 
ATOM     26  N   UNL     1      -1.082  11.220  21.955  0.00  0.00    +0.000 N 
ATOM     27  C   UNL     1      -2.031  12.150  22.294  0.00  0.00    +0.000 A 
ATOM     28  C   UNL     1      -2.784  12.745  21.274  0.00  0.00    +0.000 A 
ATOM     29  C   UNL     1      -3.725  13.721  21.572  0.00  0.00    +0.000 A 
ATOM     30  C   UNL     1      -3.906  14.088  22.893  0.00  0.00    +0.000 A 
ATOM     31  C   UNL     1      -3.153  13.432  23.855  0.00  0.00    +0.000 A 
ATOM     32  N   UNL     1      -2.243  12.464  23.587  0.00  0.00    +0.000 NA
ATOM     33  C   UNL     1      -0.111  11.525  20.906  0.00  0.00    +0.000 C 
ATOM     34  C   UNL     1       0.005  10.289  20.006  0.00  0.00    +0.000 C 
ENDBRANCH  20  22
ENDBRANCH  19  20
ENDBRANCH   1  19
TORSDOF 5
ENDMDL
MODEL 6
REMARK VINA RESULT:      -8.6      3.078     12.096
REMARK  Name = 
REMARK  5 active torsions:
REMARK  status: ('A' for Active; 'I' for Inactive)
REMARK    1  A    between atoms: C_2  and  C_3
REMARK    2  A    between atoms: C_3  and  C_4
REMARK    3  A    between atoms: C_4  and  N_5
REMARK    4  A    between atoms: C_10  and  S_11
REMARK    5  A    between atoms: S_11  and  N_14
REMARK                            x       y       z     vdW  Elec       q    Type
REMARK                         _______ _______ _______ _____ _____    ______ ____
ROOT
ATOM      1  N   UNL     1       1.929   8.023  19.161  0.00  0.00    +0.000 N 
ATOM      2  C   UNL     1       2.438   8.458  17.971  0.00  0.00    +0.000 A 
ATOM      3  N   UNL     1       2.061   9.689  17.705  0.00  0.00    +0.000 NA
ATOM      4  C   UNL     1       1.260  10.060  18.760  0.00  0.00    +0.000 A 
ATOM      5  C   UNL     1       0.570  11.262  18.977  0.00  0.00    +0.000 A 
ATOM      6  C   UNL     1      -0.220  11.376  20.132  0.00  0.00    +0.000 A 
ATOM      7  C   UNL     1      -0.267  10.347  21.082  0.00  0.00    +0.000 A 
ATOM      8  C   UNL     1       0.424   9.147  20.878  0.00  0.00    +0.000 A 
ATOM      9  C   UNL     1       1.167   9.035  19.697  0.00  0.00    +0.000 A 
ENDROOT
BRANCH   6  10
ATOM     10  S   UNL     1      -1.089  12.910  20.446  0.00  0.00    +0.000 S 
ATOM     11  O   UNL     1      -1.363  12.957  21.869  0.00  0.00    +0.000 OA
ATOM     12  O   UNL     1      -0.346  13.965  19.795  0.00  0.00    +0.000 OA
BRANCH  10  13
ATOM     13  N   UNL     1      -2.590  12.725  19.622  0.00  0.00    +0.000 NA
ATOM     14  C   UNL     1      -2.620  11.622  18.627  0.00  0.00    +0.000 C 
ATOM     15  C   UNL     1      -3.954  11.516  17.898  0.00  0.00    +0.000 C 
ATOM     16  C   UNL     1      -5.119  11.492  18.872  0.00  0.00    +0.000 C 
ATOM     17  C   UNL     1      -5.096  12.768  19.696  0.00  0.00    +0.000 C 
ATOM     18  C   UNL     1      -3.793  12.902  20.475  0.00  0.00    +0.000 C 
ENDBRANCH  10  13
ENDBRANCH   6  10
BRANCH   1  19
ATOM     19  C   UNL     1       2.085   6.691  19.704  0.00  0.00    +0.000 C 
BRANCH  19  20
ATOM     20  C   UNL     1       3.542   6.260  19.818  0.00  0.00    +0.000 C 
BRANCH  20  22
ATOM     21  O   UNL     1       3.401   3.886  19.638  0.00  0.00    +0.000 OA
ATOM     22  C   UNL     1       3.720   4.940  19.100  0.00  0.00    +0.000 C 
ATOM     23  N   UNL     1       4.257   4.978  17.825  0.00  0.00    +0.000 N 
ATOM     24  C   UNL     1       4.678   6.191  17.084  0.00  0.00    +0.000 C 
ATOM     25  C   UNL     1       6.039   5.987  16.361  0.00  0.00    +0.000 C 
ATOM     26  N   UNL     1       5.937   4.752  15.589  0.00  0.00    +0.000 N 
ATOM     27  C   UNL     1       6.436   4.634  14.317  0.00  0.00    +0.000 A 
ATOM     28  C   UNL     1       5.811   3.750  13.429  0.00  0.00    +0.000 A 
ATOM     29  C   UNL     1       6.311   3.571  12.147  0.00  0.00    +0.000 A 
ATOM     30  C   UNL     1       7.431   4.287  11.765  0.00  0.00    +0.000 A 
ATOM     31  C   UNL     1       7.976   5.172  12.682  0.00  0.00    +0.000 A 
ATOM     32  N   UNL     1       7.493   5.374  13.932  0.00  0.00    +0.000 NA
ATOM     33  C   UNL     1       5.680   3.550  16.381  0.00  0.00    +0.000 C 
ATOM     34  C   UNL     1       4.316   3.722  17.060  0.00  0.00    +0.000 C 
ENDBRANCH  20  22
ENDBRANCH  19  20
ENDBRANCH   1  19
TORSDOF 5
ENDMDL
MODEL 7
REMARK VINA RESULT:      -8.5      0.610      1.074
REMARK  Name = 
REMARK  5 active torsions:
REMARK  status: ('A' for Active; 'I' for Inactive)
REMARK    1  A    between atoms: C_2  and  C_3
REMARK    2  A    between atoms: C_3  and  C_4
REMARK    3  A    between atoms: C_4  and  N_5
REMARK    4  A    between atoms: C_10  and  S_11
REMARK    5  A    between atoms: S_11  and  N_14
REMARK                            x       y       z     vdW  Elec       q    Type
REMARK                         _______ _______ _______ _____ _____    ______ ____
ROOT
ATOM      1  N   UNL     1       1.241   9.132  20.015  0.00  0.00    +0.000 N 
ATOM      2  C   UNL     1       1.407   9.854  18.868  0.00  0.00    +0.000 A 
ATOM      3  N   UNL     1       1.970   9.134  17.922  0.00  0.00    +0.000 NA
ATOM      4  C   UNL     1       2.192   7.901  18.487  0.00  0.00    +0.000 A 
ATOM      5  C   UNL     1       2.792   6.760  17.933  0.00  0.00    +0.000 A 
ATOM      6  C   UNL     1       2.934   5.623  18.744  0.00  0.00    +0.000 A 
ATOM      7  C   UNL     1       2.429   5.597  20.051  0.00  0.00    +0.000 A 
ATOM      8  C   UNL     1       1.822   6.727  20.610  0.00  0.00    +0.000 A 
ATOM      9  C   UNL     1       1.734   7.867  19.801  0.00  0.00    +0.000 A 
ENDROOT
BRANCH   6  10
ATOM     10  S   UNL     1       3.672   4.145  18.052  0.00  0.00    +0.000 S 
ATOM     11  O   UNL     1       4.366   3.473  19.132  0.00  0.00    +0.000 OA
ATOM     12  O   UNL     1       2.646   3.468  17.292  0.00  0.00    +0.000 OA
BRANCH  10  13
ATOM     13  N   UNL     1       4.854   4.737  16.948  0.00  0.00    +0.000 NA
ATOM     14  C   UNL     1       6.064   5.316  17.585  0.00  0.00    +0.000 C 
ATOM     15  C   UNL     1       7.067   5.858  16.574  0.00  0.00    +0.000 C 
ATOM     16  C   UNL     1       7.374   4.835  15.495  0.00  0.00    +0.000 C 
ATOM     17  C   UNL     1       6.084   4.472  14.780  0.00  0.00    +0.000 C 
ATOM     18  C   UNL     1       5.060   3.890  15.746  0.00  0.00    +0.000 C 
ENDBRANCH  10  13
ENDBRANCH   6  10
BRANCH   1  19
ATOM     19  C   UNL     1       0.729   9.651  21.265  0.00  0.00    +0.000 C 
BRANCH  19  20
ATOM     20  C   UNL     1      -0.572  10.429  21.101  0.00  0.00    +0.000 C 
BRANCH  20  22
ATOM     21  O   UNL     1      -0.406  10.665  23.469  0.00  0.00    +0.000 OA
ATOM     22  C   UNL     1      -0.949  11.038  22.434  0.00  0.00    +0.000 C 
ATOM     23  N   UNL     1      -1.925  12.018  22.431  0.00  0.00    +0.000 N 
ATOM     24  C   UNL     1      -2.644  12.539  21.244  0.00  0.00    +0.000 C 
ATOM     25  C   UNL     1      -4.166  12.702  21.513  0.00  0.00    +0.000 C 
ATOM     26  N   UNL     1      -4.308  13.464  22.749  0.00  0.00    +0.000 N 
ATOM     27  C   UNL     1      -5.241  14.458  22.901  0.00  0.00    +0.000 A 
ATOM     28  C   UNL     1      -4.957  15.521  23.766  0.00  0.00    +0.000 A 
ATOM     29  C   UNL     1      -5.892  16.524  23.978  0.00  0.00    +0.000 A 
ATOM     30  C   UNL     1      -7.104  16.454  23.314  0.00  0.00    +0.000 A 
ATOM     31  C   UNL     1      -7.304  15.394  22.444  0.00  0.00    +0.000 A 
ATOM     32  N   UNL     1      -6.397  14.414  22.210  0.00  0.00    +0.000 NA
ATOM     33  C   UNL     1      -3.722  12.835  23.932  0.00  0.00    +0.000 C 
ATOM     34  C   UNL     1      -2.212  12.714  23.696  0.00  0.00    +0.000 C 
ENDBRANCH  20  22
ENDBRANCH  19  20
ENDBRANCH   1  19
TORSDOF 5
ENDMDL
MODEL 8
REMARK VINA RESULT:      -8.5      4.088     11.975
REMARK  Name = 
REMARK  5 active torsions:
REMARK  status: ('A' for Active; 'I' for Inactive)
REMARK    1  A    between atoms: C_2  and  C_3
REMARK    2  A    between atoms: C_3  and  C_4
REMARK    3  A    between atoms: C_4  and  N_5
REMARK    4  A    between atoms: C_10  and  S_11
REMARK    5  A    between atoms: S_11  and  N_14
REMARK                            x       y       z     vdW  Elec       q    Type
REMARK                         _______ _______ _______ _____ _____    ______ ____
ROOT
ATOM      1  N   UNL     1       1.862   7.883  19.101  0.00  0.00    +0.000 N 
ATOM      2  C   UNL     1       2.153   8.271  17.824  0.00  0.00    +0.000 A 
ATOM      3  N   UNL     1       1.848   9.534  17.622  0.00  0.00    +0.000 NA
ATOM      4  C   UNL     1       1.323   9.976  18.813  0.00  0.00    +0.000 A 
ATOM      5  C   UNL     1       0.811  11.239  19.149  0.00  0.00    +0.000 A 
ATOM      6  C   UNL     1       0.292  11.424  20.441  0.00  0.00    +0.000 A 
ATOM      7  C   UNL     1       0.345  10.401  21.396  0.00  0.00    +0.000 A 
ATOM      8  C   UNL     1       0.861   9.141  21.073  0.00  0.00    +0.000 A 
ATOM      9  C   UNL     1       1.328   8.961  19.766  0.00  0.00    +0.000 A 
ENDROOT
BRANCH   6  10
ATOM     10  S   UNL     1      -0.342  13.034  20.903  0.00  0.00    +0.000 S 
ATOM     11  O   UNL     1      -1.730  13.077  20.487  0.00  0.00    +0.000 OA
ATOM     12  O   UNL     1       0.030  13.262  22.281  0.00  0.00    +0.000 OA
BRANCH  10  13
ATOM     13  N   UNL     1       0.542  14.138  19.920  0.00  0.00    +0.000 NA
ATOM     14  C   UNL     1      -0.221  15.339  19.496  0.00  0.00    +0.000 C 
ATOM     15  C   UNL     1       0.587  16.271  18.600  0.00  0.00    +0.000 C 
ATOM     16  C   UNL     1       1.940  16.590  19.211  0.00  0.00    +0.000 C 
ATOM     17  C   UNL     1       2.707  15.294  19.410  0.00  0.00    +0.000 C 
ATOM     18  C   UNL     1       1.954  14.341  20.330  0.00  0.00    +0.000 C 
ENDBRANCH  10  13
ENDBRANCH   6  10
BRANCH   1  19
ATOM     19  C   UNL     1       2.000   6.540  19.620  0.00  0.00    +0.000 C 
BRANCH  19  20
ATOM     20  C   UNL     1       3.452   6.123  19.823  0.00  0.00    +0.000 C 
BRANCH  20  22
ATOM     21  O   UNL     1       3.411   3.745  19.644  0.00  0.00    +0.000 OA
ATOM     22  C   UNL     1       3.689   4.811  19.107  0.00  0.00    +0.000 C 
ATOM     23  N   UNL     1       4.232   4.871  17.835  0.00  0.00    +0.000 N 
ATOM     24  C   UNL     1       4.606   6.100  17.096  0.00  0.00    +0.000 C 
ATOM     25  C   UNL     1       5.978   5.953  16.381  0.00  0.00    +0.000 C 
ATOM     26  N   UNL     1       5.933   4.714  15.610  0.00  0.00    +0.000 N 
ATOM     27  C   UNL     1       6.444   4.615  14.341  0.00  0.00    +0.000 A 
ATOM     28  C   UNL     1       5.862   3.705  13.450  0.00  0.00    +0.000 A 
ATOM     29  C   UNL     1       6.376   3.547  12.171  0.00  0.00    +0.000 A 
ATOM     30  C   UNL     1       7.468   4.308  11.795  0.00  0.00    +0.000 A 
ATOM     31  C   UNL     1       7.970   5.217  12.714  0.00  0.00    +0.000 A 
ATOM     32  N   UNL     1       7.472   5.399  13.961  0.00  0.00    +0.000 NA
ATOM     33  C   UNL     1       5.721   3.502  16.401  0.00  0.00    +0.000 C 
ATOM     34  C   UNL     1       4.348   3.618  17.072  0.00  0.00    +0.000 C 
ENDBRANCH  20  22
ENDBRANCH  19  20
ENDBRANCH   1  19
TORSDOF 5
ENDMDL
MODEL 9
REMARK VINA RESULT:      -8.5      1.426      1.934
REMARK  Name = 
REMARK  5 active torsions:
REMARK  status: ('A' for Active; 'I' for Inactive)
REMARK    1  A    between atoms: C_2  and  C_3
REMARK    2  A    between atoms: C_3  and  C_4
REMARK    3  A    between atoms: C_4  and  N_5
REMARK    4  A    between atoms: C_10  and  S_11
REMARK    5  A    between atoms: S_11  and  N_14
REMARK                            x       y       z     vdW  Elec       q    Type
REMARK                         _______ _______ _______ _____ _____    ______ ____
ROOT
ATOM      1  N   UNL     1       1.388   9.613  19.371  0.00  0.00    +0.000 N 
ATOM      2  C   UNL     1       1.677  10.041  18.106  0.00  0.00    +0.000 A 
ATOM      3  N   UNL     1       2.205   9.080  17.380  0.00  0.00    +0.000 NA
ATOM      4  C   UNL     1       2.277   7.991  18.216  0.00  0.00    +0.000 A 
ATOM      5  C   UNL     1       2.783   6.706  17.965  0.00  0.00    +0.000 A 
ATOM      6  C   UNL     1       2.774   5.772  19.014  0.00  0.00    +0.000 A 
ATOM      7  C   UNL     1       2.212   6.086  20.259  0.00  0.00    +0.000 A 
ATOM      8  C   UNL     1       1.698   7.361  20.515  0.00  0.00    +0.000 A 
ATOM      9  C   UNL     1       1.760   8.293  19.472  0.00  0.00    +0.000 A 
ENDROOT
BRANCH   6  10
ATOM     10  S   UNL     1       3.389   4.117  18.713  0.00  0.00    +0.000 S 
ATOM     11  O   UNL     1       3.281   3.392  19.963  0.00  0.00    +0.000 OA
ATOM     12  O   UNL     1       2.746   3.632  17.513  0.00  0.00    +0.000 OA
BRANCH  10  13
ATOM     13  N   UNL     1       5.062   4.341  18.371  0.00  0.00    +0.000 NA
ATOM     14  C   UNL     1       5.401   4.377  16.925  0.00  0.00    +0.000 C 
ATOM     15  C   UNL     1       6.893   4.542  16.668  0.00  0.00    +0.000 C 
ATOM     16  C   UNL     1       7.467   5.705  17.460  0.00  0.00    +0.000 C 
ATOM     17  C   UNL     1       7.236   5.453  18.939  0.00  0.00    +0.000 C 
ATOM     18  C   UNL     1       5.752   5.316  19.253  0.00  0.00    +0.000 C 
ENDBRANCH  10  13
ENDBRANCH   6  10
BRANCH   1  19
ATOM     19  C   UNL     1       0.876  10.442  20.440  0.00  0.00    +0.000 C 
BRANCH  19  20
ATOM     20  C   UNL     1      -0.607  10.220  20.712  0.00  0.00    +0.000 C 
BRANCH  20  22
ATOM     21  O   UNL     1      -1.449  11.585  18.947  0.00  0.00    +0.000 OA
ATOM     22  C   UNL     1      -1.388  11.391  20.156  0.00  0.00    +0.000 C 
ATOM     23  N   UNL     1      -2.017  12.223  21.065  0.00  0.00    +0.000 N 
ATOM     24  C   UNL     1      -2.006  12.083  22.540  0.00  0.00    +0.000 C 
ATOM     25  C   UNL     1      -1.787  13.447  23.252  0.00  0.00    +0.000 C 
ATOM     26  N   UNL     1      -2.755  14.386  22.692  0.00  0.00    +0.000 N 
ATOM     27  C   UNL     1      -3.446  15.283  23.466  0.00  0.00    +0.000 A 
ATOM     28  C   UNL     1      -4.723  15.682  23.055  0.00  0.00    +0.000 A 
ATOM     29  C   UNL     1      -5.438  16.618  23.789  0.00  0.00    +0.000 A 
ATOM     30  C   UNL     1      -4.865  17.142  24.934  0.00  0.00    +0.000 A 
ATOM     31  C   UNL     1      -3.614  16.674  25.303  0.00  0.00    +0.000 A 
ATOM     32  N   UNL     1      -2.908  15.748  24.610  0.00  0.00    +0.000 NA
ATOM     33  C   UNL     1      -2.626  14.620  21.254  0.00  0.00    +0.000 C 
ATOM     34  C   UNL     1      -2.888  13.288  20.541  0.00  0.00    +0.000 C 
ENDBRANCH  20  22
ENDBRANCH  19  20
ENDBRANCH   1  19
TORSDOF 5
ENDMDL
