MODEL 1
REMARK VINA RESULT:      -8.0      0.000      0.000
REMARK  Name = 
REMARK  6 active torsions:
REMARK  status: ('A' for Active; 'I' for Inactive)
REMARK    1  A    between atoms: C_1  and  O_2
REMARK    2  A    between atoms: O_2  and  C_3
REMARK    3  A    between atoms: C_12  and  C_14
REMARK    4  A    between atoms: C_14  and  C_15
REMARK    5  A    between atoms: C_15  and  N_16
REMARK    6  A    between atoms: C_17  and  C_18
REMARK                            x       y       z     vdW  Elec       q    Type
REMARK                         _______ _______ _______ _____ _____    ______ ____
ROOT
ATOM      1  C   UNL     1      -1.329  11.320  19.382  0.00  0.00    +0.000 C 
ATOM      2  C   UNL     1      -1.195  12.373  18.265  0.00  0.00    +0.000 C 
ATOM      3  C   UNL     1      -0.096  13.375  18.625  0.00  0.00    +0.000 C 
ATOM      4  C   UNL     1       1.207  12.689  19.012  0.00  0.00    +0.000 C 
ATOM      5  O   UNL     1       1.032  11.643  19.972  0.00  0.00    +0.000 OA
ATOM      6  C   UNL     1       0.067  10.634  19.608  0.00  0.00    +0.000 C 
ATOM      7  C   UNL     1       0.518   9.892  18.318  0.00  0.00    +0.000 C 
ATOM      8  C   UNL     1       1.880   9.248  18.518  0.00  0.00    +0.000 C 
ATOM      9  N   UNL     1       1.773   8.241  19.559  0.00  0.00    +0.000 N 
ATOM     10  C   UNL     1       1.961   6.872  19.368  0.00  0.00    +0.000 C 
ATOM     11  O   UNL     1       1.847   6.050  20.268  0.00  0.00    +0.000 OA
ATOM     12  C   UNL     1       1.373   8.780  20.857  0.00  0.00    +0.000 C 
ATOM     13  C   UNL     1       0.061   9.575  20.748  0.00  0.00    +0.000 C 
ENDROOT
BRANCH   1  15
ATOM     14  C   UNL     1      -3.169  12.581  20.378  0.00  0.00    +0.000 C 
ATOM     15  O   UNL     1      -1.848  12.097  20.473  0.00  0.00    +0.000 OA
ENDBRANCH   1  15
BRANCH  10  16
ATOM     16  C   UNL     1       2.296   6.460  17.946  0.00  0.00    +0.000 C 
BRANCH  16  17
ATOM     17  C   UNL     1       2.767   5.021  17.832  0.00  0.00    +0.000 C 
BRANCH  17  18
ATOM     18  N   UNL     1       4.107   4.862  18.379  0.00  0.00    +0.000 N 
ATOM     19  C   UNL     1       4.532   3.900  19.273  0.00  0.00    +0.000 A 
ATOM     20  C   UNL     1       3.665   2.893  19.936  0.00  0.00    +0.000 C 
ATOM     21  N   UNL     1       5.833   3.988  19.469  0.00  0.00    +0.000 NA
ATOM     22  C   UNL     1       6.254   5.062  18.734  0.00  0.00    +0.000 A 
ATOM     23  C   UNL     1       7.547   5.590  18.597  0.00  0.00    +0.000 A 
ATOM     24  C   UNL     1       7.726   6.734  17.814  0.00  0.00    +0.000 A 
ATOM     25  C   UNL     1       6.639   7.343  17.183  0.00  0.00    +0.000 A 
ATOM     26  C   UNL     1       5.343   6.818  17.295  0.00  0.00    +0.000 A 
ATOM     27  C   UNL     1       5.190   5.662  18.072  0.00  0.00    +0.000 A 
ENDBRANCH  17  18
ENDBRANCH  16  17
ENDBRANCH  10  16
TORSDOF 4
ENDMDL
MODEL 2
REMARK VINA RESULT:      -7.6      2.757      8.626
REMARK  Name = 
REMARK  6 active torsions:
REMARK  status: ('A' for Active; 'I' for Inactive)
REMARK    1  A    between atoms: C_1  and  O_2
REMARK    2  A    between atoms: O_2  and  C_3
REMARK    3  A    between atoms: C_12  and  C_14
REMARK    4  A    between atoms: C_14  and  C_15
REMARK    5  A    between atoms: C_15  and  N_16
REMARK    6  A    between atoms: C_17  and  C_18
REMARK                            x       y       z     vdW  Elec       q    Type
REMARK                         _______ _______ _______ _____ _____    ______ ____
ROOT
ATOM      1  C   UNL     1       1.190   3.300  19.245  0.00  0.00    +0.000 C 
ATOM      2  C   UNL     1       0.804   2.772  20.640  0.00  0.00    +0.000 C 
ATOM      3  C   UNL     1       2.063   2.574  21.488  0.00  0.00    +0.000 C 
ATOM      4  C   UNL     1       2.951   3.812  21.499  0.00  0.00    +0.000 C 
ATOM      5  O   UNL     1       3.201   4.341  20.194  0.00  0.00    +0.000 OA
ATOM      6  C   UNL     1       2.021   4.623  19.412  0.00  0.00    +0.000 C 
ATOM      7  C   UNL     1       1.161   5.717  20.105  0.00  0.00    +0.000 C 
ATOM      8  C   UNL     1       1.965   6.993  20.296  0.00  0.00    +0.000 C 
ATOM      9  N   UNL     1       2.327   7.516  18.990  0.00  0.00    +0.000 N 
ATOM     10  C   UNL     1       1.889   8.733  18.468  0.00  0.00    +0.000 C 
ATOM     11  O   UNL     1       2.203   9.136  17.356  0.00  0.00    +0.000 OA
ATOM     12  C   UNL     1       3.164   6.610  18.207  0.00  0.00    +0.000 C 
ATOM     13  C   UNL     1       2.503   5.229  18.062  0.00  0.00    +0.000 C 
ENDROOT
BRANCH   1  15
ATOM     14  C   UNL     1       2.547   2.358  17.445  0.00  0.00    +0.000 C 
ATOM     15  O   UNL     1       1.878   2.176  18.673  0.00  0.00    +0.000 OA
ENDBRANCH   1  15
BRANCH  10  16
ATOM     16  C   UNL     1       0.961   9.526  19.372  0.00  0.00    +0.000 C 
BRANCH  16  17
ATOM     17  C   UNL     1       0.723  10.946  18.892  0.00  0.00    +0.000 C 
BRANCH  17  18
ATOM     18  N   UNL     1      -0.678  11.319  19.027  0.00  0.00    +0.000 N 
ATOM     19  C   UNL     1      -1.238  12.110  20.011  0.00  0.00    +0.000 A 
ATOM     20  C   UNL     1      -0.522  12.654  21.192  0.00  0.00    +0.000 C 
ATOM     21  N   UNL     1      -2.515  12.326  19.764  0.00  0.00    +0.000 NA
ATOM     22  C   UNL     1      -2.806  11.617  18.631  0.00  0.00    +0.000 A 
ATOM     23  C   UNL     1      -4.025  11.504  17.945  0.00  0.00    +0.000 A 
ATOM     24  C   UNL     1      -4.090  10.676  16.820  0.00  0.00    +0.000 A 
ATOM     25  C   UNL     1      -2.963   9.973  16.389  0.00  0.00    +0.000 A 
ATOM     26  C   UNL     1      -1.733  10.090  17.051  0.00  0.00    +0.000 A 
ATOM     27  C   UNL     1      -1.688  10.936  18.167  0.00  0.00    +0.000 A 
ENDBRANCH  17  18
ENDBRANCH  16  17
ENDBRANCH  10  16
TORSDOF 4
ENDMDL
MODEL 3
REMARK VINA RESULT:      -7.4      1.441      1.709
REMARK  Name = 
REMARK  6 active torsions:
REMARK  status: ('A' for Active; 'I' for Inactive)
REMARK    1  A    between atoms: C_1  and  O_2
REMARK    2  A    between atoms: O_2  and  C_3
REMARK    3  A    between atoms: C_12  and  C_14
REMARK    4  A    between atoms: C_14  and  C_15
REMARK    5  A    between atoms: C_15  and  N_16
REMARK    6  A    between atoms: C_17  and  C_18
REMARK                            x       y       z     vdW  Elec       q    Type
REMARK                         _______ _______ _______ _____ _____    ______ ____
ROOT
ATOM      1  C   UNL     1      -1.700  11.251  18.818  0.00  0.00    +0.000 C 
ATOM      2  C   UNL     1      -1.309  12.230  17.694  0.00  0.00    +0.000 C 
ATOM      3  C   UNL     1      -0.469  13.372  18.269  0.00  0.00    +0.000 C 
ATOM      4  C   UNL     1       0.698  12.866  19.105  0.00  0.00    +0.000 C 
ATOM      5  O   UNL     1       0.318  11.878  20.067  0.00  0.00    +0.000 OA
ATOM      6  C   UNL     1      -0.395  10.744  19.531  0.00  0.00    +0.000 C 
ATOM      7  C   UNL     1       0.502   9.967  18.525  0.00  0.00    +0.000 C 
ATOM      8  C   UNL     1       1.780   9.495  19.198  0.00  0.00    +0.000 C 
ATOM      9  N   UNL     1       1.435   8.559  20.253  0.00  0.00    +0.000 N 
ATOM     10  C   UNL     1       1.788   7.211  20.271  0.00  0.00    +0.000 C 
ATOM     11  O   UNL     1       1.465   6.447  21.172  0.00  0.00    +0.000 OA
ATOM     12  C   UNL     1       0.601   9.141  21.303  0.00  0.00    +0.000 C 
ATOM     13  C   UNL     1      -0.671   9.775  20.716  0.00  0.00    +0.000 C 
ENDROOT
BRANCH   1  15
ATOM     14  C   UNL     1      -3.947  12.128  19.205  0.00  0.00    +0.000 C 
ATOM     15  O   UNL     1      -2.600  12.042  19.611  0.00  0.00    +0.000 OA
ENDBRANCH   1  15
BRANCH  10  16
ATOM     16  C   UNL     1       2.588   6.738  19.070  0.00  0.00    +0.000 C 
BRANCH  16  17
ATOM     17  C   UNL     1       3.605   5.663  19.411  0.00  0.00    +0.000 C 
BRANCH  17  18
ATOM     18  N   UNL     1       3.922   4.851  18.244  0.00  0.00    +0.000 N 
ATOM     19  C   UNL     1       3.168   3.822  17.717  0.00  0.00    +0.000 A 
ATOM     20  C   UNL     1       1.922   3.274  18.309  0.00  0.00    +0.000 C 
ATOM     21  N   UNL     1       3.704   3.378  16.597  0.00  0.00    +0.000 NA
ATOM     22  C   UNL     1       4.858   4.091  16.422  0.00  0.00    +0.000 A 
ATOM     23  C   UNL     1       5.803   4.007  15.389  0.00  0.00    +0.000 A 
ATOM     24  C   UNL     1       6.939   4.820  15.448  0.00  0.00    +0.000 A 
ATOM     25  C   UNL     1       7.131   5.697  16.518  0.00  0.00    +0.000 A 
ATOM     26  C   UNL     1       6.188   5.807  17.549  0.00  0.00    +0.000 A 
ATOM     27  C   UNL     1       5.050   4.993  17.461  0.00  0.00    +0.000 A 
ENDBRANCH  17  18
ENDBRANCH  16  17
ENDBRANCH  10  16
TORSDOF 4
ENDMDL
MODEL 4
REMARK VINA RESULT:      -7.3      1.080      1.101
REMARK  Name = 
REMARK  6 active torsions:
REMARK  status: ('A' for Active; 'I' for Inactive)
REMARK    1  A    between atoms: C_1  and  O_2
REMARK    2  A    between atoms: O_2  and  C_3
REMARK    3  A    between atoms: C_12  and  C_14
REMARK    4  A    between atoms: C_14  and  C_15
REMARK    5  A    between atoms: C_15  and  N_16
REMARK    6  A    between atoms: C_17  and  C_18
REMARK                            x       y       z     vdW  Elec       q    Type
REMARK                         _______ _______ _______ _____ _____    ______ ____
ROOT
ATOM      1  C   UNL     1      -1.107  11.613  20.817  0.00  0.00    +0.000 C 
ATOM      2  C   UNL     1      -0.957  12.758  19.798  0.00  0.00    +0.000 C 
ATOM      3  C   UNL     1       0.257  13.618  20.157  0.00  0.00    +0.000 C 
ATOM      4  C   UNL     1       1.514  12.783  20.365  0.00  0.00    +0.000 C 
ATOM      5  O   UNL     1       1.311  11.664  21.233  0.00  0.00    +0.000 OA
ATOM      6  C   UNL     1       0.228  10.787  20.859  0.00  0.00    +0.000 C 
ATOM      7  C   UNL     1       0.508  10.144  19.471  0.00  0.00    +0.000 C 
ATOM      8  C   UNL     1       1.812   9.364  19.493  0.00  0.00    +0.000 C 
ATOM      9  N   UNL     1       1.687   8.269  20.439  0.00  0.00    +0.000 N 
ATOM     10  C   UNL     1       1.727   6.916  20.104  0.00  0.00    +0.000 C 
ATOM     11  O   UNL     1       1.603   6.019  20.928  0.00  0.00    +0.000 OA
ATOM     12  C   UNL     1       1.440   8.706  21.811  0.00  0.00    +0.000 C 
ATOM     13  C   UNL     1       0.207   9.622  21.890  0.00  0.00    +0.000 C 
ENDROOT
BRANCH   1  15
ATOM     14  C   UNL     1      -2.578  11.862  22.752  0.00  0.00    +0.000 C 
ATOM     15  O   UNL     1      -1.465  12.318  22.017  0.00  0.00    +0.000 OA
ENDBRANCH   1  15
BRANCH  10  16
ATOM     16  C   UNL     1       1.912   6.623  18.625  0.00  0.00    +0.000 C 
BRANCH  16  17
ATOM     17  C   UNL     1       2.205   5.162  18.334  0.00  0.00    +0.000 C 
BRANCH  17  18
ATOM     18  N   UNL     1       3.591   4.833  18.637  0.00  0.00    +0.000 N 
ATOM     19  C   UNL     1       4.048   3.799  19.429  0.00  0.00    +0.000 A 
ATOM     20  C   UNL     1       3.194   2.874  20.217  0.00  0.00    +0.000 C 
ATOM     21  N   UNL     1       5.364   3.733  19.397  0.00  0.00    +0.000 NA
ATOM     22  C   UNL     1       5.775   4.778  18.616  0.00  0.00    +0.000 A 
ATOM     23  C   UNL     1       7.078   5.161  18.263  0.00  0.00    +0.000 A 
ATOM     24  C   UNL     1       7.254   6.304  17.478  0.00  0.00    +0.000 A 
ATOM     25  C   UNL     1       6.154   7.053  17.056  0.00  0.00    +0.000 A 
ATOM     26  C   UNL     1       4.844   6.674  17.384  0.00  0.00    +0.000 A 
ATOM     27  C   UNL     1       4.691   5.517  18.158  0.00  0.00    +0.000 A 
ENDBRANCH  17  18
ENDBRANCH  16  17
ENDBRANCH  10  16
TORSDOF 4
ENDMDL
MODEL 5
REMARK VINA RESULT:      -7.3      2.123      3.282
REMARK  Name = 
REMARK  6 active torsions:
REMARK  status: ('A' for Active; 'I' for Inactive)
REMARK    1  A    between atoms: C_1  and  O_2
REMARK    2  A    between atoms: O_2  and  C_3
REMARK    3  A    between atoms: C_12  and  C_14
REMARK    4  A    between atoms: C_14  and  C_15
REMARK    5  A    between atoms: C_15  and  N_16
REMARK    6  A    between atoms: C_17  and  C_18
REMARK                            x       y       z     vdW  Elec       q    Type
REMARK                         _______ _______ _______ _____ _____    ______ ____
ROOT
ATOM      1  C   UNL     1      -0.542  12.621  22.338  0.00  0.00    +0.000 C 
ATOM      2  C   UNL     1      -1.844  12.107  22.982  0.00  0.00    +0.000 C 
ATOM      3  C   UNL     1      -3.051  12.624  22.197  0.00  0.00    +0.000 C 
ATOM      4  C   UNL     1      -2.929  12.350  20.704  0.00  0.00    +0.000 C 
ATOM      5  O   UNL     1      -1.666  12.741  20.159  0.00  0.00    +0.000 OA
ATOM      6  C   UNL     1      -0.513  12.187  20.828  0.00  0.00    +0.000 C 
ATOM      7  C   UNL     1      -0.512  10.637  20.712  0.00  0.00    +0.000 C 
ATOM      8  C   UNL     1      -0.511  10.207  19.254  0.00  0.00    +0.000 C 
ATOM      9  N   UNL     1       0.716  10.670  18.631  0.00  0.00    +0.000 N 
ATOM     10  C   UNL     1       1.714   9.840  18.121  0.00  0.00    +0.000 C 
ATOM     11  O   UNL     1       2.745  10.267  17.616  0.00  0.00    +0.000 OA
ATOM     12  C   UNL     1       0.864  12.123  18.637  0.00  0.00    +0.000 C 
ATOM     13  C   UNL     1       0.745  12.689  20.062  0.00  0.00    +0.000 C 
ENDROOT
BRANCH   1  15
ATOM     14  C   UNL     1      -1.077  14.454  23.862  0.00  0.00    +0.000 C 
ATOM     15  O   UNL     1      -0.608  14.032  22.601  0.00  0.00    +0.000 OA
ENDBRANCH   1  15
BRANCH  10  16
ATOM     16  C   UNL     1       1.449   8.352  18.260  0.00  0.00    +0.000 C 
BRANCH  16  17
ATOM     17  C   UNL     1       2.315   7.682  19.311  0.00  0.00    +0.000 C 
BRANCH  17  18
ATOM     18  N   UNL     1       2.761   6.369  18.867  0.00  0.00    +0.000 N 
ATOM     19  C   UNL     1       2.373   5.143  19.371  0.00  0.00    +0.000 A 
ATOM     20  C   UNL     1       1.492   4.934  20.548  0.00  0.00    +0.000 C 
ATOM     21  N   UNL     1       2.893   4.162  18.661  0.00  0.00    +0.000 NA
ATOM     22  C   UNL     1       3.680   4.756  17.714  0.00  0.00    +0.000 A 
ATOM     23  C   UNL     1       4.458   4.162  16.709  0.00  0.00    +0.000 A 
ATOM     24  C   UNL     1       5.221   4.985  15.874  0.00  0.00    +0.000 A 
ATOM     25  C   UNL     1       5.210   6.371  16.039  0.00  0.00    +0.000 A 
ATOM     26  C   UNL     1       4.424   6.982  17.027  0.00  0.00    +0.000 A 
ATOM     27  C   UNL     1       3.657   6.140  17.841  0.00  0.00    +0.000 A 
ENDBRANCH  17  18
ENDBRANCH  16  17
ENDBRANCH  10  16
TORSDOF 4
ENDMDL
MODEL 6
REMARK VINA RESULT:      -7.2      2.788      8.446
REMARK  Name = 
REMARK  6 active torsions:
REMARK  status: ('A' for Active; 'I' for Inactive)
REMARK    1  A    between atoms: C_1  and  O_2
REMARK    2  A    between atoms: O_2  and  C_3
REMARK    3  A    between atoms: C_12  and  C_14
REMARK    4  A    between atoms: C_14  and  C_15
REMARK    5  A    between atoms: C_15  and  N_16
REMARK    6  A    between atoms: C_17  and  C_18
REMARK                            x       y       z     vdW  Elec       q    Type
REMARK                         _______ _______ _______ _____ _____    ______ ____
ROOT
ATOM      1  C   UNL     1       1.478   3.380  19.126  0.00  0.00    +0.000 C 
ATOM      2  C   UNL     1       0.881   2.805  20.425  0.00  0.00    +0.000 C 
ATOM      3  C   UNL     1       1.961   2.735  21.507  0.00  0.00    +0.000 C 
ATOM      4  C   UNL     1       2.695   4.059  21.675  0.00  0.00    +0.000 C 
ATOM      5  O   UNL     1       3.142   4.619  20.438  0.00  0.00    +0.000 OA
ATOM      6  C   UNL     1       2.118   4.781  19.434  0.00  0.00    +0.000 C 
ATOM      7  C   UNL     1       1.028   5.775  19.928  0.00  0.00    +0.000 C 
ATOM      8  C   UNL     1       1.642   7.126  20.254  0.00  0.00    +0.000 C 
ATOM      9  N   UNL     1       2.199   7.693  19.039  0.00  0.00    +0.000 N 
ATOM     10  C   UNL     1       1.748   8.860  18.423  0.00  0.00    +0.000 C 
ATOM     11  O   UNL     1       2.233   9.300  17.388  0.00  0.00    +0.000 OA
ATOM     12  C   UNL     1       3.263   6.884  18.449  0.00  0.00    +0.000 C 
ATOM     13  C   UNL     1       2.791   5.442  18.197  0.00  0.00    +0.000 C 
ENDROOT
BRANCH   1  15
ATOM     14  C   UNL     1       2.709   2.240  17.350  0.00  0.00    +0.000 C 
ATOM     15  O   UNL     1       2.378   2.337  18.717  0.00  0.00    +0.000 OA
ENDBRANCH   1  15
BRANCH  10  16
ATOM     16  C   UNL     1       0.583   9.546  19.114  0.00  0.00    +0.000 C 
BRANCH  16  17
ATOM     17  C   UNL     1       1.006  10.701  20.003  0.00  0.00    +0.000 C 
BRANCH  17  18
ATOM     18  N   UNL     1       0.170  10.783  21.193  0.00  0.00    +0.000 N 
ATOM     19  C   UNL     1       0.392  10.169  22.410  0.00  0.00    +0.000 A 
ATOM     20  C   UNL     1       1.488   9.214  22.708  0.00  0.00    +0.000 C 
ATOM     21  N   UNL     1      -0.511  10.547  23.293  0.00  0.00    +0.000 NA
ATOM     22  C   UNL     1      -1.369  11.377  22.626  0.00  0.00    +0.000 A 
ATOM     23  C   UNL     1      -2.505  12.047  23.104  0.00  0.00    +0.000 A 
ATOM     24  C   UNL     1      -3.259  12.815  22.211  0.00  0.00    +0.000 A 
ATOM     25  C   UNL     1      -2.889  12.911  20.868  0.00  0.00    +0.000 A 
ATOM     26  C   UNL     1      -1.746  12.263  20.378  0.00  0.00    +0.000 A 
ATOM     27  C   UNL     1      -0.998  11.511  21.293  0.00  0.00    +0.000 A 
ENDBRANCH  17  18
ENDBRANCH  16  17
ENDBRANCH  10  16
TORSDOF 4
ENDMDL
MODEL 7
REMARK VINA RESULT:      -7.2      2.690      8.270
REMARK  Name = 
REMARK  6 active torsions:
REMARK  status: ('A' for Active; 'I' for Inactive)
REMARK    1  A    between atoms: C_1  and  O_2
REMARK    2  A    between atoms: O_2  and  C_3
REMARK    3  A    between atoms: C_12  and  C_14
REMARK    4  A    between atoms: C_14  and  C_15
REMARK    5  A    between atoms: C_15  and  N_16
REMARK    6  A    between atoms: C_17  and  C_18
REMARK                            x       y       z     vdW  Elec       q    Type
REMARK                         _______ _______ _______ _____ _____    ______ ____
ROOT
ATOM      1  C   UNL     1       1.680   3.036  19.015  0.00  0.00    +0.000 C 
ATOM      2  C   UNL     1       0.866   2.630  20.259  0.00  0.00    +0.000 C 
ATOM      3  C   UNL     1       1.774   2.613  21.491  0.00  0.00    +0.000 C 
ATOM      4  C   UNL     1       2.566   3.905  21.642  0.00  0.00    +0.000 C 
ATOM      5  O   UNL     1       3.222   4.310  20.438  0.00  0.00    +0.000 OA
ATOM      6  C   UNL     1       2.364   4.425  19.282  0.00  0.00    +0.000 C 
ATOM      7  C   UNL     1       1.286   5.521  19.514  0.00  0.00    +0.000 C 
ATOM      8  C   UNL     1       1.939   6.864  19.801  0.00  0.00    +0.000 C 
ATOM      9  N   UNL     1       2.701   7.272  18.634  0.00  0.00    +0.000 N 
ATOM     10  C   UNL     1       2.424   8.393  17.852  0.00  0.00    +0.000 C 
ATOM     11  O   UNL     1       3.080   8.698  16.864  0.00  0.00    +0.000 OA
ATOM     12  C   UNL     1       3.780   6.350  18.286  0.00  0.00    +0.000 C 
ATOM     13  C   UNL     1       3.250   4.918  18.103  0.00  0.00    +0.000 C 
ENDROOT
BRANCH   1  15
ATOM     14  C   UNL     1       3.490   1.946  17.788  0.00  0.00    +0.000 C 
ATOM     15  O   UNL     1       2.556   1.910  18.843  0.00  0.00    +0.000 OA
ENDBRANCH   1  15
BRANCH  10  16
ATOM     16  C   UNL     1       1.222   9.208  18.296  0.00  0.00    +0.000 C 
BRANCH  16  17
ATOM     17  C   UNL     1       1.576  10.625  18.710  0.00  0.00    +0.000 C 
BRANCH  17  18
ATOM     18  N   UNL     1       0.591  11.163  19.638  0.00  0.00    +0.000 N 
ATOM     19  C   UNL     1      -0.258  12.231  19.424  0.00  0.00    +0.000 A 
ATOM     20  C   UNL     1      -0.255  13.109  18.226  0.00  0.00    +0.000 C 
ATOM     21  N   UNL     1      -1.088  12.375  20.437  0.00  0.00    +0.000 NA
ATOM     22  C   UNL     1      -0.738  11.422  21.352  0.00  0.00    +0.000 A 
ATOM     23  C   UNL     1      -1.303  11.148  22.607  0.00  0.00    +0.000 A 
ATOM     24  C   UNL     1      -0.740  10.138  23.393  0.00  0.00    +0.000 A 
ATOM     25  C   UNL     1       0.367   9.418  22.939  0.00  0.00    +0.000 A 
ATOM     26  C   UNL     1       0.932   9.666  21.680  0.00  0.00    +0.000 A 
ATOM     27  C   UNL     1       0.342  10.672  20.904  0.00  0.00    +0.000 A 
ENDBRANCH  17  18
ENDBRANCH  16  17
ENDBRANCH  10  16
TORSDOF 4
ENDMDL
MODEL 8
REMARK VINA RESULT:      -7.1      2.080      4.135
REMARK  Name = 
REMARK  6 active torsions:
REMARK  status: ('A' for Active; 'I' for Inactive)
REMARK    1  A    between atoms: C_1  and  O_2
REMARK    2  A    between atoms: O_2  and  C_3
REMARK    3  A    between atoms: C_12  and  C_14
REMARK    4  A    between atoms: C_14  and  C_15
REMARK    5  A    between atoms: C_15  and  N_16
REMARK    6  A    between atoms: C_17  and  C_18
REMARK                            x       y       z     vdW  Elec       q    Type
REMARK                         _______ _______ _______ _____ _____    ______ ____
ROOT
ATOM      1  C   UNL     1      -0.856  12.745  22.191  0.00  0.00    +0.000 C 
ATOM      2  C   UNL     1      -2.181  12.240  22.794  0.00  0.00    +0.000 C 
ATOM      3  C   UNL     1      -3.357  12.716  21.938  0.00  0.00    +0.000 C 
ATOM      4  C   UNL     1      -3.165  12.392  20.462  0.00  0.00    +0.000 C 
ATOM      5  O   UNL     1      -1.882  12.778  19.961  0.00  0.00    +0.000 OA
ATOM      6  C   UNL     1      -0.755  12.260  20.699  0.00  0.00    +0.000 C 
ATOM      7  C   UNL     1      -0.734  10.707  20.638  0.00  0.00    +0.000 C 
ATOM      8  C   UNL     1      -0.664  10.227  19.197  0.00  0.00    +0.000 C 
ATOM      9  N   UNL     1       0.585  10.682  18.614  0.00  0.00    +0.000 N 
ATOM     10  C   UNL     1       1.614   9.847  18.178  0.00  0.00    +0.000 C 
ATOM     11  O   UNL     1       2.662  10.267  17.704  0.00  0.00    +0.000 OA
ATOM     12  C   UNL     1       0.719  12.137  18.575  0.00  0.00    +0.000 C 
ATOM     13  C   UNL     1       0.530  12.750  19.973  0.00  0.00    +0.000 C 
ENDROOT
BRANCH   1  15
ATOM     14  C   UNL     1      -0.934  14.644  23.727  0.00  0.00    +0.000 C 
ATOM     15  O   UNL     1      -0.948  14.164  22.401  0.00  0.00    +0.000 OA
ENDBRANCH   1  15
BRANCH  10  16
ATOM     16  C   UNL     1       1.357   8.361  18.357  0.00  0.00    +0.000 C 
BRANCH  16  17
ATOM     17  C   UNL     1       2.246   7.719  19.407  0.00  0.00    +0.000 C 
BRANCH  17  18
ATOM     18  N   UNL     1       2.698   6.402  18.980  0.00  0.00    +0.000 N 
ATOM     19  C   UNL     1       3.647   6.120  18.017  0.00  0.00    +0.000 A 
ATOM     20  C   UNL     1       4.321   7.119  17.151  0.00  0.00    +0.000 C 
ATOM     21  N   UNL     1       3.884   4.824  17.963  0.00  0.00    +0.000 NA
ATOM     22  C   UNL     1       3.034   4.246  18.866  0.00  0.00    +0.000 A 
ATOM     23  C   UNL     1       2.880   2.891  19.196  0.00  0.00    +0.000 A 
ATOM     24  C   UNL     1       1.903   2.534  20.130  0.00  0.00    +0.000 A 
ATOM     25  C   UNL     1       1.095   3.506  20.722  0.00  0.00    +0.000 A 
ATOM     26  C   UNL     1       1.248   4.866  20.418  0.00  0.00    +0.000 A 
ATOM     27  C   UNL     1       2.242   5.203  19.490  0.00  0.00    +0.000 A 
ENDBRANCH  17  18
ENDBRANCH  16  17
ENDBRANCH  10  16
TORSDOF 4
ENDMDL
MODEL 9
REMARK VINA RESULT:      -7.0      2.493      8.628
REMARK  Name = 
REMARK  6 active torsions:
REMARK  status: ('A' for Active; 'I' for Inactive)
REMARK    1  A    between atoms: C_1  and  O_2
REMARK    2  A    between atoms: O_2  and  C_3
REMARK    3  A    between atoms: C_12  and  C_14
REMARK    4  A    between atoms: C_14  and  C_15
REMARK    5  A    between atoms: C_15  and  N_16
REMARK    6  A    between atoms: C_17  and  C_18
REMARK                            x       y       z     vdW  Elec       q    Type
REMARK                         _______ _______ _______ _____ _____    ______ ____
ROOT
ATOM      1  C   UNL     1       6.668   5.791  17.824  0.00  0.00    +0.000 C 
ATOM      2  C   UNL     1       6.985   5.505  16.343  0.00  0.00    +0.000 C 
ATOM      3  C   UNL     1       6.412   4.144  15.942  0.00  0.00    +0.000 C 
ATOM      4  C   UNL     1       4.943   4.003  16.316  0.00  0.00    +0.000 C 
ATOM      5  O   UNL     1       4.665   4.380  17.668  0.00  0.00    +0.000 OA
ATOM      6  C   UNL     1       5.114   5.700  18.040  0.00  0.00    +0.000 C 
ATOM      7  C   UNL     1       4.387   6.779  17.189  0.00  0.00    +0.000 C 
ATOM      8  C   UNL     1       2.881   6.682  17.371  0.00  0.00    +0.000 C 
ATOM      9  N   UNL     1       2.558   6.962  18.759  0.00  0.00    +0.000 N 
ATOM     10  C   UNL     1       1.810   8.053  19.200  0.00  0.00    +0.000 C 
ATOM     11  O   UNL     1       1.571   8.265  20.382  0.00  0.00    +0.000 OA
ATOM     12  C   UNL     1       3.153   6.017  19.701  0.00  0.00    +0.000 C 
ATOM     13  C   UNL     1       4.678   5.931  19.515  0.00  0.00    +0.000 C 
ENDROOT
BRANCH   1  15
ATOM     14  C   UNL     1       8.280   5.238  19.574  0.00  0.00    +0.000 C 
ATOM     15  O   UNL     1       7.470   4.811  18.502  0.00  0.00    +0.000 OA
ENDBRANCH   1  15
BRANCH  10  16
ATOM     16  C   UNL     1       1.327   8.988  18.106  0.00  0.00    +0.000 C 
BRANCH  16  17
ATOM     17  C   UNL     1       1.382  10.453  18.500  0.00  0.00    +0.000 C 
BRANCH  17  18
ATOM     18  N   UNL     1       0.073  10.935  18.917  0.00  0.00    +0.000 N 
ATOM     19  C   UNL     1      -0.217  11.704  20.027  0.00  0.00    +0.000 A 
ATOM     20  C   UNL     1       0.754  12.105  21.076  0.00  0.00    +0.000 C 
ATOM     21  N   UNL     1      -1.490  12.045  20.038  0.00  0.00    +0.000 NA
ATOM     22  C   UNL     1      -2.053  11.441  18.947  0.00  0.00    +0.000 A 
ATOM     23  C   UNL     1      -3.383  11.479  18.502  0.00  0.00    +0.000 A 
ATOM     24  C   UNL     1      -3.734  10.736  17.370  0.00  0.00    +0.000 A 
ATOM     25  C   UNL     1      -2.780   9.970  16.698  0.00  0.00    +0.000 A 
ATOM     26  C   UNL     1      -1.443   9.936  17.119  0.00  0.00    +0.000 A 
ATOM     27  C   UNL     1      -1.111  10.698  18.246  0.00  0.00    +0.000 A 
ENDBRANCH  17  18
ENDBRANCH  16  17
ENDBRANCH  10  16
TORSDOF 4
ENDMDL
