MODEL 1
REMARK VINA RESULT:      -5.5      0.000      0.000
REMARK  Name = 
REMARK  13 active torsions:
REMARK  status: ('A' for Active; 'I' for Inactive)
REMARK    1  A    between atoms: C_1  and  C_2
REMARK    2  A    between atoms: C_2  and  C_3
REMARK    3  A    between atoms: C_3  and  C_4
REMARK    4  A    between atoms: C_4  and  C_5
REMARK    5  A    between atoms: C_5  and  C_6
REMARK    6  A    between atoms: C_6  and  C_7
REMARK    7  A    between atoms: C_7  and  C_8
REMARK    8  A    between atoms: C_8  and  C_9
REMARK    9  A    between atoms: C_9  and  C_10
REMARK   10  A    between atoms: C_10  and  C_11
REMARK   11  A    between atoms: C_11  and  C_12
REMARK   12  A    between atoms: C_12  and  N_13
REMARK   13  A    between atoms: C_14  and  C_16
REMARK                            x       y       z     vdW  Elec       q    Type
REMARK                         _______ _______ _______ _____ _____    ______ ____
ROOT
ATOM      1  C   UNL     1       4.352   5.152  18.055  0.00  0.00    +0.000 C 
ENDROOT
BRANCH   1   2
ATOM      2  C   UNL     1       3.658   6.481  17.792  0.00  0.00    +0.000 C 
BRANCH   2   3
ATOM      3  C   UNL     1       2.265   6.480  18.402  0.00  0.00    +0.000 C 
BRANCH   3   4
ATOM      4  C   UNL     1       2.279   7.203  19.737  0.00  0.00    +0.000 C 
BRANCH   4   5
ATOM      5  C   UNL     1       1.610   6.349  20.800  0.00  0.00    +0.000 C 
BRANCH   5   6
ATOM      6  C   UNL     1       1.283   4.978  20.236  0.00  0.00    +0.000 C 
BRANCH   6   7
ATOM      7  C   UNL     1       1.951   3.899  21.071  0.00  0.00    +0.000 C 
BRANCH   7   8
ATOM      8  C   UNL     1       1.672   2.529  20.476  0.00  0.00    +0.000 C 
BRANCH   8  10
ATOM      9  C   UNL     1       2.184   2.214  18.058  0.00  0.00    +0.000 C 
ATOM     10  C   UNL     1       1.138   2.663  19.058  0.00  0.00    +0.000 C 
ENDBRANCH   8  10
ENDBRANCH   7   8
ENDBRANCH   6   7
ENDBRANCH   5   6
ENDBRANCH   4   5
ENDBRANCH   3   4
ENDBRANCH   2   3
ENDBRANCH   1   2
BRANCH   1  11
ATOM     11  C   UNL     1       5.432   5.313  19.121  0.00  0.00    +0.000 C 
BRANCH  11  12
ATOM     12  C   UNL     1       6.801   4.943  18.561  0.00  0.00    +0.000 C 
BRANCH  12  13
ATOM     13  N   UNL     1       6.703   4.247  17.299  0.00  0.00    +0.000 N 
ATOM     14  C   UNL     1       7.024   4.898  16.127  0.00  0.00    +0.000 C 
ATOM     15  O   UNL     1       7.410   6.065  16.081  0.00  0.00    +0.000 OA
ATOM     16  H   UNL     1       6.464   3.266  17.278  0.00  0.00    +0.000 HD
BRANCH  14  17
ATOM     17  C   UNL     1       6.911   4.090  14.884  0.00  0.00    +0.000 C 
ATOM     18  C   UNL     1       5.714   4.259  13.965  0.00  0.00    +0.000 C 
ATOM     19  C   UNL     1       7.058   4.775  13.543  0.00  0.00    +0.000 C 
ENDBRANCH  14  17
ENDBRANCH  12  13
ENDBRANCH  11  12
ENDBRANCH   1  11
TORSDOF 12
ENDMDL
MODEL 2
REMARK VINA RESULT:      -5.5      1.530      2.174
REMARK  Name = 
REMARK  13 active torsions:
REMARK  status: ('A' for Active; 'I' for Inactive)
REMARK    1  A    between atoms: C_1  and  C_2
REMARK    2  A    between atoms: C_2  and  C_3
REMARK    3  A    between atoms: C_3  and  C_4
REMARK    4  A    between atoms: C_4  and  C_5
REMARK    5  A    between atoms: C_5  and  C_6
REMARK    6  A    between atoms: C_6  and  C_7
REMARK    7  A    between atoms: C_7  and  C_8
REMARK    8  A    between atoms: C_8  and  C_9
REMARK    9  A    between atoms: C_9  and  C_10
REMARK   10  A    between atoms: C_10  and  C_11
REMARK   11  A    between atoms: C_11  and  C_12
REMARK   12  A    between atoms: C_12  and  N_13
REMARK   13  A    between atoms: C_14  and  C_16
REMARK                            x       y       z     vdW  Elec       q    Type
REMARK                         _______ _______ _______ _____ _____    ______ ____
ROOT
ATOM      1  C   UNL     1       4.643   5.619  16.999  0.00  0.00    +0.000 C 
ENDROOT
BRANCH   1   2
ATOM      2  C   UNL     1       4.722   6.178  18.413  0.00  0.00    +0.000 C 
BRANCH   2   3
ATOM      3  C   UNL     1       4.210   5.156  19.415  0.00  0.00    +0.000 C 
BRANCH   3   4
ATOM      4  C   UNL     1       2.735   5.391  19.694  0.00  0.00    +0.000 C 
BRANCH   4   5
ATOM      5  C   UNL     1       2.314   4.640  20.945  0.00  0.00    +0.000 C 
BRANCH   5   6
ATOM      6  C   UNL     1       1.096   3.782  20.651  0.00  0.00    +0.000 C 
BRANCH   6   7
ATOM      7  C   UNL     1       0.939   3.595  19.152  0.00  0.00    +0.000 C 
BRANCH   7   8
ATOM      8  C   UNL     1       1.225   2.152  18.771  0.00  0.00    +0.000 C 
BRANCH   8  10
ATOM      9  C   UNL     1       3.594   1.425  18.506  0.00  0.00    +0.000 C 
ATOM     10  C   UNL     1       2.410   2.077  17.820  0.00  0.00    +0.000 C 
ENDBRANCH   8  10
ENDBRANCH   7   8
ENDBRANCH   6   7
ENDBRANCH   5   6
ENDBRANCH   4   5
ENDBRANCH   3   4
ENDBRANCH   2   3
ENDBRANCH   1   2
BRANCH   1  11
ATOM     11  C   UNL     1       5.254   4.221  16.942  0.00  0.00    +0.000 C 
BRANCH  11  12
ATOM     12  C   UNL     1       6.524   4.222  16.100  0.00  0.00    +0.000 C 
BRANCH  12  13
ATOM     13  N   UNL     1       6.256   3.937  14.709  0.00  0.00    +0.000 N 
ATOM     14  C   UNL     1       6.964   4.591  13.723  0.00  0.00    +0.000 C 
ATOM     15  O   UNL     1       7.844   5.419  13.953  0.00  0.00    +0.000 OA
ATOM     16  H   UNL     1       5.597   3.213  14.457  0.00  0.00    +0.000 HD
BRANCH  14  17
ATOM     17  C   UNL     1       6.629   4.214  12.325  0.00  0.00    +0.000 C 
ATOM     18  C   UNL     1       6.987   2.837  11.794  0.00  0.00    +0.000 C 
ATOM     19  C   UNL     1       5.554   3.180  12.077  0.00  0.00    +0.000 C 
ENDBRANCH  14  17
ENDBRANCH  12  13
ENDBRANCH  11  12
ENDBRANCH   1  11
TORSDOF 12
ENDMDL
MODEL 3
REMARK VINA RESULT:      -5.4      1.381      2.300
REMARK  Name = 
REMARK  13 active torsions:
REMARK  status: ('A' for Active; 'I' for Inactive)
REMARK    1  A    between atoms: C_1  and  C_2
REMARK    2  A    between atoms: C_2  and  C_3
REMARK    3  A    between atoms: C_3  and  C_4
REMARK    4  A    between atoms: C_4  and  C_5
REMARK    5  A    between atoms: C_5  and  C_6
REMARK    6  A    between atoms: C_6  and  C_7
REMARK    7  A    between atoms: C_7  and  C_8
REMARK    8  A    between atoms: C_8  and  C_9
REMARK    9  A    between atoms: C_9  and  C_10
REMARK   10  A    between atoms: C_10  and  C_11
REMARK   11  A    between atoms: C_11  and  C_12
REMARK   12  A    between atoms: C_12  and  N_13
REMARK   13  A    between atoms: C_14  and  C_16
REMARK                            x       y       z     vdW  Elec       q    Type
REMARK                         _______ _______ _______ _____ _____    ______ ____
ROOT
ATOM      1  C   UNL     1       5.172   5.076  18.679  0.00  0.00    +0.000 C 
ENDROOT
BRANCH   1   2
ATOM      2  C   UNL     1       4.826   3.647  19.070  0.00  0.00    +0.000 C 
BRANCH   2   3
ATOM      3  C   UNL     1       3.773   3.082  18.130  0.00  0.00    +0.000 C 
BRANCH   3   4
ATOM      4  C   UNL     1       3.110   4.205  17.352  0.00  0.00    +0.000 C 
BRANCH   4   5
ATOM      5  C   UNL     1       1.627   4.258  17.674  0.00  0.00    +0.000 C 
BRANCH   5   6
ATOM      6  C   UNL     1       1.330   3.414  18.901  0.00  0.00    +0.000 C 
BRANCH   6   7
ATOM      7  C   UNL     1       0.836   4.297  20.034  0.00  0.00    +0.000 C 
BRANCH   7   8
ATOM      8  C   UNL     1       1.922   4.463  21.082  0.00  0.00    +0.000 C 
BRANCH   8  10
ATOM      9  C   UNL     1       1.299   2.282  22.114  0.00  0.00    +0.000 C 
ATOM     10  C   UNL     1       2.434   3.105  21.538  0.00  0.00    +0.000 C 
ENDBRANCH   8  10
ENDBRANCH   7   8
ENDBRANCH   6   7
ENDBRANCH   5   6
ENDBRANCH   4   5
ENDBRANCH   3   4
ENDBRANCH   2   3
ENDBRANCH   1   2
BRANCH   1  11
ATOM     11  C   UNL     1       6.534   5.472  19.245  0.00  0.00    +0.000 C 
BRANCH  11  12
ATOM     12  C   UNL     1       7.646   5.132  18.261  0.00  0.00    +0.000 C 
BRANCH  12  13
ATOM     13  N   UNL     1       7.178   4.302  17.174  0.00  0.00    +0.000 N 
ATOM     14  C   UNL     1       7.083   4.822  15.901  0.00  0.00    +0.000 C 
ATOM     15  O   UNL     1       7.389   5.978  15.615  0.00  0.00    +0.000 OA
ATOM     16  H   UNL     1       6.982   3.323  17.332  0.00  0.00    +0.000 HD
BRANCH  14  17
ATOM     17  C   UNL     1       6.610   3.883  14.850  0.00  0.00    +0.000 C 
ATOM     18  C   UNL     1       5.257   4.086  14.192  0.00  0.00    +0.000 C 
ATOM     19  C   UNL     1       6.512   4.365  13.420  0.00  0.00    +0.000 C 
ENDBRANCH  14  17
ENDBRANCH  12  13
ENDBRANCH  11  12
ENDBRANCH   1  11
TORSDOF 12
ENDMDL
MODEL 4
REMARK VINA RESULT:      -5.3      1.607      2.411
REMARK  Name = 
REMARK  13 active torsions:
REMARK  status: ('A' for Active; 'I' for Inactive)
REMARK    1  A    between atoms: C_1  and  C_2
REMARK    2  A    between atoms: C_2  and  C_3
REMARK    3  A    between atoms: C_3  and  C_4
REMARK    4  A    between atoms: C_4  and  C_5
REMARK    5  A    between atoms: C_5  and  C_6
REMARK    6  A    between atoms: C_6  and  C_7
REMARK    7  A    between atoms: C_7  and  C_8
REMARK    8  A    between atoms: C_8  and  C_9
REMARK    9  A    between atoms: C_9  and  C_10
REMARK   10  A    between atoms: C_10  and  C_11
REMARK   11  A    between atoms: C_11  and  C_12
REMARK   12  A    between atoms: C_12  and  N_13
REMARK   13  A    between atoms: C_14  and  C_16
REMARK                            x       y       z     vdW  Elec       q    Type
REMARK                         _______ _______ _______ _____ _____    ______ ____
ROOT
ATOM      1  C   UNL     1       4.678   6.508  16.851  0.00  0.00    +0.000 C 
ENDROOT
BRANCH   1   2
ATOM      2  C   UNL     1       3.632   6.467  17.956  0.00  0.00    +0.000 C 
BRANCH   2   3
ATOM      3  C   UNL     1       2.763   5.228  17.816  0.00  0.00    +0.000 C 
BRANCH   3   4
ATOM      4  C   UNL     1       3.533   4.126  17.108  0.00  0.00    +0.000 C 
BRANCH   4   5
ATOM      5  C   UNL     1       3.874   3.016  18.087  0.00  0.00    +0.000 C 
BRANCH   5   6
ATOM      6  C   UNL     1       3.891   3.560  19.504  0.00  0.00    +0.000 C 
BRANCH   6   7
ATOM      7  C   UNL     1       3.666   2.432  20.497  0.00  0.00    +0.000 C 
BRANCH   7   8
ATOM      8  C   UNL     1       2.613   2.834  21.517  0.00  0.00    +0.000 C 
BRANCH   8  10
ATOM      9  C   UNL     1       0.576   3.342  20.173  0.00  0.00    +0.000 C 
ATOM     10  C   UNL     1       1.727   3.938  20.959  0.00  0.00    +0.000 C 
ENDBRANCH   8  10
ENDBRANCH   7   8
ENDBRANCH   6   7
ENDBRANCH   5   6
ENDBRANCH   4   5
ENDBRANCH   3   4
ENDBRANCH   2   3
ENDBRANCH   1   2
BRANCH   1  11
ATOM     11  C   UNL     1       6.064   6.769  17.433  0.00  0.00    +0.000 C 
BRANCH  11  12
ATOM     12  C   UNL     1       7.127   5.995  16.663  0.00  0.00    +0.000 C 
BRANCH  12  13
ATOM     13  N   UNL     1       6.556   4.936  15.862  0.00  0.00    +0.000 N 
ATOM     14  C   UNL     1       6.931   4.792  14.543  0.00  0.00    +0.000 C 
ATOM     15  O   UNL     1       7.751   5.519  13.986  0.00  0.00    +0.000 OA
ATOM     16  H   UNL     1       5.934   4.261  16.284  0.00  0.00    +0.000 HD
BRANCH  14  17
ATOM     17  C   UNL     1       6.303   3.660  13.811  0.00  0.00    +0.000 C 
ATOM     18  C   UNL     1       5.133   3.907  12.876  0.00  0.00    +0.000 C 
ATOM     19  C   UNL     1       6.480   3.564  12.312  0.00  0.00    +0.000 C 
ENDBRANCH  14  17
ENDBRANCH  12  13
ENDBRANCH  11  12
ENDBRANCH   1  11
TORSDOF 12
ENDMDL
MODEL 5
REMARK VINA RESULT:      -5.3      1.348      1.651
REMARK  Name = 
REMARK  13 active torsions:
REMARK  status: ('A' for Active; 'I' for Inactive)
REMARK    1  A    between atoms: C_1  and  C_2
REMARK    2  A    between atoms: C_2  and  C_3
REMARK    3  A    between atoms: C_3  and  C_4
REMARK    4  A    between atoms: C_4  and  C_5
REMARK    5  A    between atoms: C_5  and  C_6
REMARK    6  A    between atoms: C_6  and  C_7
REMARK    7  A    between atoms: C_7  and  C_8
REMARK    8  A    between atoms: C_8  and  C_9
REMARK    9  A    between atoms: C_9  and  C_10
REMARK   10  A    between atoms: C_10  and  C_11
REMARK   11  A    between atoms: C_11  and  C_12
REMARK   12  A    between atoms: C_12  and  N_13
REMARK   13  A    between atoms: C_14  and  C_16
REMARK                            x       y       z     vdW  Elec       q    Type
REMARK                         _______ _______ _______ _____ _____    ______ ____
ROOT
ATOM      1  C   UNL     1       4.539   4.876  18.097  0.00  0.00    +0.000 C 
ENDROOT
BRANCH   1   2
ATOM      2  C   UNL     1       3.146   5.275  17.632  0.00  0.00    +0.000 C 
BRANCH   2   3
ATOM      3  C   UNL     1       2.610   6.413  18.486  0.00  0.00    +0.000 C 
BRANCH   3   4
ATOM      4  C   UNL     1       2.897   6.145  19.953  0.00  0.00    +0.000 C 
BRANCH   4   5
ATOM      5  C   UNL     1       1.735   5.396  20.584  0.00  0.00    +0.000 C 
BRANCH   5   6
ATOM      6  C   UNL     1       2.256   4.293  21.486  0.00  0.00    +0.000 C 
BRANCH   6   7
ATOM      7  C   UNL     1       1.818   2.937  20.959  0.00  0.00    +0.000 C 
BRANCH   7   8
ATOM      8  C   UNL     1       2.833   2.411  19.959  0.00  0.00    +0.000 C 
BRANCH   8  10
ATOM      9  C   UNL     1       0.721   2.425  18.635  0.00  0.00    +0.000 C 
ATOM     10  C   UNL     1       2.131   1.873  18.721  0.00  0.00    +0.000 C 
ENDBRANCH   8  10
ENDBRANCH   7   8
ENDBRANCH   6   7
ENDBRANCH   5   6
ENDBRANCH   4   5
ENDBRANCH   3   4
ENDBRANCH   2   3
ENDBRANCH   1   2
BRANCH   1  11
ATOM     11  C   UNL     1       5.590   5.816  17.513  0.00  0.00    +0.000 C 
BRANCH  11  12
ATOM     12  C   UNL     1       5.238   6.193  16.079  0.00  0.00    +0.000 C 
BRANCH  12  13
ATOM     13  N   UNL     1       5.278   5.053  15.191  0.00  0.00    +0.000 N 
ATOM     14  C   UNL     1       6.407   4.805  14.440  0.00  0.00    +0.000 C 
ATOM     15  O   UNL     1       7.419   5.503  14.482  0.00  0.00    +0.000 OA
ATOM     16  H   UNL     1       4.507   4.401  15.168  0.00  0.00    +0.000 HD
BRANCH  14  17
ATOM     17  C   UNL     1       6.358   3.598  13.573  0.00  0.00    +0.000 C 
ATOM     18  C   UNL     1       5.399   3.535  12.398  0.00  0.00    +0.000 C 
ATOM     19  C   UNL     1       6.871   3.687  12.153  0.00  0.00    +0.000 C 
ENDBRANCH  14  17
ENDBRANCH  12  13
ENDBRANCH  11  12
ENDBRANCH   1  11
TORSDOF 12
ENDMDL
MODEL 6
REMARK VINA RESULT:      -5.3      1.764      2.474
REMARK  Name = 
REMARK  13 active torsions:
REMARK  status: ('A' for Active; 'I' for Inactive)
REMARK    1  A    between atoms: C_1  and  C_2
REMARK    2  A    between atoms: C_2  and  C_3
REMARK    3  A    between atoms: C_3  and  C_4
REMARK    4  A    between atoms: C_4  and  C_5
REMARK    5  A    between atoms: C_5  and  C_6
REMARK    6  A    between atoms: C_6  and  C_7
REMARK    7  A    between atoms: C_7  and  C_8
REMARK    8  A    between atoms: C_8  and  C_9
REMARK    9  A    between atoms: C_9  and  C_10
REMARK   10  A    between atoms: C_10  and  C_11
REMARK   11  A    between atoms: C_11  and  C_12
REMARK   12  A    between atoms: C_12  and  N_13
REMARK   13  A    between atoms: C_14  and  C_16
REMARK                            x       y       z     vdW  Elec       q    Type
REMARK                         _______ _______ _______ _____ _____    ______ ____
ROOT
ATOM      1  C   UNL     1       5.221   6.146  16.337  0.00  0.00    +0.000 C 
ENDROOT
BRANCH   1   2
ATOM      2  C   UNL     1       4.247   6.814  17.297  0.00  0.00    +0.000 C 
BRANCH   2   3
ATOM      3  C   UNL     1       3.973   5.909  18.488  0.00  0.00    +0.000 C 
BRANCH   3   4
ATOM      4  C   UNL     1       2.508   5.992  18.880  0.00  0.00    +0.000 C 
BRANCH   4   5
ATOM      5  C   UNL     1       1.652   5.261  17.860  0.00  0.00    +0.000 C 
BRANCH   5   6
ATOM      6  C   UNL     1       2.082   3.808  17.766  0.00  0.00    +0.000 C 
BRANCH   6   7
ATOM      7  C   UNL     1       1.146   2.934  18.584  0.00  0.00    +0.000 C 
BRANCH   7   8
ATOM      8  C   UNL     1       1.945   1.947  19.417  0.00  0.00    +0.000 C 
BRANCH   8  10
ATOM      9  C   UNL     1       4.322   2.281  20.089  0.00  0.00    +0.000 C 
ATOM     10  C   UNL     1       2.886   2.685  20.358  0.00  0.00    +0.000 C 
ENDBRANCH   8  10
ENDBRANCH   7   8
ENDBRANCH   6   7
ENDBRANCH   5   6
ENDBRANCH   4   5
ENDBRANCH   3   4
ENDBRANCH   2   3
ENDBRANCH   1   2
BRANCH   1  11
ATOM     11  C   UNL     1       5.368   4.663  16.670  0.00  0.00    +0.000 C 
BRANCH  11  12
ATOM     12  C   UNL     1       6.580   4.069  15.961  0.00  0.00    +0.000 C 
BRANCH  12  13
ATOM     13  N   UNL     1       6.299   3.745  14.581  0.00  0.00    +0.000 N 
ATOM     14  C   UNL     1       6.927   4.440  13.569  0.00  0.00    +0.000 C 
ATOM     15  O   UNL     1       7.743   5.339  13.767  0.00  0.00    +0.000 OA
ATOM     16  H   UNL     1       5.695   2.967  14.355  0.00  0.00    +0.000 HD
BRANCH  14  17
ATOM     17  C   UNL     1       6.587   4.019  12.185  0.00  0.00    +0.000 C 
ATOM     18  C   UNL     1       6.691   2.560  11.779  0.00  0.00    +0.000 C 
ATOM     19  C   UNL     1       5.342   3.193  11.949  0.00  0.00    +0.000 C 
ENDBRANCH  14  17
ENDBRANCH  12  13
ENDBRANCH  11  12
ENDBRANCH   1  11
TORSDOF 12
ENDMDL
MODEL 7
REMARK VINA RESULT:      -5.2      1.571      2.850
REMARK  Name = 
REMARK  13 active torsions:
REMARK  status: ('A' for Active; 'I' for Inactive)
REMARK    1  A    between atoms: C_1  and  C_2
REMARK    2  A    between atoms: C_2  and  C_3
REMARK    3  A    between atoms: C_3  and  C_4
REMARK    4  A    between atoms: C_4  and  C_5
REMARK    5  A    between atoms: C_5  and  C_6
REMARK    6  A    between atoms: C_6  and  C_7
REMARK    7  A    between atoms: C_7  and  C_8
REMARK    8  A    between atoms: C_8  and  C_9
REMARK    9  A    between atoms: C_9  and  C_10
REMARK   10  A    between atoms: C_10  and  C_11
REMARK   11  A    between atoms: C_11  and  C_12
REMARK   12  A    between atoms: C_12  and  N_13
REMARK   13  A    between atoms: C_14  and  C_16
REMARK                            x       y       z     vdW  Elec       q    Type
REMARK                         _______ _______ _______ _____ _____    ______ ____
ROOT
ATOM      1  C   UNL     1       5.066   6.482  17.953  0.00  0.00    +0.000 C 
ENDROOT
BRANCH   1   2
ATOM      2  C   UNL     1       3.684   5.895  17.708  0.00  0.00    +0.000 C 
BRANCH   2   3
ATOM      3  C   UNL     1       3.690   4.399  17.979  0.00  0.00    +0.000 C 
BRANCH   3   4
ATOM      4  C   UNL     1       2.529   3.733  17.259  0.00  0.00    +0.000 C 
BRANCH   4   5
ATOM      5  C   UNL     1       2.336   2.319  17.777  0.00  0.00    +0.000 C 
BRANCH   5   6
ATOM      6  C   UNL     1       1.275   2.304  18.863  0.00  0.00    +0.000 C 
BRANCH   6   7
ATOM      7  C   UNL     1       1.925   2.128  20.225  0.00  0.00    +0.000 C 
BRANCH   7   8
ATOM      8  C   UNL     1       1.461   3.220  21.173  0.00  0.00    +0.000 C 
BRANCH   8  10
ATOM      9  C   UNL     1       1.637   5.677  20.792  0.00  0.00    +0.000 C 
ATOM     10  C   UNL     1       0.914   4.406  20.391  0.00  0.00    +0.000 C 
ENDBRANCH   8  10
ENDBRANCH   7   8
ENDBRANCH   6   7
ENDBRANCH   5   6
ENDBRANCH   4   5
ENDBRANCH   3   4
ENDBRANCH   2   3
ENDBRANCH   1   2
BRANCH   1  11
ATOM     11  C   UNL     1       6.047   6.009  16.883  0.00  0.00    +0.000 C 
BRANCH  11  12
ATOM     12  C   UNL     1       5.473   6.235  15.489  0.00  0.00    +0.000 C 
BRANCH  12  13
ATOM     13  N   UNL     1       5.374   5.006  14.735  0.00  0.00    +0.000 N 
ATOM     14  C   UNL     1       6.389   4.640  13.877  0.00  0.00    +0.000 C 
ATOM     15  O   UNL     1       7.411   5.304  13.711  0.00  0.00    +0.000 OA
ATOM     16  H   UNL     1       4.594   4.381  14.884  0.00  0.00    +0.000 HD
BRANCH  14  17
ATOM     17  C   UNL     1       6.202   3.350  13.163  0.00  0.00    +0.000 C 
ATOM     18  C   UNL     1       5.326   3.277  11.926  0.00  0.00    +0.000 C 
ATOM     19  C   UNL     1       6.816   3.169  11.793  0.00  0.00    +0.000 C 
ENDBRANCH  14  17
ENDBRANCH  12  13
ENDBRANCH  11  12
ENDBRANCH   1  11
TORSDOF 12
ENDMDL
MODEL 8
REMARK VINA RESULT:      -5.2      2.126      4.227
REMARK  Name = 
REMARK  13 active torsions:
REMARK  status: ('A' for Active; 'I' for Inactive)
REMARK    1  A    between atoms: C_1  and  C_2
REMARK    2  A    between atoms: C_2  and  C_3
REMARK    3  A    between atoms: C_3  and  C_4
REMARK    4  A    between atoms: C_4  and  C_5
REMARK    5  A    between atoms: C_5  and  C_6
REMARK    6  A    between atoms: C_6  and  C_7
REMARK    7  A    between atoms: C_7  and  C_8
REMARK    8  A    between atoms: C_8  and  C_9
REMARK    9  A    between atoms: C_9  and  C_10
REMARK   10  A    between atoms: C_10  and  C_11
REMARK   11  A    between atoms: C_11  and  C_12
REMARK   12  A    between atoms: C_12  and  N_13
REMARK   13  A    between atoms: C_14  and  C_16
REMARK                            x       y       z     vdW  Elec       q    Type
REMARK                         _______ _______ _______ _____ _____    ______ ____
ROOT
ATOM      1  C   UNL     1       2.332   1.834  19.318  0.00  0.00    +0.000 C 
ENDROOT
BRANCH   1   2
ATOM      2  C   UNL     1       1.191   2.508  18.569  0.00  0.00    +0.000 C 
BRANCH   2   3
ATOM      3  C   UNL     1       1.295   4.019  18.695  0.00  0.00    +0.000 C 
BRANCH   3   4
ATOM      4  C   UNL     1       0.983   4.447  20.119  0.00  0.00    +0.000 C 
BRANCH   4   5
ATOM      5  C   UNL     1       2.083   5.352  20.645  0.00  0.00    +0.000 C 
BRANCH   5   6
ATOM      6  C   UNL     1       2.606   6.237  19.529  0.00  0.00    +0.000 C 
BRANCH   6   7
ATOM      7  C   UNL     1       2.021   7.634  19.653  0.00  0.00    +0.000 C 
BRANCH   7   8
ATOM      8  C   UNL     1       1.485   7.854  21.057  0.00  0.00    +0.000 C 
BRANCH   8  10
ATOM      9  C   UNL     1      -0.106   9.165  22.459  0.00  0.00    +0.000 C 
ATOM     10  C   UNL     1       0.393   8.914  21.049  0.00  0.00    +0.000 C 
ENDBRANCH   8  10
ENDBRANCH   7   8
ENDBRANCH   6   7
ENDBRANCH   5   6
ENDBRANCH   4   5
ENDBRANCH   3   4
ENDBRANCH   2   3
ENDBRANCH   1   2
BRANCH   1  11
ATOM     11  C   UNL     1       3.630   1.936  18.522  0.00  0.00    +0.000 C 
BRANCH  11  12
ATOM     12  C   UNL     1       4.583   2.933  19.171  0.00  0.00    +0.000 C 
BRANCH  12  13
ATOM     13  N   UNL     1       5.252   3.762  18.194  0.00  0.00    +0.000 N 
ATOM     14  C   UNL     1       6.092   4.774  18.610  0.00  0.00    +0.000 C 
ATOM     15  O   UNL     1       6.327   5.021  19.791  0.00  0.00    +0.000 OA
ATOM     16  H   UNL     1       5.158   3.561  17.209  0.00  0.00    +0.000 HD
BRANCH  14  17
ATOM     17  C   UNL     1       6.748   5.556  17.529  0.00  0.00    +0.000 C 
ATOM     18  C   UNL     1       6.156   6.877  17.070  0.00  0.00    +0.000 C 
ATOM     19  C   UNL     1       7.423   6.866  17.872  0.00  0.00    +0.000 C 
ENDBRANCH  14  17
ENDBRANCH  12  13
ENDBRANCH  11  12
ENDBRANCH   1  11
TORSDOF 12
ENDMDL
MODEL 9
REMARK VINA RESULT:      -5.2      1.171      2.144
REMARK  Name = 
REMARK  13 active torsions:
REMARK  status: ('A' for Active; 'I' for Inactive)
REMARK    1  A    between atoms: C_1  and  C_2
REMARK    2  A    between atoms: C_2  and  C_3
REMARK    3  A    between atoms: C_3  and  C_4
REMARK    4  A    between atoms: C_4  and  C_5
REMARK    5  A    between atoms: C_5  and  C_6
REMARK    6  A    between atoms: C_6  and  C_7
REMARK    7  A    between atoms: C_7  and  C_8
REMARK    8  A    between atoms: C_8  and  C_9
REMARK    9  A    between atoms: C_9  and  C_10
REMARK   10  A    between atoms: C_10  and  C_11
REMARK   11  A    between atoms: C_11  and  C_12
REMARK   12  A    between atoms: C_12  and  N_13
REMARK   13  A    between atoms: C_14  and  C_16
REMARK                            x       y       z     vdW  Elec       q    Type
REMARK                         _______ _______ _______ _____ _____    ______ ____
ROOT
ATOM      1  C   UNL     1       3.675   5.490  18.618  0.00  0.00    +0.000 C 
ENDROOT
BRANCH   1   2
ATOM      2  C   UNL     1       2.486   5.785  19.521  0.00  0.00    +0.000 C 
BRANCH   2   3
ATOM      3  C   UNL     1       2.678   5.129  20.880  0.00  0.00    +0.000 C 
BRANCH   3   4
ATOM      4  C   UNL     1       1.972   3.785  20.915  0.00  0.00    +0.000 C 
BRANCH   4   5
ATOM      5  C   UNL     1       0.592   3.903  20.292  0.00  0.00    +0.000 C 
BRANCH   5   6
ATOM      6  C   UNL     1       0.376   2.783  19.290  0.00  0.00    +0.000 C 
BRANCH   6   7
ATOM      7  C   UNL     1       1.666   2.005  19.093  0.00  0.00    +0.000 C 
BRANCH   7   8
ATOM      8  C   UNL     1       2.226   2.263  17.705  0.00  0.00    +0.000 C 
BRANCH   8  10
ATOM      9  C   UNL     1       4.180   1.386  18.980  0.00  0.00    +0.000 C 
ATOM     10  C   UNL     1       3.732   2.043  17.689  0.00  0.00    +0.000 C 
ENDBRANCH   8  10
ENDBRANCH   7   8
ENDBRANCH   6   7
ENDBRANCH   5   6
ENDBRANCH   4   5
ENDBRANCH   3   4
ENDBRANCH   2   3
ENDBRANCH   1   2
BRANCH   1  11
ATOM     11  C   UNL     1       4.952   5.349  19.443  0.00  0.00    +0.000 C 
BRANCH  11  12
ATOM     12  C   UNL     1       6.023   4.604  18.655  0.00  0.00    +0.000 C 
BRANCH  12  13
ATOM     13  N   UNL     1       5.913   4.836  17.232  0.00  0.00    +0.000 N 
ATOM     14  C   UNL     1       6.992   4.594  16.410  0.00  0.00    +0.000 C 
ATOM     15  O   UNL     1       8.074   4.172  16.814  0.00  0.00    +0.000 OA
ATOM     16  H   UNL     1       5.027   5.111  16.831  0.00  0.00    +0.000 HD
BRANCH  14  17
ATOM     17  C   UNL     1       6.772   4.844  14.961  0.00  0.00    +0.000 C 
ATOM     18  C   UNL     1       6.382   3.704  14.036  0.00  0.00    +0.000 C 
ATOM     19  C   UNL     1       5.371   4.750  14.400  0.00  0.00    +0.000 C 
ENDBRANCH  14  17
ENDBRANCH  12  13
ENDBRANCH  11  12
ENDBRANCH   1  11
TORSDOF 12
ENDMDL
