MODEL 1
REMARK VINA RESULT:      -8.6      0.000      0.000
REMARK  Name = 
REMARK  5 active torsions:
REMARK  status: ('A' for Active; 'I' for Inactive)
REMARK    1  A    between atoms: C_1  and  S_2
REMARK    2  A    between atoms: S_2  and  C_4
REMARK    3  A    between atoms: C_6  and  C_7
REMARK    4  A    between atoms: C_14  and  C_15
REMARK    5  A    between atoms: N_20  and  C_21
REMARK                            x       y       z     vdW  Elec       q    Type
REMARK                         _______ _______ _______ _____ _____    ______ ____
ROOT
ATOM      1  C   UNL     1       4.888   5.624  16.706  0.00  0.00    +0.000 A 
ATOM      2  N   UNL     1       4.514   4.578  17.410  0.00  0.00    +0.000 NA
ATOM      3  C   UNL     1       3.619   5.066  18.341  0.00  0.00    +0.000 A 
ATOM      4  C   UNL     1       3.410   6.434  18.172  0.00  0.00    +0.000 A 
ATOM      5  N   UNL     1       4.280   6.762  17.148  0.00  0.00    +0.000 N 
ATOM      6  H   UNL     1       4.412   7.672  16.725  0.00  0.00    +0.000 HD
ENDROOT
BRANCH   4   7
ATOM      7  C   UNL     1       2.488   7.411  18.764  0.00  0.00    +0.000 A 
ATOM      8  C   UNL     1       2.318   7.500  20.143  0.00  0.00    +0.000 A 
ATOM      9  C   UNL     1       1.430   8.427  20.650  0.00  0.00    +0.000 A 
ATOM     10  N   UNL     1       0.643   9.203  19.881  0.00  0.00    +0.000 NA
ATOM     11  C   UNL     1       0.778   9.105  18.548  0.00  0.00    +0.000 A 
ATOM     12  N   UNL     1      -0.058   9.826  17.700  0.00  0.00    +0.000 N 
ATOM     13  C   UNL     1       1.719   8.256  17.962  0.00  0.00    +0.000 A 
ATOM     14  H   UNL     1       0.470  10.498  17.151  0.00  0.00    +0.000 HD
BRANCH  12  15
ATOM     15  C   UNL     1      -1.326  10.338  18.227  0.00  0.00    +0.000 C 
ATOM     16  C   UNL     1      -2.420   9.846  17.269  0.00  0.00    +0.000 C 
ATOM     17  C   UNL     1      -3.757  10.506  17.546  0.00  0.00    +0.000 C 
ATOM     18  O   UNL     1      -3.625  11.923  17.542  0.00  0.00    +0.000 OA
ATOM     19  C   UNL     1      -2.760  12.372  18.582  0.00  0.00    +0.000 C 
ATOM     20  C   UNL     1      -1.342  11.862  18.362  0.00  0.00    +0.000 C 
ENDBRANCH  12  15
ENDBRANCH   4   7
BRANCH   3  21
ATOM     21  C   UNL     1       2.948   4.181  19.285  0.00  0.00    +0.000 A 
ATOM     22  C   UNL     1       3.653   3.497  20.287  0.00  0.00    +0.000 A 
ATOM     23  C   UNL     1       2.969   2.774  21.264  0.00  0.00    +0.000 A 
ATOM     24  C   UNL     1       1.584   2.684  21.205  0.00  0.00    +0.000 A 
ATOM     25  F   UNL     1       0.927   2.007  22.156  0.00  0.00    +0.000 F 
ATOM     26  C   UNL     1       0.871   3.293  20.180  0.00  0.00    +0.000 A 
ATOM     27  C   UNL     1       1.552   4.041  19.219  0.00  0.00    +0.000 A 
ENDBRANCH   3  21
BRANCH   1  29
ATOM     28  C   UNL     1       5.965   3.794  15.075  0.00  0.00    +0.000 C 
ATOM     29  S   UNL     1       5.956   5.575  15.343  0.00  0.00    +0.000 S 
ATOM     30  O   UNL     1       7.353   6.056  15.878  0.00  0.00    +0.000 OA
ENDBRANCH   1  29
TORSDOF 4
ENDMDL
MODEL 2
REMARK VINA RESULT:      -8.2      1.989      2.598
REMARK  Name = 
REMARK  5 active torsions:
REMARK  status: ('A' for Active; 'I' for Inactive)
REMARK    1  A    between atoms: C_1  and  S_2
REMARK    2  A    between atoms: S_2  and  C_4
REMARK    3  A    between atoms: C_6  and  C_7
REMARK    4  A    between atoms: C_14  and  C_15
REMARK    5  A    between atoms: N_20  and  C_21
REMARK                            x       y       z     vdW  Elec       q    Type
REMARK                         _______ _______ _______ _____ _____    ______ ____
ROOT
ATOM      1  C   UNL     1       5.021   5.560  16.519  0.00  0.00    +0.000 A 
ATOM      2  N   UNL     1       4.598   4.561  17.261  0.00  0.00    +0.000 NA
ATOM      3  C   UNL     1       3.677   5.115  18.129  0.00  0.00    +0.000 A 
ATOM      4  C   UNL     1       3.503   6.475  17.879  0.00  0.00    +0.000 A 
ATOM      5  N   UNL     1       4.419   6.732  16.875  0.00  0.00    +0.000 N 
ATOM      6  H   UNL     1       4.586   7.615  16.409  0.00  0.00    +0.000 HD
ENDROOT
BRANCH   4   7
ATOM      7  C   UNL     1       2.579   7.499  18.380  0.00  0.00    +0.000 A 
ATOM      8  C   UNL     1       2.090   8.502  17.546  0.00  0.00    +0.000 A 
ATOM      9  C   UNL     1       1.233   9.450  18.070  0.00  0.00    +0.000 A 
ATOM     10  N   UNL     1       0.904   9.517  19.373  0.00  0.00    +0.000 NA
ATOM     11  C   UNL     1       1.394   8.572  20.193  0.00  0.00    +0.000 A 
ATOM     12  N   UNL     1       1.149   8.630  21.562  0.00  0.00    +0.000 N 
ATOM     13  C   UNL     1       2.192   7.529  19.721  0.00  0.00    +0.000 A 
ATOM     14  H   UNL     1       0.599   7.834  21.870  0.00  0.00    +0.000 HD
BRANCH  12  15
ATOM     15  C   UNL     1       0.743   9.909  22.152  0.00  0.00    +0.000 C 
ATOM     16  C   UNL     1      -0.662   9.691  22.729  0.00  0.00    +0.000 C 
ATOM     17  C   UNL     1      -1.313  10.994  23.151  0.00  0.00    +0.000 C 
ATOM     18  O   UNL     1      -1.304  11.927  22.075  0.00  0.00    +0.000 OA
ATOM     19  C   UNL     1       0.025  12.275  21.694  0.00  0.00    +0.000 C 
ATOM     20  C   UNL     1       0.763  11.062  21.145  0.00  0.00    +0.000 C 
ENDBRANCH  12  15
ENDBRANCH   4   7
BRANCH   3  21
ATOM     21  C   UNL     1       2.952   4.294  19.090  0.00  0.00    +0.000 A 
ATOM     22  C   UNL     1       3.584   3.736  20.212  0.00  0.00    +0.000 A 
ATOM     23  C   UNL     1       2.837   3.080  21.191  0.00  0.00    +0.000 A 
ATOM     24  C   UNL     1       1.467   2.927  21.018  0.00  0.00    +0.000 A 
ATOM     25  F   UNL     1       0.749   2.314  21.968  0.00  0.00    +0.000 F 
ATOM     26  C   UNL     1       0.832   3.407  19.880  0.00  0.00    +0.000 A 
ATOM     27  C   UNL     1       1.574   4.090  18.914  0.00  0.00    +0.000 A 
ENDBRANCH   3  21
BRANCH   1  29
ATOM     28  C   UNL     1       6.022   3.640  14.944  0.00  0.00    +0.000 C 
ATOM     29  S   UNL     1       6.140   5.418  15.204  0.00  0.00    +0.000 S 
ATOM     30  O   UNL     1       7.545   5.794  15.798  0.00  0.00    +0.000 OA
ENDBRANCH   1  29
TORSDOF 4
ENDMDL
MODEL 3
REMARK VINA RESULT:      -7.9      2.347      2.811
REMARK  Name = 
REMARK  5 active torsions:
REMARK  status: ('A' for Active; 'I' for Inactive)
REMARK    1  A    between atoms: C_1  and  S_2
REMARK    2  A    between atoms: S_2  and  C_4
REMARK    3  A    between atoms: C_6  and  C_7
REMARK    4  A    between atoms: C_14  and  C_15
REMARK    5  A    between atoms: N_20  and  C_21
REMARK                            x       y       z     vdW  Elec       q    Type
REMARK                         _______ _______ _______ _____ _____    ______ ____
ROOT
ATOM      1  C   UNL     1       5.071   4.407  16.515  0.00  0.00    +0.000 A 
ATOM      2  N   UNL     1       4.564   3.549  17.372  0.00  0.00    +0.000 NA
ATOM      3  C   UNL     1       3.747   4.296  18.197  0.00  0.00    +0.000 A 
ATOM      4  C   UNL     1       3.723   5.634  17.807  0.00  0.00    +0.000 A 
ATOM      5  N   UNL     1       4.624   5.673  16.758  0.00  0.00    +0.000 N 
ATOM      6  H   UNL     1       4.875   6.476  16.195  0.00  0.00    +0.000 HD
ENDROOT
BRANCH   4   7
ATOM      7  C   UNL     1       2.945   6.808  18.219  0.00  0.00    +0.000 A 
ATOM      8  C   UNL     1       2.821   7.920  17.389  0.00  0.00    +0.000 A 
ATOM      9  C   UNL     1       2.088   9.005  17.828  0.00  0.00    +0.000 A 
ATOM     10  N   UNL     1       1.551   9.092  19.060  0.00  0.00    +0.000 NA
ATOM     11  C   UNL     1       1.691   8.037  19.880  0.00  0.00    +0.000 A 
ATOM     12  N   UNL     1       1.222   8.095  21.189  0.00  0.00    +0.000 N 
ATOM     13  C   UNL     1       2.339   6.869  19.475  0.00  0.00    +0.000 A 
ATOM     14  H   UNL     1       0.481   7.419  21.343  0.00  0.00    +0.000 HD
BRANCH  12  15
ATOM     15  C   UNL     1       0.978   9.408  21.793  0.00  0.00    +0.000 C 
ATOM     16  C   UNL     1      -0.229   9.236  22.725  0.00  0.00    +0.000 C 
ATOM     17  C   UNL     1      -0.754  10.567  23.228  0.00  0.00    +0.000 C 
ATOM     18  O   UNL     1      -1.027  11.441  22.137  0.00  0.00    +0.000 OA
ATOM     19  C   UNL     1       0.157  11.753  21.407  0.00  0.00    +0.000 C 
ATOM     20  C   UNL     1       0.733  10.505  20.754  0.00  0.00    +0.000 C 
ENDBRANCH  12  15
ENDBRANCH   4   7
BRANCH   3  21
ATOM     21  C   UNL     1       2.969   3.673  19.261  0.00  0.00    +0.000 A 
ATOM     22  C   UNL     1       3.569   3.207  20.441  0.00  0.00    +0.000 A 
ATOM     23  C   UNL     1       2.784   2.750  21.500  0.00  0.00    +0.000 A 
ATOM     24  C   UNL     1       1.403   2.701  21.356  0.00  0.00    +0.000 A 
ATOM     25  F   UNL     1       0.649   2.281  22.381  0.00  0.00    +0.000 F 
ATOM     26  C   UNL     1       0.793   3.089  20.170  0.00  0.00    +0.000 A 
ATOM     27  C   UNL     1       1.575   3.574  19.121  0.00  0.00    +0.000 A 
ENDBRANCH   3  21
BRANCH   1  29
ATOM     28  C   UNL     1       7.341   5.297  15.409  0.00  0.00    +0.000 C 
ATOM     29  S   UNL     1       6.114   3.996  15.195  0.00  0.00    +0.000 S 
ATOM     30  O   UNL     1       5.272   4.246  13.892  0.00  0.00    +0.000 OA
ENDBRANCH   1  29
TORSDOF 4
ENDMDL
MODEL 4
REMARK VINA RESULT:      -7.9      0.996      1.470
REMARK  Name = 
REMARK  5 active torsions:
REMARK  status: ('A' for Active; 'I' for Inactive)
REMARK    1  A    between atoms: C_1  and  S_2
REMARK    2  A    between atoms: S_2  and  C_4
REMARK    3  A    between atoms: C_6  and  C_7
REMARK    4  A    between atoms: C_14  and  C_15
REMARK    5  A    between atoms: N_20  and  C_21
REMARK                            x       y       z     vdW  Elec       q    Type
REMARK                         _______ _______ _______ _____ _____    ______ ____
ROOT
ATOM      1  C   UNL     1       4.824   5.548  16.596  0.00  0.00    +0.000 A 
ATOM      2  N   UNL     1       4.386   4.533  17.308  0.00  0.00    +0.000 NA
ATOM      3  C   UNL     1       3.569   5.089  18.272  0.00  0.00    +0.000 A 
ATOM      4  C   UNL     1       3.474   6.472  18.117  0.00  0.00    +0.000 A 
ATOM      5  N   UNL     1       4.333   6.731  17.065  0.00  0.00    +0.000 N 
ATOM      6  H   UNL     1       4.529   7.629  16.641  0.00  0.00    +0.000 HD
ENDROOT
BRANCH   4   7
ATOM      7  C   UNL     1       2.662   7.520  18.746  0.00  0.00    +0.000 A 
ATOM      8  C   UNL     1       2.096   7.337  20.006  0.00  0.00    +0.000 A 
ATOM      9  C   UNL     1       1.330   8.350  20.548  0.00  0.00    +0.000 A 
ATOM     10  N   UNL     1       1.020   9.483  19.892  0.00  0.00    +0.000 NA
ATOM     11  C   UNL     1       1.536   9.657  18.664  0.00  0.00    +0.000 A 
ATOM     12  N   UNL     1       1.194  10.774  17.907  0.00  0.00    +0.000 N 
ATOM     13  C   UNL     1       2.394   8.720  18.085  0.00  0.00    +0.000 A 
ATOM     14  H   UNL     1       2.004  11.360  17.731  0.00  0.00    +0.000 HD
BRANCH  12  15
ATOM     15  C   UNL     1      -0.024  11.513  18.251  0.00  0.00    +0.000 C 
ATOM     16  C   UNL     1       0.286  12.273  19.549  0.00  0.00    +0.000 C 
ATOM     17  C   UNL     1      -0.959  12.883  20.162  0.00  0.00    +0.000 C 
ATOM     18  O   UNL     1      -1.967  11.893  20.337  0.00  0.00    +0.000 OA
ATOM     19  C   UNL     1      -2.389  11.347  19.089  0.00  0.00    +0.000 C 
ATOM     20  C   UNL     1      -1.246  10.605  18.411  0.00  0.00    +0.000 C 
ENDBRANCH  12  15
ENDBRANCH   4   7
BRANCH   3  21
ATOM     21  C   UNL     1       2.857   4.258  19.235  0.00  0.00    +0.000 A 
ATOM     22  C   UNL     1       3.512   3.658  20.321  0.00  0.00    +0.000 A 
ATOM     23  C   UNL     1       2.783   2.991  21.306  0.00  0.00    +0.000 A 
ATOM     24  C   UNL     1       1.405   2.870  21.173  0.00  0.00    +0.000 A 
ATOM     25  F   UNL     1       0.704   2.247  22.129  0.00  0.00    +0.000 F 
ATOM     26  C   UNL     1       0.745   3.394  20.069  0.00  0.00    +0.000 A 
ATOM     27  C   UNL     1       1.470   4.088  19.098  0.00  0.00    +0.000 A 
ENDBRANCH   3  21
BRANCH   1  29
ATOM     28  C   UNL     1       5.850   3.622  15.044  0.00  0.00    +0.000 C 
ATOM     29  S   UNL     1       5.836   5.417  15.196  0.00  0.00    +0.000 S 
ATOM     30  O   UNL     1       7.249   5.941  15.640  0.00  0.00    +0.000 OA
ENDBRANCH   1  29
TORSDOF 4
ENDMDL
MODEL 5
REMARK VINA RESULT:      -7.8      1.910      2.654
REMARK  Name = 
REMARK  5 active torsions:
REMARK  status: ('A' for Active; 'I' for Inactive)
REMARK    1  A    between atoms: C_1  and  S_2
REMARK    2  A    between atoms: S_2  and  C_4
REMARK    3  A    between atoms: C_6  and  C_7
REMARK    4  A    between atoms: C_14  and  C_15
REMARK    5  A    between atoms: N_20  and  C_21
REMARK                            x       y       z     vdW  Elec       q    Type
REMARK                         _______ _______ _______ _____ _____    ______ ____
ROOT
ATOM      1  C   UNL     1       4.964   5.713  16.738  0.00  0.00    +0.000 A 
ATOM      2  N   UNL     1       4.458   4.778  17.511  0.00  0.00    +0.000 NA
ATOM      3  C   UNL     1       3.505   5.416  18.280  0.00  0.00    +0.000 A 
ATOM      4  C   UNL     1       3.399   6.763  17.937  0.00  0.00    +0.000 A 
ATOM      5  N   UNL     1       4.386   6.925  16.982  0.00  0.00    +0.000 N 
ATOM      6  H   UNL     1       4.616   7.770  16.476  0.00  0.00    +0.000 HD
ENDROOT
BRANCH   4   7
ATOM      7  C   UNL     1       2.485   7.848  18.314  0.00  0.00    +0.000 A 
ATOM      8  C   UNL     1       2.225   8.908  17.448  0.00  0.00    +0.000 A 
ATOM      9  C   UNL     1       1.368   9.910  17.855  0.00  0.00    +0.000 A 
ATOM     10  N   UNL     1       0.826   9.973  19.086  0.00  0.00    +0.000 NA
ATOM     11  C   UNL     1       1.094   8.971  19.940  0.00  0.00    +0.000 A 
ATOM     12  N   UNL     1       0.623   9.016  21.249  0.00  0.00    +0.000 N 
ATOM     13  C   UNL     1       1.878   7.877  19.571  0.00  0.00    +0.000 A 
ATOM     14  H   UNL     1      -0.031   8.261  21.429  0.00  0.00    +0.000 HD
BRANCH  12  15
ATOM     15  C   UNL     1       0.223  10.310  21.811  0.00  0.00    +0.000 C 
ATOM     16  C   UNL     1      -0.785  10.002  22.927  0.00  0.00    +0.000 C 
ATOM     17  C   UNL     1      -1.475  11.254  23.432  0.00  0.00    +0.000 C 
ATOM     18  O   UNL     1      -2.062  11.971  22.350  0.00  0.00    +0.000 OA
ATOM     19  C   UNL     1      -1.076  12.429  21.429  0.00  0.00    +0.000 C 
ATOM     20  C   UNL     1      -0.372  11.254  20.763  0.00  0.00    +0.000 C 
ENDBRANCH  12  15
ENDBRANCH   4   7
BRANCH   3  21
ATOM     21  C   UNL     1       2.689   4.683  19.240  0.00  0.00    +0.000 A 
ATOM     22  C   UNL     1       1.572   3.933  18.841  0.00  0.00    +0.000 A 
ATOM     23  C   UNL     1       0.899   3.125  19.758  0.00  0.00    +0.000 A 
ATOM     24  C   UNL     1       1.303   3.116  21.087  0.00  0.00    +0.000 A 
ATOM     25  F   UNL     1       0.668   2.325  21.962  0.00  0.00    +0.000 F 
ATOM     26  C   UNL     1       2.360   3.907  21.519  0.00  0.00    +0.000 A 
ATOM     27  C   UNL     1       3.053   4.692  20.596  0.00  0.00    +0.000 A 
ENDBRANCH   3  21
BRANCH   1  29
ATOM     28  C   UNL     1       6.120   3.650  15.482  0.00  0.00    +0.000 C 
ATOM     29  S   UNL     1       6.158   5.451  15.511  0.00  0.00    +0.000 S 
ATOM     30  O   UNL     1       7.514   5.961  16.119  0.00  0.00    +0.000 OA
ENDBRANCH   1  29
TORSDOF 4
ENDMDL
MODEL 6
REMARK VINA RESULT:      -7.8      4.268      8.965
REMARK  Name = 
REMARK  5 active torsions:
REMARK  status: ('A' for Active; 'I' for Inactive)
REMARK    1  A    between atoms: C_1  and  S_2
REMARK    2  A    between atoms: S_2  and  C_4
REMARK    3  A    between atoms: C_6  and  C_7
REMARK    4  A    between atoms: C_14  and  C_15
REMARK    5  A    between atoms: N_20  and  C_21
REMARK                            x       y       z     vdW  Elec       q    Type
REMARK                         _______ _______ _______ _____ _____    ______ ____
ROOT
ATOM      1  C   UNL     1      -0.736  12.672  21.374  0.00  0.00    +0.000 A 
ATOM      2  N   UNL     1      -1.694  12.550  20.482  0.00  0.00    +0.000 NA
ATOM      3  C   UNL     1      -1.244  11.594  19.592  0.00  0.00    +0.000 A 
ATOM      4  C   UNL     1      -0.002  11.091  19.976  0.00  0.00    +0.000 A 
ATOM      5  N   UNL     1       0.311  11.843  21.094  0.00  0.00    +0.000 N 
ATOM      6  H   UNL     1       1.139  11.766  21.672  0.00  0.00    +0.000 HD
ENDROOT
BRANCH   4   7
ATOM      7  C   UNL     1       0.851   9.996  19.501  0.00  0.00    +0.000 A 
ATOM      8  C   UNL     1       1.444  10.036  18.242  0.00  0.00    +0.000 A 
ATOM      9  C   UNL     1       2.229   8.975  17.836  0.00  0.00    +0.000 A 
ATOM     10  N   UNL     1       2.389   7.849  18.556  0.00  0.00    +0.000 NA
ATOM     11  C   UNL     1       1.796   7.786  19.761  0.00  0.00    +0.000 A 
ATOM     12  N   UNL     1       1.864   6.622  20.520  0.00  0.00    +0.000 N 
ATOM     13  C   UNL     1       1.063   8.855  20.278  0.00  0.00    +0.000 A 
ATOM     14  H   UNL     1       2.368   6.779  21.387  0.00  0.00    +0.000 HD
BRANCH  12  15
ATOM     15  C   UNL     1       2.193   5.361  19.849  0.00  0.00    +0.000 C 
ATOM     16  C   UNL     1       1.335   4.279  20.520  0.00  0.00    +0.000 C 
ATOM     17  C   UNL     1       1.750   2.882  20.101  0.00  0.00    +0.000 C 
ATOM     18  O   UNL     1       3.143   2.688  20.321  0.00  0.00    +0.000 OA
ATOM     19  C   UNL     1       3.928   3.571  19.523  0.00  0.00    +0.000 C 
ATOM     20  C   UNL     1       3.683   5.020  19.921  0.00  0.00    +0.000 C 
ENDBRANCH  12  15
ENDBRANCH   4   7
BRANCH   3  21
ATOM     21  C   UNL     1      -2.067  11.154  18.472  0.00  0.00    +0.000 A 
ATOM     22  C   UNL     1      -3.340  11.694  18.232  0.00  0.00    +0.000 A 
ATOM     23  C   UNL     1      -4.042  11.362  17.073  0.00  0.00    +0.000 A 
ATOM     24  C   UNL     1      -3.499  10.441  16.185  0.00  0.00    +0.000 A 
ATOM     25  F   UNL     1      -4.164  10.138  15.063  0.00  0.00    +0.000 F 
ATOM     26  C   UNL     1      -2.274   9.839  16.440  0.00  0.00    +0.000 A 
ATOM     27  C   UNL     1      -1.557  10.194  17.584  0.00  0.00    +0.000 A 
ENDBRANCH   3  21
BRANCH   1  29
ATOM     28  C   UNL     1      -2.339  14.555  22.400  0.00  0.00    +0.000 C 
ATOM     29  S   UNL     1      -0.804  13.690  22.774  0.00  0.00    +0.000 S 
ATOM     30  O   UNL     1       0.420  14.668  22.650  0.00  0.00    +0.000 OA
ENDBRANCH   1  29
TORSDOF 4
ENDMDL
MODEL 7
REMARK VINA RESULT:      -7.7      2.321      2.982
REMARK  Name = 
REMARK  5 active torsions:
REMARK  status: ('A' for Active; 'I' for Inactive)
REMARK    1  A    between atoms: C_1  and  S_2
REMARK    2  A    between atoms: S_2  and  C_4
REMARK    3  A    between atoms: C_6  and  C_7
REMARK    4  A    between atoms: C_14  and  C_15
REMARK    5  A    between atoms: N_20  and  C_21
REMARK                            x       y       z     vdW  Elec       q    Type
REMARK                         _______ _______ _______ _____ _____    ______ ____
ROOT
ATOM      1  C   UNL     1       5.189   6.274  17.404  0.00  0.00    +0.000 A 
ATOM      2  N   UNL     1       4.698   5.270  18.097  0.00  0.00    +0.000 NA
ATOM      3  C   UNL     1       3.542   5.757  18.676  0.00  0.00    +0.000 A 
ATOM      4  C   UNL     1       3.301   7.075  18.291  0.00  0.00    +0.000 A 
ATOM      5  N   UNL     1       4.405   7.385  17.518  0.00  0.00    +0.000 N 
ATOM      6  H   UNL     1       4.594   8.258  17.041  0.00  0.00    +0.000 HD
ENDROOT
BRANCH   4   7
ATOM      7  C   UNL     1       2.186   8.011  18.480  0.00  0.00    +0.000 A 
ATOM      8  C   UNL     1       1.517   8.567  17.392  0.00  0.00    +0.000 A 
ATOM      9  C   UNL     1       0.483   9.452  17.623  0.00  0.00    +0.000 A 
ATOM     10  N   UNL     1       0.132   9.884  18.849  0.00  0.00    +0.000 NA
ATOM     11  C   UNL     1       0.790   9.376  19.904  0.00  0.00    +0.000 A 
ATOM     12  N   UNL     1       0.523   9.837  21.190  0.00  0.00    +0.000 N 
ATOM     13  C   UNL     1       1.786   8.409  19.756  0.00  0.00    +0.000 A 
ATOM     14  H   UNL     1       0.139   9.098  21.771  0.00  0.00    +0.000 HD
BRANCH  12  15
ATOM     15  C   UNL     1      -0.136  11.136  21.350  0.00  0.00    +0.000 C 
ATOM     16  C   UNL     1       0.942  12.200  21.101  0.00  0.00    +0.000 C 
ATOM     17  C   UNL     1       0.469  13.590  21.477  0.00  0.00    +0.000 C 
ATOM     18  O   UNL     1      -0.014  13.607  22.817  0.00  0.00    +0.000 OA
ATOM     19  C   UNL     1      -1.154  12.764  22.974  0.00  0.00    +0.000 C 
ATOM     20  C   UNL     1      -0.786  11.308  22.725  0.00  0.00    +0.000 C 
ENDBRANCH  12  15
ENDBRANCH   4   7
BRANCH   3  21
ATOM     21  C   UNL     1       2.688   4.907  19.495  0.00  0.00    +0.000 A 
ATOM     22  C   UNL     1       1.689   4.098  18.930  0.00  0.00    +0.000 A 
ATOM     23  C   UNL     1       0.987   3.187  19.719  0.00  0.00    +0.000 A 
ATOM     24  C   UNL     1       1.238   3.129  21.085  0.00  0.00    +0.000 A 
ATOM     25  F   UNL     1       0.577   2.240  21.838  0.00  0.00    +0.000 F 
ATOM     26  C   UNL     1       2.169   3.972  21.677  0.00  0.00    +0.000 A 
ATOM     27  C   UNL     1       2.894   4.862  20.883  0.00  0.00    +0.000 A 
ENDBRANCH   3  21
BRANCH   1  29
ATOM     28  C   UNL     1       7.180   4.560  16.890  0.00  0.00    +0.000 C 
ATOM     29  S   UNL     1       6.604   6.197  16.409  0.00  0.00    +0.000 S 
ATOM     30  O   UNL     1       7.574   7.303  16.960  0.00  0.00    +0.000 OA
ENDBRANCH   1  29
TORSDOF 4
ENDMDL
MODEL 8
REMARK VINA RESULT:      -7.5      3.964      8.695
REMARK  Name = 
REMARK  5 active torsions:
REMARK  status: ('A' for Active; 'I' for Inactive)
REMARK    1  A    between atoms: C_1  and  S_2
REMARK    2  A    between atoms: S_2  and  C_4
REMARK    3  A    between atoms: C_6  and  C_7
REMARK    4  A    between atoms: C_14  and  C_15
REMARK    5  A    between atoms: N_20  and  C_21
REMARK                            x       y       z     vdW  Elec       q    Type
REMARK                         _______ _______ _______ _____ _____    ______ ____
ROOT
ATOM      1  C   UNL     1       1.161  14.016  18.818  0.00  0.00    +0.000 A 
ATOM      2  N   UNL     1      -0.124  13.878  18.576  0.00  0.00    +0.000 NA
ATOM      3  C   UNL     1      -0.362  12.519  18.628  0.00  0.00    +0.000 A 
ATOM      4  C   UNL     1       0.797  11.816  18.953  0.00  0.00    +0.000 A 
ATOM      5  N   UNL     1       1.760  12.806  19.016  0.00  0.00    +0.000 N 
ATOM      6  H   UNL     1       2.741  12.694  19.242  0.00  0.00    +0.000 HD
ENDROOT
BRANCH   4   7
ATOM      7  C   UNL     1       1.089  10.414  19.274  0.00  0.00    +0.000 A 
ATOM      8  C   UNL     1       0.877   9.905  20.553  0.00  0.00    +0.000 A 
ATOM      9  C   UNL     1       1.180   8.583  20.807  0.00  0.00    +0.000 A 
ATOM     10  N   UNL     1       1.756   7.764  19.907  0.00  0.00    +0.000 NA
ATOM     11  C   UNL     1       1.993   8.253  18.678  0.00  0.00    +0.000 A 
ATOM     12  N   UNL     1       2.653   7.479  17.727  0.00  0.00    +0.000 N 
ATOM     13  C   UNL     1       1.631   9.552  18.318  0.00  0.00    +0.000 A 
ATOM     14  H   UNL     1       2.051   7.282  16.934  0.00  0.00    +0.000 HD
BRANCH  12  15
ATOM     15  C   UNL     1       3.452   6.337  18.179  0.00  0.00    +0.000 C 
ATOM     16  C   UNL     1       4.827   6.483  17.513  0.00  0.00    +0.000 C 
ATOM     17  C   UNL     1       5.679   5.241  17.688  0.00  0.00    +0.000 C 
ATOM     18  O   UNL     1       4.976   4.086  17.240  0.00  0.00    +0.000 OA
ATOM     19  C   UNL     1       3.804   3.852  18.016  0.00  0.00    +0.000 C 
ATOM     20  C   UNL     1       2.807   4.990  17.843  0.00  0.00    +0.000 C 
ENDBRANCH  12  15
ENDBRANCH   4   7
BRANCH   3  21
ATOM     21  C   UNL     1      -1.703  11.976  18.450  0.00  0.00    +0.000 A 
ATOM     22  C   UNL     1      -2.751  12.290  19.328  0.00  0.00    +0.000 A 
ATOM     23  C   UNL     1      -4.054  11.875  19.051  0.00  0.00    +0.000 A 
ATOM     24  C   UNL     1      -4.299  11.094  17.929  0.00  0.00    +0.000 A 
ATOM     25  F   UNL     1      -5.553  10.713  17.653  0.00  0.00    +0.000 F 
ATOM     26  C   UNL     1      -3.265  10.710  17.086  0.00  0.00    +0.000 A 
ATOM     27  C   UNL     1      -1.965  11.150  17.345  0.00  0.00    +0.000 A 
ENDBRANCH   3  21
BRANCH   1  29
ATOM     28  C   UNL     1       0.590  16.628  18.679  0.00  0.00    +0.000 C 
ATOM     29  S   UNL     1       1.992  15.530  18.948  0.00  0.00    +0.000 S 
ATOM     30  O   UNL     1       2.974  15.584  17.724  0.00  0.00    +0.000 OA
ENDBRANCH   1  29
TORSDOF 4
ENDMDL
MODEL 9
REMARK VINA RESULT:      -7.4      3.868      8.527
REMARK  Name = 
REMARK  5 active torsions:
REMARK  status: ('A' for Active; 'I' for Inactive)
REMARK    1  A    between atoms: C_1  and  S_2
REMARK    2  A    between atoms: S_2  and  C_4
REMARK    3  A    between atoms: C_6  and  C_7
REMARK    4  A    between atoms: C_14  and  C_15
REMARK    5  A    between atoms: N_20  and  C_21
REMARK                            x       y       z     vdW  Elec       q    Type
REMARK                         _______ _______ _______ _____ _____    ______ ____
ROOT
ATOM      1  C   UNL     1       1.390  13.764  18.776  0.00  0.00    +0.000 A 
ATOM      2  N   UNL     1       0.117  13.665  18.461  0.00  0.00    +0.000 NA
ATOM      3  C   UNL     1      -0.191  12.326  18.606  0.00  0.00    +0.000 A 
ATOM      4  C   UNL     1       0.908  11.601  19.062  0.00  0.00    +0.000 A 
ATOM      5  N   UNL     1       1.914  12.549  19.109  0.00  0.00    +0.000 N 
ATOM      6  H   UNL     1       2.872  12.412  19.407  0.00  0.00    +0.000 HD
ENDROOT
BRANCH   4   7
ATOM      7  C   UNL     1       1.110  10.219  19.512  0.00  0.00    +0.000 A 
ATOM      8  C   UNL     1       0.830   9.837  20.822  0.00  0.00    +0.000 A 
ATOM      9  C   UNL     1       1.049   8.527  21.199  0.00  0.00    +0.000 A 
ATOM     10  N   UNL     1       1.603   7.602  20.393  0.00  0.00    +0.000 NA
ATOM     11  C   UNL     1       1.905   7.968  19.136  0.00  0.00    +0.000 A 
ATOM     12  N   UNL     1       2.546   7.078  18.278  0.00  0.00    +0.000 N 
ATOM     13  C   UNL     1       1.629   9.248  18.653  0.00  0.00    +0.000 A 
ATOM     14  H   UNL     1       1.957   6.846  17.485  0.00  0.00    +0.000 HD
BRANCH  12  15
ATOM     15  C   UNL     1       3.264   5.938  18.854  0.00  0.00    +0.000 C 
ATOM     16  C   UNL     1       4.626   5.884  18.147  0.00  0.00    +0.000 C 
ATOM     17  C   UNL     1       5.380   4.606  18.460  0.00  0.00    +0.000 C 
ATOM     18  O   UNL     1       4.573   3.468  18.176  0.00  0.00    +0.000 OA
ATOM     19  C   UNL     1       3.410   3.432  18.999  0.00  0.00    +0.000 C 
ATOM     20  C   UNL     1       2.503   4.619  18.705  0.00  0.00    +0.000 C 
ENDBRANCH  12  15
ENDBRANCH   4   7
BRANCH   3  21
ATOM     21  C   UNL     1      -1.544  11.831  18.383  0.00  0.00    +0.000 A 
ATOM     22  C   UNL     1      -1.810  10.785  17.486  0.00  0.00    +0.000 A 
ATOM     23  C   UNL     1      -3.089  10.234  17.401  0.00  0.00    +0.000 A 
ATOM     24  C   UNL     1      -4.116  10.770  18.168  0.00  0.00    +0.000 A 
ATOM     25  F   UNL     1      -5.339  10.227  18.101  0.00  0.00    +0.000 F 
ATOM     26  C   UNL     1      -3.892  11.853  19.008  0.00  0.00    +0.000 A 
ATOM     27  C   UNL     1      -2.605  12.385  19.116  0.00  0.00    +0.000 A 
ENDBRANCH   3  21
BRANCH   1  29
ATOM     28  C   UNL     1       0.912  16.396  18.662  0.00  0.00    +0.000 C 
ATOM     29  S   UNL     1       2.286  15.245  18.840  0.00  0.00    +0.000 S 
ATOM     30  O   UNL     1       3.182  15.257  17.549  0.00  0.00    +0.000 OA
ENDBRANCH   1  29
TORSDOF 4
ENDMDL
