MODEL 1
REMARK VINA RESULT:      -6.7      0.000      0.000
REMARK  Name = 
REMARK  8 active torsions:
REMARK  status: ('A' for Active; 'I' for Inactive)
REMARK    1  A    between atoms: C_1  and  C_2
REMARK    2  A    between atoms: C_2  and  C_3
REMARK    3  A    between atoms: C_3  and  C_4
REMARK    4  A    between atoms: C_9  and  N_10
REMARK    5  A    between atoms: C_14  and  C_16
REMARK    6  A    between atoms: C_17  and  N_18
REMARK    7  A    between atoms: N_21  and  C_22
REMARK    8  A    between atoms: C_22  and  C_23
REMARK                            x       y       z     vdW  Elec       q    Type
REMARK                         _______ _______ _______ _____ _____    ______ ____
ROOT
ATOM      1  N   UNL     1       1.403   9.235  20.246  0.00  0.00    +0.000 NA
ATOM      2  C   UNL     1       2.041  10.475  19.707  0.00  0.00    +0.000 C 
ATOM      3  C   UNL     1       1.121  11.563  19.029  0.00  0.00    +0.000 C 
ATOM      4  N   UNL     1      -0.196  11.721  19.712  0.00  0.00    +0.000 N 
ATOM      5  C   UNL     1      -1.098  12.705  19.268  0.00  0.00    +0.000 C 
ATOM      6  O   UNL     1      -0.824  13.470  18.352  0.00  0.00    +0.000 OA
ATOM      7  C   UNL     1      -0.723  10.425  20.032  0.00  0.00    +0.000 C 
ATOM      8  C   UNL     1       0.195   9.627  20.950  0.00  0.00    +0.000 C 
ENDROOT
BRANCH   5   9
ATOM      9  C   UNL     1      -2.454  12.727  19.906  0.00  0.00    +0.000 A 
ATOM     10  C   UNL     1      -3.622  12.453  19.192  0.00  0.00    +0.000 A 
ATOM     11  S   UNL     1      -4.984  12.415  20.204  0.00  0.00    +0.000 S 
ATOM     12  C   UNL     1      -4.098  12.702  21.623  0.00  0.00    +0.000 A 
ATOM     13  C   UNL     1      -4.600  12.692  22.940  0.00  0.00    +0.000 A 
ATOM     14  C   UNL     1      -3.725  12.880  24.011  0.00  0.00    +0.000 A 
ATOM     15  C   UNL     1      -2.396  13.161  23.772  0.00  0.00    +0.000 A 
ATOM     16  C   UNL     1      -1.939  13.286  22.455  0.00  0.00    +0.000 A 
ATOM     17  C   UNL     1      -2.763  12.964  21.336  0.00  0.00    +0.000 A 
BRANCH  10  18
ATOM     18  N   UNL     1      -3.772  12.193  17.824  0.00  0.00    +0.000 N 
ATOM     19  C   UNL     1      -3.564  10.970  17.205  0.00  0.00    +0.000 C 
ATOM     20  O   UNL     1      -3.202   9.919  17.733  0.00  0.00    +0.000 OA
ATOM     21  N   UNL     1      -3.780  11.009  15.837  0.00  0.00    +0.000 N 
ATOM     22  H   UNL     1      -4.031  12.984  17.247  0.00  0.00    +0.000 HD
ATOM     23  H   UNL     1      -4.442  11.693  15.501  0.00  0.00    +0.000 HD
BRANCH  21  24
ATOM     24  C   UNL     1      -3.649   9.759  15.104  0.00  0.00    +0.000 C 
ATOM     25  C   UNL     1      -2.913   9.907  13.788  0.00  0.00    +0.000 C 
ENDBRANCH  21  24
ENDBRANCH  10  18
ENDBRANCH   5   9
BRANCH   1  31
ATOM     26  C   UNL     1       4.834   5.772  18.116  0.00  0.00    +0.000 C 
ATOM     27  O   UNL     1       5.275   4.981  18.959  0.00  0.00    +0.000 OA
ATOM     28  N   UNL     1       3.660   6.491  18.344  0.00  0.00    +0.000 N 
ATOM     29  C   UNL     1       3.168   6.301  19.687  0.00  0.00    +0.000 C 
ATOM     30  C   UNL     1       1.700   6.664  19.870  0.00  0.00    +0.000 C 
ATOM     31  C   UNL     1       1.287   8.052  19.359  0.00  0.00    +0.000 C 
ATOM     32  C   UNL     1       1.921   8.241  17.942  0.00  0.00    +0.000 C 
ATOM     33  C   UNL     1       3.393   7.816  17.777  0.00  0.00    +0.000 C 
BRANCH  26  34
ATOM     34  C   UNL     1       5.582   5.978  16.816  0.00  0.00    +0.000 C 
BRANCH  34  36
ATOM     35  C   UNL     1       7.530   7.474  17.454  0.00  0.00    +0.000 C 
ATOM     36  C   UNL     1       7.077   6.065  17.144  0.00  0.00    +0.000 C 
ENDBRANCH  34  36
ENDBRANCH  26  34
ENDBRANCH   1  31
TORSDOF 6
ENDMDL
MODEL 2
REMARK VINA RESULT:      -6.5      2.437      3.257
REMARK  Name = 
REMARK  8 active torsions:
REMARK  status: ('A' for Active; 'I' for Inactive)
REMARK    1  A    between atoms: C_1  and  C_2
REMARK    2  A    between atoms: C_2  and  C_3
REMARK    3  A    between atoms: C_3  and  C_4
REMARK    4  A    between atoms: C_9  and  N_10
REMARK    5  A    between atoms: C_14  and  C_16
REMARK    6  A    between atoms: C_17  and  N_18
REMARK    7  A    between atoms: N_21  and  C_22
REMARK    8  A    between atoms: C_22  and  C_23
REMARK                            x       y       z     vdW  Elec       q    Type
REMARK                         _______ _______ _______ _____ _____    ______ ____
ROOT
ATOM      1  N   UNL     1       0.839  11.096  20.896  0.00  0.00    +0.000 NA
ATOM      2  C   UNL     1       1.349  12.205  20.032  0.00  0.00    +0.000 C 
ATOM      3  C   UNL     1       0.366  13.380  19.654  0.00  0.00    +0.000 C 
ATOM      4  N   UNL     1      -0.549  13.757  20.771  0.00  0.00    +0.000 N 
ATOM      5  C   UNL     1      -1.435  14.838  20.611  0.00  0.00    +0.000 C 
ATOM      6  O   UNL     1      -1.459  15.511  19.588  0.00  0.00    +0.000 OA
ATOM      7  C   UNL     1      -1.049  12.567  21.396  0.00  0.00    +0.000 C 
ATOM      8  C   UNL     1       0.059  11.691  21.966  0.00  0.00    +0.000 C 
ENDROOT
BRANCH   5   9
ATOM      9  C   UNL     1      -2.418  15.085  21.715  0.00  0.00    +0.000 A 
ATOM     10  C   UNL     1      -3.794  14.925  21.541  0.00  0.00    +0.000 A 
ATOM     11  S   UNL     1      -4.641  15.137  22.997  0.00  0.00    +0.000 S 
ATOM     12  C   UNL     1      -3.242  15.393  23.923  0.00  0.00    +0.000 A 
ATOM     13  C   UNL     1      -3.180  15.536  25.325  0.00  0.00    +0.000 A 
ATOM     14  C   UNL     1      -1.939  15.674  25.947  0.00  0.00    +0.000 A 
ATOM     15  C   UNL     1      -0.792  15.756  25.185  0.00  0.00    +0.000 A 
ATOM     16  C   UNL     1      -0.883  15.733  23.789  0.00  0.00    +0.000 A 
ATOM     17  C   UNL     1      -2.111  15.453  23.117  0.00  0.00    +0.000 A 
BRANCH  10  18
ATOM     18  N   UNL     1      -4.498  14.600  20.376  0.00  0.00    +0.000 N 
ATOM     19  C   UNL     1      -4.785  13.317  19.935  0.00  0.00    +0.000 C 
ATOM     20  O   UNL     1      -4.466  12.256  20.469  0.00  0.00    +0.000 OA
ATOM     21  N   UNL     1      -5.490  13.297  18.742  0.00  0.00    +0.000 N 
ATOM     22  H   UNL     1      -4.794  15.381  19.802  0.00  0.00    +0.000 HD
ATOM     23  H   UNL     1      -6.080  14.092  18.550  0.00  0.00    +0.000 HD
BRANCH  21  24
ATOM     24  C   UNL     1      -5.896  11.998  18.227  0.00  0.00    +0.000 C 
ATOM     25  C   UNL     1      -5.035  11.507  17.082  0.00  0.00    +0.000 C 
ENDBRANCH  21  24
ENDBRANCH  10  18
ENDBRANCH   5   9
BRANCH   1  31
ATOM     26  C   UNL     1       2.695   6.369  19.310  0.00  0.00    +0.000 C 
ATOM     27  O   UNL     1       2.926   5.619  20.267  0.00  0.00    +0.000 OA
ATOM     28  N   UNL     1       1.856   7.476  19.446  0.00  0.00    +0.000 N 
ATOM     29  C   UNL     1       1.460   7.684  20.817  0.00  0.00    +0.000 C 
ATOM     30  C   UNL     1       0.223   8.556  20.984  0.00  0.00    +0.000 C 
ATOM     31  C   UNL     1       0.250   9.901  20.243  0.00  0.00    +0.000 C 
ATOM     32  C   UNL     1       0.771   9.632  18.795  0.00  0.00    +0.000 C 
ATOM     33  C   UNL     1       1.994   8.703  18.656  0.00  0.00    +0.000 C 
BRANCH  26  34
ATOM     34  C   UNL     1       3.340   6.094  17.968  0.00  0.00    +0.000 C 
BRANCH  34  36
ATOM     35  C   UNL     1       1.814   4.100  17.602  0.00  0.00    +0.000 C 
ATOM     36  C   UNL     1       3.242   4.588  17.701  0.00  0.00    +0.000 C 
ENDBRANCH  34  36
ENDBRANCH  26  34
ENDBRANCH   1  31
TORSDOF 6
ENDMDL
MODEL 3
REMARK VINA RESULT:      -6.5      4.222      5.972
REMARK  Name = 
REMARK  8 active torsions:
REMARK  status: ('A' for Active; 'I' for Inactive)
REMARK    1  A    between atoms: C_1  and  C_2
REMARK    2  A    between atoms: C_2  and  C_3
REMARK    3  A    between atoms: C_3  and  C_4
REMARK    4  A    between atoms: C_9  and  N_10
REMARK    5  A    between atoms: C_14  and  C_16
REMARK    6  A    between atoms: C_17  and  N_18
REMARK    7  A    between atoms: N_21  and  C_22
REMARK    8  A    between atoms: C_22  and  C_23
REMARK                            x       y       z     vdW  Elec       q    Type
REMARK                         _______ _______ _______ _____ _____    ______ ____
ROOT
ATOM      1  N   UNL     1       1.840  14.708  18.853  0.00  0.00    +0.000 NA
ATOM      2  C   UNL     1       2.111  13.255  18.620  0.00  0.00    +0.000 C 
ATOM      3  C   UNL     1       1.238  12.192  19.393  0.00  0.00    +0.000 C 
ATOM      4  N   UNL     1      -0.190  12.602  19.536  0.00  0.00    +0.000 N 
ATOM      5  C   UNL     1      -1.109  11.724  20.139  0.00  0.00    +0.000 C 
ATOM      6  O   UNL     1      -0.783  10.609  20.526  0.00  0.00    +0.000 OA
ATOM      7  C   UNL     1      -0.251  13.989  19.896  0.00  0.00    +0.000 C 
ATOM      8  C   UNL     1       0.401  14.895  18.860  0.00  0.00    +0.000 C 
ENDROOT
BRANCH   5   9
ATOM      9  C   UNL     1      -2.495  12.243  20.373  0.00  0.00    +0.000 A 
ATOM     10  C   UNL     1      -3.421  12.396  19.339  0.00  0.00    +0.000 A 
ATOM     11  S   UNL     1      -4.944  12.867  19.922  0.00  0.00    +0.000 S 
ATOM     12  C   UNL     1      -4.472  12.837  21.552  0.00  0.00    +0.000 A 
ATOM     13  C   UNL     1      -5.309  13.029  22.671  0.00  0.00    +0.000 A 
ATOM     14  C   UNL     1      -4.778  12.907  23.956  0.00  0.00    +0.000 A 
ATOM     15  C   UNL     1      -3.427  12.686  24.124  0.00  0.00    +0.000 A 
ATOM     16  C   UNL     1      -2.590  12.618  23.005  0.00  0.00    +0.000 A 
ATOM     17  C   UNL     1      -3.108  12.597  21.675  0.00  0.00    +0.000 A 
BRANCH  10  18
ATOM     18  N   UNL     1      -3.245  12.186  17.966  0.00  0.00    +0.000 N 
ATOM     19  C   UNL     1      -3.227  10.954  17.331  0.00  0.00    +0.000 C 
ATOM     20  O   UNL     1      -3.345   9.845  17.851  0.00  0.00    +0.000 OA
ATOM     21  N   UNL     1      -3.025  11.050  15.964  0.00  0.00    +0.000 N 
ATOM     22  H   UNL     1      -3.092  13.016  17.405  0.00  0.00    +0.000 HD
ATOM     23  H   UNL     1      -3.340  11.897  15.516  0.00  0.00    +0.000 HD
BRANCH  21  24
ATOM     24  C   UNL     1      -3.053   9.814  15.195  0.00  0.00    +0.000 C 
ATOM     25  C   UNL     1      -3.137  10.036  13.699  0.00  0.00    +0.000 C 
ENDBRANCH  21  24
ENDBRANCH  10  18
ENDBRANCH   5   9
BRANCH   1  31
ATOM     26  C   UNL     1       6.750  16.708  19.301  0.00  0.00    +0.000 C 
ATOM     27  O   UNL     1       6.885  17.750  18.649  0.00  0.00    +0.000 OA
ATOM     28  N   UNL     1       5.485  16.232  19.650  0.00  0.00    +0.000 N 
ATOM     29  C   UNL     1       4.434  17.005  19.035  0.00  0.00    +0.000 C 
ATOM     30  C   UNL     1       3.074  16.852  19.703  0.00  0.00    +0.000 C 
ATOM     31  C   UNL     1       2.597  15.408  19.920  0.00  0.00    +0.000 C 
ATOM     32  C   UNL     1       3.798  14.596  20.502  0.00  0.00    +0.000 C 
ATOM     33  C   UNL     1       5.172  14.813  19.836  0.00  0.00    +0.000 C 
BRANCH  26  34
ATOM     34  C   UNL     1       7.973  15.922  19.723  0.00  0.00    +0.000 C 
BRANCH  34  36
ATOM     35  C   UNL     1       9.652  15.757  21.619  0.00  0.00    +0.000 C 
ATOM     36  C   UNL     1       8.365  16.385  21.131  0.00  0.00    +0.000 C 
ENDBRANCH  34  36
ENDBRANCH  26  34
ENDBRANCH   1  31
TORSDOF 6
ENDMDL
MODEL 4
REMARK VINA RESULT:      -6.5      3.537      7.410
REMARK  Name = 
REMARK  8 active torsions:
REMARK  status: ('A' for Active; 'I' for Inactive)
REMARK    1  A    between atoms: C_1  and  C_2
REMARK    2  A    between atoms: C_2  and  C_3
REMARK    3  A    between atoms: C_3  and  C_4
REMARK    4  A    between atoms: C_9  and  N_10
REMARK    5  A    between atoms: C_14  and  C_16
REMARK    6  A    between atoms: C_17  and  N_18
REMARK    7  A    between atoms: N_21  and  C_22
REMARK    8  A    between atoms: C_22  and  C_23
REMARK                            x       y       z     vdW  Elec       q    Type
REMARK                         _______ _______ _______ _____ _____    ______ ____
ROOT
ATOM      1  N   UNL     1      -7.550  12.996  19.596  0.00  0.00    +0.000 NA
ATOM      2  C   UNL     1      -7.605  12.444  20.985  0.00  0.00    +0.000 C 
ATOM      3  C   UNL     1      -6.250  12.223  21.763  0.00  0.00    +0.000 C 
ATOM      4  N   UNL     1      -5.245  13.294  21.499  0.00  0.00    +0.000 N 
ATOM      5  C   UNL     1      -4.013  13.275  22.177  0.00  0.00    +0.000 C 
ATOM      6  O   UNL     1      -3.746  12.421  23.013  0.00  0.00    +0.000 OA
ATOM      7  C   UNL     1      -5.233  13.597  20.097  0.00  0.00    +0.000 C 
ATOM      8  C   UNL     1      -6.585  14.080  19.588  0.00  0.00    +0.000 C 
ENDROOT
BRANCH   5   9
ATOM      9  C   UNL     1      -2.995  14.297  21.773  0.00  0.00    +0.000 A 
ATOM     10  C   UNL     1      -2.064  14.067  20.758  0.00  0.00    +0.000 A 
ATOM     11  S   UNL     1      -1.137  15.450  20.428  0.00  0.00    +0.000 S 
ATOM     12  C   UNL     1      -1.948  16.421  21.560  0.00  0.00    +0.000 A 
ATOM     13  C   UNL     1      -1.763  17.805  21.762  0.00  0.00    +0.000 A 
ATOM     14  C   UNL     1      -2.560  18.476  22.689  0.00  0.00    +0.000 A 
ATOM     15  C   UNL     1      -3.459  17.771  23.463  0.00  0.00    +0.000 A 
ATOM     16  C   UNL     1      -3.543  16.381  23.334  0.00  0.00    +0.000 A 
ATOM     17  C   UNL     1      -2.853  15.674  22.304  0.00  0.00    +0.000 A 
BRANCH  10  18
ATOM     18  N   UNL     1      -1.852  12.901  20.012  0.00  0.00    +0.000 N 
ATOM     19  C   UNL     1      -0.819  11.995  20.202  0.00  0.00    +0.000 C 
ATOM     20  O   UNL     1       0.086  12.060  21.033  0.00  0.00    +0.000 OA
ATOM     21  N   UNL     1      -0.854  10.938  19.308  0.00  0.00    +0.000 N 
ATOM     22  H   UNL     1      -2.503  12.734  19.254  0.00  0.00    +0.000 HD
ATOM     23  H   UNL     1      -1.759  10.675  18.949  0.00  0.00    +0.000 HD
BRANCH  21  24
ATOM     24  C   UNL     1       0.152   9.897  19.466  0.00  0.00    +0.000 C 
ATOM     25  C   UNL     1       0.814   9.496  18.163  0.00  0.00    +0.000 C 
ENDBRANCH  21  24
ENDBRANCH  10  18
ENDBRANCH   5   9
BRANCH   1  31
ATOM     26  C   UNL     1      -3.625  10.519  16.996  0.00  0.00    +0.000 C 
ATOM     27  O   UNL     1      -3.130   9.605  17.667  0.00  0.00    +0.000 OA
ATOM     28  N   UNL     1      -4.888  11.033  17.293  0.00  0.00    +0.000 N 
ATOM     29  C   UNL     1      -5.415  10.482  18.518  0.00  0.00    +0.000 C 
ATOM     30  C   UNL     1      -6.923  10.631  18.670  0.00  0.00    +0.000 C 
ATOM     31  C   UNL     1      -7.478  12.047  18.457  0.00  0.00    +0.000 C 
ATOM     32  C   UNL     1      -6.807  12.629  17.171  0.00  0.00    +0.000 C 
ATOM     33  C   UNL     1      -5.288  12.417  17.023  0.00  0.00    +0.000 C 
BRANCH  26  34
ATOM     34  C   UNL     1      -2.848  11.102  15.835  0.00  0.00    +0.000 C 
BRANCH  34  36
ATOM     35  C   UNL     1      -3.985  10.017  13.842  0.00  0.00    +0.000 C 
ATOM     36  C   UNL     1      -2.767  10.032  14.739  0.00  0.00    +0.000 C 
ENDBRANCH  34  36
ENDBRANCH  26  34
ENDBRANCH   1  31
TORSDOF 6
ENDMDL
MODEL 5
REMARK VINA RESULT:      -6.4      2.613      3.460
REMARK  Name = 
REMARK  8 active torsions:
REMARK  status: ('A' for Active; 'I' for Inactive)
REMARK    1  A    between atoms: C_1  and  C_2
REMARK    2  A    between atoms: C_2  and  C_3
REMARK    3  A    between atoms: C_3  and  C_4
REMARK    4  A    between atoms: C_9  and  N_10
REMARK    5  A    between atoms: C_14  and  C_16
REMARK    6  A    between atoms: C_17  and  N_18
REMARK    7  A    between atoms: N_21  and  C_22
REMARK    8  A    between atoms: C_22  and  C_23
REMARK                            x       y       z     vdW  Elec       q    Type
REMARK                         _______ _______ _______ _____ _____    ______ ____
ROOT
ATOM      1  N   UNL     1       0.931  11.151  20.092  0.00  0.00    +0.000 NA
ATOM      2  C   UNL     1       0.788  12.338  19.192  0.00  0.00    +0.000 C 
ATOM      3  C   UNL     1      -0.511  13.225  19.314  0.00  0.00    +0.000 C 
ATOM      4  N   UNL     1      -0.980  13.382  20.722  0.00  0.00    +0.000 N 
ATOM      5  C   UNL     1      -2.086  14.206  21.000  0.00  0.00    +0.000 C 
ATOM      6  O   UNL     1      -2.663  14.834  20.122  0.00  0.00    +0.000 OA
ATOM      7  C   UNL     1      -0.903  12.115  21.391  0.00  0.00    +0.000 C 
ATOM      8  C   UNL     1       0.512  11.551  21.423  0.00  0.00    +0.000 C 
ENDROOT
BRANCH   5   9
ATOM      9  C   UNL     1      -2.590  14.219  22.410  0.00  0.00    +0.000 A 
ATOM     10  C   UNL     1      -3.610  13.371  22.849  0.00  0.00    +0.000 A 
ATOM     11  S   UNL     1      -3.871  13.512  24.520  0.00  0.00    +0.000 S 
ATOM     12  C   UNL     1      -2.629  14.646  24.749  0.00  0.00    +0.000 A 
ATOM     13  C   UNL     1      -2.179  15.158  25.983  0.00  0.00    +0.000 A 
ATOM     14  C   UNL     1      -1.096  16.037  26.009  0.00  0.00    +0.000 A 
ATOM     15  C   UNL     1      -0.530  16.466  24.826  0.00  0.00    +0.000 A 
ATOM     16  C   UNL     1      -1.066  16.042  23.606  0.00  0.00    +0.000 A 
ATOM     17  C   UNL     1      -2.078  15.038  23.534  0.00  0.00    +0.000 A 
BRANCH  10  18
ATOM     18  N   UNL     1      -4.367  12.456  22.108  0.00  0.00    +0.000 N 
ATOM     19  C   UNL     1      -5.463  12.764  21.316  0.00  0.00    +0.000 C 
ATOM     20  O   UNL     1      -5.965  13.873  21.137  0.00  0.00    +0.000 OA
ATOM     21  N   UNL     1      -6.022  11.653  20.706  0.00  0.00    +0.000 N 
ATOM     22  H   UNL     1      -4.094  11.483  22.190  0.00  0.00    +0.000 HD
ATOM     23  H   UNL     1      -5.404  10.879  20.516  0.00  0.00    +0.000 HD
BRANCH  21  24
ATOM     24  C   UNL     1      -7.140  11.879  19.801  0.00  0.00    +0.000 C 
ATOM     25  C   UNL     1      -6.951  11.242  18.440  0.00  0.00    +0.000 C 
ENDBRANCH  21  24
ENDBRANCH  10  18
ENDBRANCH   5   9
BRANCH   1  31
ATOM     26  C   UNL     1       3.197   6.541  18.709  0.00  0.00    +0.000 C 
ATOM     27  O   UNL     1       3.621   5.921  19.692  0.00  0.00    +0.000 OA
ATOM     28  N   UNL     1       2.243   7.550  18.846  0.00  0.00    +0.000 N 
ATOM     29  C   UNL     1       1.970   7.844  20.232  0.00  0.00    +0.000 C 
ATOM     30  C   UNL     1       0.657   8.577  20.467  0.00  0.00    +0.000 C 
ATOM     31  C   UNL     1       0.434   9.836  19.617  0.00  0.00    +0.000 C 
ATOM     32  C   UNL     1       0.829   9.488  18.145  0.00  0.00    +0.000 C 
ATOM     33  C   UNL     1       2.139   8.700  17.944  0.00  0.00    +0.000 C 
BRANCH  26  34
ATOM     34  C   UNL     1       3.727   6.212  17.329  0.00  0.00    +0.000 C 
BRANCH  34  36
ATOM     35  C   UNL     1       6.119   5.608  16.734  0.00  0.00    +0.000 C 
ATOM     36  C   UNL     1       5.187   6.674  17.265  0.00  0.00    +0.000 C 
ENDBRANCH  34  36
ENDBRANCH  26  34
ENDBRANCH   1  31
TORSDOF 6
ENDMDL
MODEL 6
REMARK VINA RESULT:      -6.3      2.972      4.380
REMARK  Name = 
REMARK  8 active torsions:
REMARK  status: ('A' for Active; 'I' for Inactive)
REMARK    1  A    between atoms: C_1  and  C_2
REMARK    2  A    between atoms: C_2  and  C_3
REMARK    3  A    between atoms: C_3  and  C_4
REMARK    4  A    between atoms: C_9  and  N_10
REMARK    5  A    between atoms: C_14  and  C_16
REMARK    6  A    between atoms: C_17  and  N_18
REMARK    7  A    between atoms: N_21  and  C_22
REMARK    8  A    between atoms: C_22  and  C_23
REMARK                            x       y       z     vdW  Elec       q    Type
REMARK                         _______ _______ _______ _____ _____    ______ ____
ROOT
ATOM      1  N   UNL     1       0.387   8.401  20.258  0.00  0.00    +0.000 NA
ATOM      2  C   UNL     1      -0.323   8.699  21.541  0.00  0.00    +0.000 C 
ATOM      3  C   UNL     1      -0.104  10.108  22.215  0.00  0.00    +0.000 C 
ATOM      4  N   UNL     1      -0.002  11.219  21.224  0.00  0.00    +0.000 N 
ATOM      5  C   UNL     1       0.122  12.546  21.675  0.00  0.00    +0.000 C 
ATOM      6  O   UNL     1       0.113  12.829  22.866  0.00  0.00    +0.000 OA
ATOM      7  C   UNL     1       0.828  10.803  20.130  0.00  0.00    +0.000 C 
ATOM      8  C   UNL     1       0.282   9.576  19.411  0.00  0.00    +0.000 C 
ENDROOT
BRANCH   5   9
ATOM      9  C   UNL     1       0.353  13.601  20.637  0.00  0.00    +0.000 A 
ATOM     10  C   UNL     1      -0.651  14.026  19.765  0.00  0.00    +0.000 A 
ATOM     11  S   UNL     1      -0.138  15.325  18.799  0.00  0.00    +0.000 S 
ATOM     12  C   UNL     1       1.397  15.420  19.517  0.00  0.00    +0.000 A 
ATOM     13  C   UNL     1       2.379  16.401  19.268  0.00  0.00    +0.000 A 
ATOM     14  C   UNL     1       3.571  16.380  19.993  0.00  0.00    +0.000 A 
ATOM     15  C   UNL     1       3.817  15.354  20.882  0.00  0.00    +0.000 A 
ATOM     16  C   UNL     1       2.883  14.323  21.028  0.00  0.00    +0.000 A 
ATOM     17  C   UNL     1       1.596  14.378  20.416  0.00  0.00    +0.000 A 
BRANCH  10  18
ATOM     18  N   UNL     1      -1.960  13.546  19.634  0.00  0.00    +0.000 N 
ATOM     19  C   UNL     1      -2.373  12.548  18.765  0.00  0.00    +0.000 C 
ATOM     20  O   UNL     1      -1.682  11.929  17.958  0.00  0.00    +0.000 OA
ATOM     21  N   UNL     1      -3.731  12.285  18.846  0.00  0.00    +0.000 N 
ATOM     22  H   UNL     1      -2.659  13.996  20.214  0.00  0.00    +0.000 HD
ATOM     23  H   UNL     1      -4.176  12.463  19.734  0.00  0.00    +0.000 HD
BRANCH  21  24
ATOM     24  C   UNL     1      -4.254  11.208  18.019  0.00  0.00    +0.000 C 
ATOM     25  C   UNL     1      -5.763  11.225  17.889  0.00  0.00    +0.000 C 
ENDBRANCH  21  24
ENDBRANCH  10  18
ENDBRANCH   5   9
BRANCH   1  31
ATOM     26  C   UNL     1       2.490   3.911  18.330  0.00  0.00    +0.000 C 
ATOM     27  O   UNL     1       2.679   3.977  17.109  0.00  0.00    +0.000 OA
ATOM     28  N   UNL     1       2.326   5.064  19.099  0.00  0.00    +0.000 N 
ATOM     29  C   UNL     1       2.255   6.249  18.280  0.00  0.00    +0.000 C 
ATOM     30  C   UNL     1       2.532   7.544  19.031  0.00  0.00    +0.000 C 
ATOM     31  C   UNL     1       1.721   7.755  20.318  0.00  0.00    +0.000 C 
ATOM     32  C   UNL     1       1.756   6.415  21.123  0.00  0.00    +0.000 C 
ATOM     33  C   UNL     1       1.523   5.118  20.324  0.00  0.00    +0.000 C 
BRANCH  26  34
ATOM     34  C   UNL     1       2.422   2.559  19.007  0.00  0.00    +0.000 C 
BRANCH  34  36
ATOM     35  C   UNL     1       4.546   2.123  20.325  0.00  0.00    +0.000 C 
ATOM     36  C   UNL     1       3.834   1.960  19.001  0.00  0.00    +0.000 C 
ENDBRANCH  34  36
ENDBRANCH  26  34
ENDBRANCH   1  31
TORSDOF 6
ENDMDL
MODEL 7
REMARK VINA RESULT:      -6.3      2.380      3.163
REMARK  Name = 
REMARK  8 active torsions:
REMARK  status: ('A' for Active; 'I' for Inactive)
REMARK    1  A    between atoms: C_1  and  C_2
REMARK    2  A    between atoms: C_2  and  C_3
REMARK    3  A    between atoms: C_3  and  C_4
REMARK    4  A    between atoms: C_9  and  N_10
REMARK    5  A    between atoms: C_14  and  C_16
REMARK    6  A    between atoms: C_17  and  N_18
REMARK    7  A    between atoms: N_21  and  C_22
REMARK    8  A    between atoms: C_22  and  C_23
REMARK                            x       y       z     vdW  Elec       q    Type
REMARK                         _______ _______ _______ _____ _____    ______ ____
ROOT
ATOM      1  N   UNL     1       1.023  11.421  20.584  0.00  0.00    +0.000 NA
ATOM      2  C   UNL     1       1.479  12.568  19.741  0.00  0.00    +0.000 C 
ATOM      3  C   UNL     1       0.463  13.738  19.445  0.00  0.00    +0.000 C 
ATOM      4  N   UNL     1      -0.412  14.059  20.610  0.00  0.00    +0.000 N 
ATOM      5  C   UNL     1      -1.322  15.129  20.523  0.00  0.00    +0.000 C 
ATOM      6  O   UNL     1      -1.398  15.837  19.527  0.00  0.00    +0.000 OA
ATOM      7  C   UNL     1      -0.868  12.839  21.211  0.00  0.00    +0.000 C 
ATOM      8  C   UNL     1       0.276  11.963  21.705  0.00  0.00    +0.000 C 
ENDROOT
BRANCH   5   9
ATOM      9  C   UNL     1      -2.264  15.319  21.673  0.00  0.00    +0.000 A 
ATOM     10  C   UNL     1      -3.638  15.098  21.559  0.00  0.00    +0.000 A 
ATOM     11  S   UNL     1      -4.427  15.256  23.054  0.00  0.00    +0.000 S 
ATOM     12  C   UNL     1      -3.000  15.567  23.920  0.00  0.00    +0.000 A 
ATOM     13  C   UNL     1      -2.881  15.699  25.319  0.00  0.00    +0.000 A 
ATOM     14  C   UNL     1      -1.620  15.887  25.886  0.00  0.00    +0.000 A 
ATOM     15  C   UNL     1      -0.514  16.030  25.074  0.00  0.00    +0.000 A 
ATOM     16  C   UNL     1      -0.668  16.017  23.684  0.00  0.00    +0.000 A 
ATOM     17  C   UNL     1      -1.911  15.687  23.065  0.00  0.00    +0.000 A 
BRANCH  10  18
ATOM     18  N   UNL     1      -4.379  14.752  20.423  0.00  0.00    +0.000 N 
ATOM     19  C   UNL     1      -4.791  13.472  20.084  0.00  0.00    +0.000 C 
ATOM     20  O   UNL     1      -4.570  12.431  20.700  0.00  0.00    +0.000 OA
ATOM     21  N   UNL     1      -5.503  13.427  18.896  0.00  0.00    +0.000 N 
ATOM     22  H   UNL     1      -4.603  15.511  19.790  0.00  0.00    +0.000 HD
ATOM     23  H   UNL     1      -6.016  14.258  18.643  0.00  0.00    +0.000 HD
BRANCH  21  24
ATOM     24  C   UNL     1      -6.036  12.137  18.485  0.00  0.00    +0.000 C 
ATOM     25  C   UNL     1      -5.272  11.508  17.338  0.00  0.00    +0.000 C 
ENDBRANCH  21  24
ENDBRANCH  10  18
ENDBRANCH   5   9
BRANCH   1  31
ATOM     26  C   UNL     1       2.889   6.780  18.771  0.00  0.00    +0.000 C 
ATOM     27  O   UNL     1       3.166   6.002  19.692  0.00  0.00    +0.000 OA
ATOM     28  N   UNL     1       2.039   7.868  18.975  0.00  0.00    +0.000 N 
ATOM     29  C   UNL     1       1.691   8.023  20.366  0.00  0.00    +0.000 C 
ATOM     30  C   UNL     1       0.448   8.869  20.608  0.00  0.00    +0.000 C 
ATOM     31  C   UNL     1       0.428  10.239  19.913  0.00  0.00    +0.000 C 
ATOM     32  C   UNL     1       0.899  10.027  18.438  0.00  0.00    +0.000 C 
ATOM     33  C   UNL     1       2.129   9.123  18.223  0.00  0.00    +0.000 C 
BRANCH  26  34
ATOM     34  C   UNL     1       3.488   6.561  17.398  0.00  0.00    +0.000 C 
BRANCH  34  36
ATOM     35  C   UNL     1       5.755   6.097  16.356  0.00  0.00    +0.000 C 
ATOM     36  C   UNL     1       5.009   6.708  17.521  0.00  0.00    +0.000 C 
ENDBRANCH  34  36
ENDBRANCH  26  34
ENDBRANCH   1  31
TORSDOF 6
ENDMDL
MODEL 8
REMARK VINA RESULT:      -6.3      1.018      1.251
REMARK  Name = 
REMARK  8 active torsions:
REMARK  status: ('A' for Active; 'I' for Inactive)
REMARK    1  A    between atoms: C_1  and  C_2
REMARK    2  A    between atoms: C_2  and  C_3
REMARK    3  A    between atoms: C_3  and  C_4
REMARK    4  A    between atoms: C_9  and  N_10
REMARK    5  A    between atoms: C_14  and  C_16
REMARK    6  A    between atoms: C_17  and  N_18
REMARK    7  A    between atoms: N_21  and  C_22
REMARK    8  A    between atoms: C_22  and  C_23
REMARK                            x       y       z     vdW  Elec       q    Type
REMARK                         _______ _______ _______ _____ _____    ______ ____
ROOT
ATOM      1  N   UNL     1       1.000   8.320  21.219  0.00  0.00    +0.000 NA
ATOM      2  C   UNL     1       1.954   9.467  21.111  0.00  0.00    +0.000 C 
ATOM      3  C   UNL     1       1.468  10.786  20.395  0.00  0.00    +0.000 C 
ATOM      4  N   UNL     1       0.042  11.116  20.683  0.00  0.00    +0.000 N 
ATOM      5  C   UNL     1      -0.515  12.303  20.174  0.00  0.00    +0.000 C 
ATOM      6  O   UNL     1       0.145  13.103  19.523  0.00  0.00    +0.000 OA
ATOM      7  C   UNL     1      -0.746   9.919  20.608  0.00  0.00    +0.000 C 
ATOM      8  C   UNL     1      -0.295   8.854  21.599  0.00  0.00    +0.000 C 
ENDROOT
BRANCH   5   9
ATOM      9  C   UNL     1      -1.984  12.513  20.385  0.00  0.00    +0.000 A 
ATOM     10  C   UNL     1      -2.910  12.432  19.343  0.00  0.00    +0.000 A 
ATOM     11  S   UNL     1      -4.505  12.576  19.905  0.00  0.00    +0.000 S 
ATOM     12  C   UNL     1      -4.055  12.697  21.538  0.00  0.00    +0.000 A 
ATOM     13  C   UNL     1      -4.926  12.734  22.646  0.00  0.00    +0.000 A 
ATOM     14  C   UNL     1      -4.396  12.766  23.936  0.00  0.00    +0.000 A 
ATOM     15  C   UNL     1      -3.031  12.850  24.117  0.00  0.00    +0.000 A 
ATOM     16  C   UNL     1      -2.188  12.935  23.004  0.00  0.00    +0.000 A 
ATOM     17  C   UNL     1      -2.673  12.763  21.673  0.00  0.00    +0.000 A 
BRANCH  10  18
ATOM     18  N   UNL     1      -2.676  12.226  17.978  0.00  0.00    +0.000 N 
ATOM     19  C   UNL     1      -2.812  11.021  17.306  0.00  0.00    +0.000 C 
ATOM     20  O   UNL     1      -3.139   9.935  17.782  0.00  0.00    +0.000 OA
ATOM     21  N   UNL     1      -2.505  11.113  15.958  0.00  0.00    +0.000 N 
ATOM     22  H   UNL     1      -2.356  13.033  17.455  0.00  0.00    +0.000 HD
ATOM     23  H   UNL     1      -2.651  12.010  15.519  0.00  0.00    +0.000 HD
BRANCH  21  24
ATOM     24  C   UNL     1      -2.677   9.915  15.150  0.00  0.00    +0.000 C 
ATOM     25  C   UNL     1      -3.685  10.083  14.031  0.00  0.00    +0.000 C 
ENDBRANCH  21  24
ENDBRANCH  10  18
ENDBRANCH   5   9
BRANCH   1  31
ATOM     26  C   UNL     1       4.736   5.543  18.645  0.00  0.00    +0.000 C 
ATOM     27  O   UNL     1       5.229   4.659  19.357  0.00  0.00    +0.000 OA
ATOM     28  N   UNL     1       3.503   6.118  18.955  0.00  0.00    +0.000 N 
ATOM     29  C   UNL     1       3.009   5.669  20.233  0.00  0.00    +0.000 C 
ATOM     30  C   UNL     1       1.514   5.879  20.432  0.00  0.00    +0.000 C 
ATOM     31  C   UNL     1       0.996   7.296  20.146  0.00  0.00    +0.000 C 
ATOM     32  C   UNL     1       1.632   7.768  18.799  0.00  0.00    +0.000 C 
ATOM     33  C   UNL     1       3.137   7.494  18.607  0.00  0.00    +0.000 C 
BRANCH  26  34
ATOM     34  C   UNL     1       5.484   6.020  17.418  0.00  0.00    +0.000 C 
BRANCH  34  36
ATOM     35  C   UNL     1       5.716   4.004  15.894  0.00  0.00    +0.000 C 
ATOM     36  C   UNL     1       4.932   5.259  16.207  0.00  0.00    +0.000 C 
ENDBRANCH  34  36
ENDBRANCH  26  34
ENDBRANCH   1  31
TORSDOF 6
ENDMDL
MODEL 9
REMARK VINA RESULT:      -6.3      4.794      7.610
REMARK  Name = 
REMARK  8 active torsions:
REMARK  status: ('A' for Active; 'I' for Inactive)
REMARK    1  A    between atoms: C_1  and  C_2
REMARK    2  A    between atoms: C_2  and  C_3
REMARK    3  A    between atoms: C_3  and  C_4
REMARK    4  A    between atoms: C_9  and  N_10
REMARK    5  A    between atoms: C_14  and  C_16
REMARK    6  A    between atoms: C_17  and  N_18
REMARK    7  A    between atoms: N_21  and  C_22
REMARK    8  A    between atoms: C_22  and  C_23
REMARK                            x       y       z     vdW  Elec       q    Type
REMARK                         _______ _______ _______ _____ _____    ______ ____
ROOT
ATOM      1  N   UNL     1       1.852  13.963  19.138  0.00  0.00    +0.000 NA
ATOM      2  C   UNL     1       1.888  13.198  20.423  0.00  0.00    +0.000 C 
ATOM      3  C   UNL     1       0.524  12.874  21.146  0.00  0.00    +0.000 C 
ATOM      4  N   UNL     1      -0.578  12.547  20.194  0.00  0.00    +0.000 N 
ATOM      5  C   UNL     1      -1.837  12.165  20.691  0.00  0.00    +0.000 C 
ATOM      6  O   UNL     1      -2.055  12.056  21.891  0.00  0.00    +0.000 OA
ATOM      7  C   UNL     1      -0.542  13.468  19.094  0.00  0.00    +0.000 C 
ATOM      8  C   UNL     1       0.775  13.421  18.330  0.00  0.00    +0.000 C 
ENDROOT
BRANCH   5   9
ATOM      9  C   UNL     1      -2.938  11.979  19.692  0.00  0.00    +0.000 A 
ATOM     10  C   UNL     1      -4.172  12.621  19.809  0.00  0.00    +0.000 A 
ATOM     11  S   UNL     1      -5.163  12.330  18.461  0.00  0.00    +0.000 S 
ATOM     12  C   UNL     1      -4.002  11.398  17.647  0.00  0.00    +0.000 A 
ATOM     13  C   UNL     1      -4.108  10.885  16.337  0.00  0.00    +0.000 A 
ATOM     14  C   UNL     1      -3.032  10.192  15.782  0.00  0.00    +0.000 A 
ATOM     15  C   UNL     1      -1.910   9.937  16.543  0.00  0.00    +0.000 A 
ATOM     16  C   UNL     1      -1.871  10.349  17.879  0.00  0.00    +0.000 A 
ATOM     17  C   UNL     1      -2.884  11.181  18.444  0.00  0.00    +0.000 A 
BRANCH  10  18
ATOM     18  N   UNL     1      -4.635  13.450  20.838  0.00  0.00    +0.000 N 
ATOM     19  C   UNL     1      -5.515  13.078  21.843  0.00  0.00    +0.000 C 
ATOM     20  O   UNL     1      -6.047  11.981  21.999  0.00  0.00    +0.000 OA
ATOM     21  N   UNL     1      -5.803  14.110  22.721  0.00  0.00    +0.000 N 
ATOM     22  H   UNL     1      -4.309  14.409  20.817  0.00  0.00    +0.000 HD
ATOM     23  H   UNL     1      -5.093  14.816  22.842  0.00  0.00    +0.000 HD
BRANCH  21  24
ATOM     24  C   UNL     1      -6.669  13.804  23.851  0.00  0.00    +0.000 C 
ATOM     25  C   UNL     1      -7.895  14.690  23.928  0.00  0.00    +0.000 C 
ENDBRANCH  21  24
ENDBRANCH  10  18
ENDBRANCH   5   9
BRANCH   1  31
ATOM     26  C   UNL     1       5.826  17.455  19.695  0.00  0.00    +0.000 C 
ATOM     27  O   UNL     1       6.517  17.537  18.671  0.00  0.00    +0.000 OA
ATOM     28  N   UNL     1       4.536  16.924  19.656  0.00  0.00    +0.000 N 
ATOM     29  C   UNL     1       4.222  16.374  18.360  0.00  0.00    +0.000 C 
ATOM     30  C   UNL     1       2.732  16.198  18.102  0.00  0.00    +0.000 C 
ATOM     31  C   UNL     1       1.952  15.442  19.189  0.00  0.00    +0.000 C 
ATOM     32  C   UNL     1       2.397  16.014  20.573  0.00  0.00    +0.000 C 
ATOM     33  C   UNL     1       3.908  16.229  20.784  0.00  0.00    +0.000 C 
BRANCH  26  34
ATOM     34  C   UNL     1       6.388  17.930  21.018  0.00  0.00    +0.000 C 
BRANCH  34  36
ATOM     35  C   UNL     1       8.584  17.811  22.283  0.00  0.00    +0.000 C 
ATOM     36  C   UNL     1       7.660  17.124  21.303  0.00  0.00    +0.000 C 
ENDBRANCH  34  36
ENDBRANCH  26  34
ENDBRANCH   1  31
TORSDOF 6
ENDMDL
