MODEL 1
REMARK VINA RESULT:      -8.8      0.000      0.000
REMARK  Name = 
REMARK  10 active torsions:
REMARK  status: ('A' for Active; 'I' for Inactive)
REMARK    1  A    between atoms: C_1  and  O_2
REMARK    2  A    between atoms: O_2  and  C_3
REMARK    3  A    between atoms: C_8  and  C_9
REMARK    4  A    between atoms: C_9  and  C_11
REMARK    5  A    between atoms: C_12  and  C_13
REMARK    6  A    between atoms: C_16  and  C_17
REMARK    7  A    between atoms: C_18  and  C_19
REMARK    8  A    between atoms: C_19  and  C_21
REMARK    9  A    between atoms: C_26  and  O_27
REMARK   10  A    between atoms: O_27  and  C_28
REMARK                            x       y       z     vdW  Elec       q    Type
REMARK                         _______ _______ _______ _____ _____    ______ ____
ROOT
ATOM      1  C   UNL     1       2.625   7.345  18.725  0.00  0.00    +0.000 A 
ATOM      2  C   UNL     1       2.077   7.503  20.006  0.00  0.00    +0.000 A 
ATOM      3  C   UNL     1       1.259   8.605  20.312  0.00  0.00    +0.000 A 
ATOM      4  C   UNL     1       1.000   9.585  19.350  0.00  0.00    +0.000 A 
ATOM      5  C   UNL     1       1.562   9.433  18.076  0.00  0.00    +0.000 A 
ATOM      6  C   UNL     1       2.368   8.335  17.770  0.00  0.00    +0.000 A 
ENDROOT
BRANCH   1   8
ATOM      7  C   UNL     1       4.016   5.373  19.355  0.00  0.00    +0.000 C 
ATOM      8  C   UNL     1       3.543   6.236  18.437  0.00  0.00    +0.000 C 
BRANCH   7   9
ATOM      9  C   UNL     1       4.781   4.185  18.887  0.00  0.00    +0.000 C 
ATOM     10  O   UNL     1       4.881   3.183  19.593  0.00  0.00    +0.000 OA
BRANCH   9  16
ATOM     11  C   UNL     1       6.890   4.601  17.485  0.00  0.00    +0.000 A 
ATOM     12  C   UNL     1       7.443   4.743  16.201  0.00  0.00    +0.000 A 
ATOM     13  C   UNL     1       6.685   4.486  15.055  0.00  0.00    +0.000 A 
ATOM     14  C   UNL     1       5.361   4.087  15.175  0.00  0.00    +0.000 A 
ATOM     15  C   UNL     1       4.788   3.975  16.440  0.00  0.00    +0.000 A 
ATOM     16  C   UNL     1       5.537   4.238  17.603  0.00  0.00    +0.000 A 
BRANCH  11  18
ATOM     17  C   UNL     1       7.892   6.233  18.887  0.00  0.00    +0.000 C 
ATOM     18  O   UNL     1       7.599   4.861  18.628  0.00  0.00    +0.000 OA
ENDBRANCH  11  18
ENDBRANCH   9  16
ENDBRANCH   7   9
ENDBRANCH   1   8
BRANCH   4  19
ATOM     19  C   UNL     1       0.067  10.690  19.623  0.00  0.00    +0.000 C 
ATOM     20  C   UNL     1      -0.960  10.996  18.811  0.00  0.00    +0.000 C 
BRANCH  20  21
ATOM     21  C   UNL     1      -2.030  11.934  19.277  0.00  0.00    +0.000 C 
ATOM     22  O   UNL     1      -1.785  12.702  20.200  0.00  0.00    +0.000 OA
BRANCH  21  23
ATOM     23  C   UNL     1      -3.399  11.833  18.673  0.00  0.00    +0.000 A 
ATOM     24  C   UNL     1      -4.495  12.121  19.527  0.00  0.00    +0.000 A 
ATOM     25  C   UNL     1      -5.819  12.058  19.088  0.00  0.00    +0.000 A 
ATOM     26  C   UNL     1      -6.086  11.742  17.769  0.00  0.00    +0.000 A 
ATOM     27  C   UNL     1      -5.025  11.491  16.903  0.00  0.00    +0.000 A 
ATOM     28  C   UNL     1      -3.676  11.524  17.326  0.00  0.00    +0.000 A 
BRANCH  28  29
ATOM     29  O   UNL     1      -2.879  11.206  16.263  0.00  0.00    +0.000 OA
ATOM     30  C   UNL     1      -2.796   9.904  15.725  0.00  0.00    +0.000 C 
ENDBRANCH  28  29
ENDBRANCH  21  23
ENDBRANCH  20  21
ENDBRANCH   4  19
TORSDOF 8
ENDMDL
MODEL 2
REMARK VINA RESULT:      -8.5      0.783     10.641
REMARK  Name = 
REMARK  10 active torsions:
REMARK  status: ('A' for Active; 'I' for Inactive)
REMARK    1  A    between atoms: C_1  and  O_2
REMARK    2  A    between atoms: O_2  and  C_3
REMARK    3  A    between atoms: C_8  and  C_9
REMARK    4  A    between atoms: C_9  and  C_11
REMARK    5  A    between atoms: C_12  and  C_13
REMARK    6  A    between atoms: C_16  and  C_17
REMARK    7  A    between atoms: C_18  and  C_19
REMARK    8  A    between atoms: C_19  and  C_21
REMARK    9  A    between atoms: C_26  and  O_27
REMARK   10  A    between atoms: O_27  and  C_28
REMARK                            x       y       z     vdW  Elec       q    Type
REMARK                         _______ _______ _______ _____ _____    ______ ____
ROOT
ATOM      1  C   UNL     1       0.867   9.448  19.658  0.00  0.00    +0.000 A 
ATOM      2  C   UNL     1       0.997   8.579  20.750  0.00  0.00    +0.000 A 
ATOM      3  C   UNL     1       1.789   7.420  20.663  0.00  0.00    +0.000 A 
ATOM      4  C   UNL     1       2.440   7.094  19.470  0.00  0.00    +0.000 A 
ATOM      5  C   UNL     1       2.296   7.957  18.375  0.00  0.00    +0.000 A 
ATOM      6  C   UNL     1       1.516   9.111  18.465  0.00  0.00    +0.000 A 
ENDROOT
BRANCH   1   8
ATOM      7  C   UNL     1      -0.085  11.592  18.813  0.00  0.00    +0.000 C 
ATOM      8  C   UNL     1      -0.025  10.611  19.732  0.00  0.00    +0.000 C 
BRANCH   7   9
ATOM      9  C   UNL     1      -1.171  12.604  18.921  0.00  0.00    +0.000 C 
ATOM     10  O   UNL     1      -0.915  13.776  19.192  0.00  0.00    +0.000 OA
BRANCH   9  16
ATOM     11  C   UNL     1      -3.168  11.536  17.714  0.00  0.00    +0.000 A 
ATOM     12  C   UNL     1      -4.556  11.321  17.695  0.00  0.00    +0.000 A 
ATOM     13  C   UNL     1      -5.361  11.699  18.773  0.00  0.00    +0.000 A 
ATOM     14  C   UNL     1      -4.791  12.302  19.886  0.00  0.00    +0.000 A 
ATOM     15  C   UNL     1      -3.420  12.554  19.905  0.00  0.00    +0.000 A 
ATOM     16  C   UNL     1      -2.598  12.185  18.822  0.00  0.00    +0.000 A 
BRANCH  11  18
ATOM     17  C   UNL     1      -3.007  10.844  15.448  0.00  0.00    +0.000 C 
ATOM     18  O   UNL     1      -2.352  11.193  16.667  0.00  0.00    +0.000 OA
ENDBRANCH  11  18
ENDBRANCH   9  16
ENDBRANCH   7   9
ENDBRANCH   1   8
BRANCH   4  19
ATOM     19  C   UNL     1       3.351   5.942  19.392  0.00  0.00    +0.000 C 
ATOM     20  C   UNL     1       3.133   4.892  18.580  0.00  0.00    +0.000 C 
BRANCH  20  21
ATOM     21  C   UNL     1       4.223   3.895  18.335  0.00  0.00    +0.000 C 
ATOM     22  O   UNL     1       4.308   2.916  19.068  0.00  0.00    +0.000 OA
BRANCH  21  23
ATOM     23  C   UNL     1       5.240   4.177  17.270  0.00  0.00    +0.000 A 
ATOM     24  C   UNL     1       4.776   4.177  15.929  0.00  0.00    +0.000 A 
ATOM     25  C   UNL     1       5.624   4.422  14.847  0.00  0.00    +0.000 A 
ATOM     26  C   UNL     1       6.955   4.713  15.075  0.00  0.00    +0.000 A 
ATOM     27  C   UNL     1       7.426   4.754  16.385  0.00  0.00    +0.000 A 
ATOM     28  C   UNL     1       6.596   4.487  17.499  0.00  0.00    +0.000 A 
BRANCH  28  29
ATOM     29  O   UNL     1       7.351   4.575  18.634  0.00  0.00    +0.000 OA
ATOM     30  C   UNL     1       7.777   5.804  19.182  0.00  0.00    +0.000 C 
ENDBRANCH  28  29
ENDBRANCH  21  23
ENDBRANCH  20  21
ENDBRANCH   4  19
TORSDOF 8
ENDMDL
MODEL 3
REMARK VINA RESULT:      -8.5      0.779      1.204
REMARK  Name = 
REMARK  10 active torsions:
REMARK  status: ('A' for Active; 'I' for Inactive)
REMARK    1  A    between atoms: C_1  and  O_2
REMARK    2  A    between atoms: O_2  and  C_3
REMARK    3  A    between atoms: C_8  and  C_9
REMARK    4  A    between atoms: C_9  and  C_11
REMARK    5  A    between atoms: C_12  and  C_13
REMARK    6  A    between atoms: C_16  and  C_17
REMARK    7  A    between atoms: C_18  and  C_19
REMARK    8  A    between atoms: C_19  and  C_21
REMARK    9  A    between atoms: C_26  and  O_27
REMARK   10  A    between atoms: O_27  and  C_28
REMARK                            x       y       z     vdW  Elec       q    Type
REMARK                         _______ _______ _______ _____ _____    ______ ____
ROOT
ATOM      1  C   UNL     1       2.451   7.340  19.324  0.00  0.00    +0.000 A 
ATOM      2  C   UNL     1       2.267   8.189  18.223  0.00  0.00    +0.000 A 
ATOM      3  C   UNL     1       1.427   9.313  18.309  0.00  0.00    +0.000 A 
ATOM      4  C   UNL     1       0.730   9.590  19.489  0.00  0.00    +0.000 A 
ATOM      5  C   UNL     1       0.903   8.730  20.582  0.00  0.00    +0.000 A 
ATOM      6  C   UNL     1       1.744   7.619  20.499  0.00  0.00    +0.000 A 
ENDROOT
BRANCH   1   8
ATOM      7  C   UNL     1       2.920   5.038  18.489  0.00  0.00    +0.000 C 
ATOM      8  C   UNL     1       3.265   6.125  19.201  0.00  0.00    +0.000 C 
BRANCH   7   9
ATOM      9  C   UNL     1       3.930   3.961  18.298  0.00  0.00    +0.000 C 
ATOM     10  O   UNL     1       3.886   2.930  18.968  0.00  0.00    +0.000 OA
BRANCH   9  16
ATOM     11  C   UNL     1       6.363   4.588  17.773  0.00  0.00    +0.000 A 
ATOM     12  C   UNL     1       7.319   4.877  16.785  0.00  0.00    +0.000 A 
ATOM     13  C   UNL     1       7.029   4.711  15.428  0.00  0.00    +0.000 A 
ATOM     14  C   UNL     1       5.777   4.256  15.037  0.00  0.00    +0.000 A 
ATOM     15  C   UNL     1       4.806   3.998  16.005  0.00  0.00    +0.000 A 
ATOM     16  C   UNL     1       5.082   4.169  17.375  0.00  0.00    +0.000 A 
BRANCH  11  18
ATOM     17  C   UNL     1       7.650   5.671  19.449  0.00  0.00    +0.000 C 
ATOM     18  O   UNL     1       6.609   4.757  19.111  0.00  0.00    +0.000 OA
ENDBRANCH  11  18
ENDBRANCH   9  16
ENDBRANCH   7   9
ENDBRANCH   1   8
BRANCH   4  19
ATOM     19  C   UNL     1      -0.073  10.814  19.628  0.00  0.00    +0.000 C 
ATOM     20  C   UNL     1      -1.119  11.097  18.831  0.00  0.00    +0.000 C 
BRANCH  20  21
ATOM     21  C   UNL     1      -2.062  12.202  19.194  0.00  0.00    +0.000 C 
ATOM     22  O   UNL     1      -1.609  13.235  19.672  0.00  0.00    +0.000 OA
BRANCH  21  23
ATOM     23  C   UNL     1      -3.537  11.970  19.063  0.00  0.00    +0.000 A 
ATOM     24  C   UNL     1      -4.370  12.616  20.013  0.00  0.00    +0.000 A 
ATOM     25  C   UNL     1      -5.760  12.478  20.002  0.00  0.00    +0.000 A 
ATOM     26  C   UNL     1      -6.362  11.719  19.017  0.00  0.00    +0.000 A 
ATOM     27  C   UNL     1      -5.568  11.106  18.052  0.00  0.00    +0.000 A 
ATOM     28  C   UNL     1      -4.158  11.209  18.052  0.00  0.00    +0.000 A 
BRANCH  28  29
ATOM     29  O   UNL     1      -3.668  10.477  17.008  0.00  0.00    +0.000 OA
ATOM     30  C   UNL     1      -3.671  10.941  15.675  0.00  0.00    +0.000 C 
ENDBRANCH  28  29
ENDBRANCH  21  23
ENDBRANCH  20  21
ENDBRANCH   4  19
TORSDOF 8
ENDMDL
MODEL 4
REMARK VINA RESULT:      -8.5      0.974      1.131
REMARK  Name = 
REMARK  10 active torsions:
REMARK  status: ('A' for Active; 'I' for Inactive)
REMARK    1  A    between atoms: C_1  and  O_2
REMARK    2  A    between atoms: O_2  and  C_3
REMARK    3  A    between atoms: C_8  and  C_9
REMARK    4  A    between atoms: C_9  and  C_11
REMARK    5  A    between atoms: C_12  and  C_13
REMARK    6  A    between atoms: C_16  and  C_17
REMARK    7  A    between atoms: C_18  and  C_19
REMARK    8  A    between atoms: C_19  and  C_21
REMARK    9  A    between atoms: C_26  and  O_27
REMARK   10  A    between atoms: O_27  and  C_28
REMARK                            x       y       z     vdW  Elec       q    Type
REMARK                         _______ _______ _______ _____ _____    ______ ____
ROOT
ATOM      1  C   UNL     1       2.438   6.983  19.127  0.00  0.00    +0.000 A 
ATOM      2  C   UNL     1       1.927   7.218  20.412  0.00  0.00    +0.000 A 
ATOM      3  C   UNL     1       1.225   8.400  20.708  0.00  0.00    +0.000 A 
ATOM      4  C   UNL     1       1.049   9.383  19.730  0.00  0.00    +0.000 A 
ATOM      5  C   UNL     1       1.574   9.153  18.451  0.00  0.00    +0.000 A 
ATOM      6  C   UNL     1       2.264   7.976  18.157  0.00  0.00    +0.000 A 
ENDROOT
BRANCH   1   8
ATOM      7  C   UNL     1       2.883   4.806  17.997  0.00  0.00    +0.000 C 
ATOM      8  C   UNL     1       3.238   5.785  18.849  0.00  0.00    +0.000 C 
BRANCH   7   9
ATOM      9  C   UNL     1       3.881   3.751  17.669  0.00  0.00    +0.000 C 
ATOM     10  O   UNL     1       3.778   2.619  18.139  0.00  0.00    +0.000 OA
BRANCH   9  16
ATOM     11  C   UNL     1       6.329   4.473  17.397  0.00  0.00    +0.000 A 
ATOM     12  C   UNL     1       7.344   4.893  16.521  0.00  0.00    +0.000 A 
ATOM     13  C   UNL     1       7.152   4.888  15.137  0.00  0.00    +0.000 A 
ATOM     14  C   UNL     1       5.940   4.466  14.607  0.00  0.00    +0.000 A 
ATOM     15  C   UNL     1       4.911   4.078  15.465  0.00  0.00    +0.000 A 
ATOM     16  C   UNL     1       5.089   4.086  16.862  0.00  0.00    +0.000 A 
BRANCH  11  18
ATOM     17  C   UNL     1       7.164   5.605  19.310  0.00  0.00    +0.000 C 
ATOM     18  O   UNL     1       6.478   4.481  18.760  0.00  0.00    +0.000 OA
ENDBRANCH  11  18
ENDBRANCH   9  16
ENDBRANCH   7   9
ENDBRANCH   1   8
BRANCH   4  19
ATOM     19  C   UNL     1       0.233  10.578  19.993  0.00  0.00    +0.000 C 
ATOM     20  C   UNL     1       0.225  11.651  19.183  0.00  0.00    +0.000 C 
BRANCH  20  21
ATOM     21  C   UNL     1      -0.825  12.706  19.346  0.00  0.00    +0.000 C 
ATOM     22  O   UNL     1      -0.494  13.815  19.749  0.00  0.00    +0.000 OA
BRANCH  21  23
ATOM     23  C   UNL     1      -2.262  12.344  19.116  0.00  0.00    +0.000 A 
ATOM     24  C   UNL     1      -3.192  12.770  20.099  0.00  0.00    +0.000 A 
ATOM     25  C   UNL     1      -4.557  12.493  20.003  0.00  0.00    +0.000 A 
ATOM     26  C   UNL     1      -5.040  11.814  18.901  0.00  0.00    +0.000 A 
ATOM     27  C   UNL     1      -4.151  11.418  17.905  0.00  0.00    +0.000 A 
ATOM     28  C   UNL     1      -2.761  11.663  17.987  0.00  0.00    +0.000 A 
BRANCH  28  29
ATOM     29  O   UNL     1      -2.160  11.131  16.882  0.00  0.00    +0.000 OA
ATOM     30  C   UNL     1      -2.525   9.883  16.333  0.00  0.00    +0.000 C 
ENDBRANCH  28  29
ENDBRANCH  21  23
ENDBRANCH  20  21
ENDBRANCH   4  19
TORSDOF 8
ENDMDL
MODEL 5
REMARK VINA RESULT:      -8.3      1.119      1.941
REMARK  Name = 
REMARK  10 active torsions:
REMARK  status: ('A' for Active; 'I' for Inactive)
REMARK    1  A    between atoms: C_1  and  O_2
REMARK    2  A    between atoms: O_2  and  C_3
REMARK    3  A    between atoms: C_8  and  C_9
REMARK    4  A    between atoms: C_9  and  C_11
REMARK    5  A    between atoms: C_12  and  C_13
REMARK    6  A    between atoms: C_16  and  C_17
REMARK    7  A    between atoms: C_18  and  C_19
REMARK    8  A    between atoms: C_19  and  C_21
REMARK    9  A    between atoms: C_26  and  O_27
REMARK   10  A    between atoms: O_27  and  C_28
REMARK                            x       y       z     vdW  Elec       q    Type
REMARK                         _______ _______ _______ _____ _____    ______ ____
ROOT
ATOM      1  C   UNL     1       2.676   7.416  18.624  0.00  0.00    +0.000 A 
ATOM      2  C   UNL     1       2.027   7.568  19.857  0.00  0.00    +0.000 A 
ATOM      3  C   UNL     1       1.222   8.691  20.119  0.00  0.00    +0.000 A 
ATOM      4  C   UNL     1       1.079   9.699  19.161  0.00  0.00    +0.000 A 
ATOM      5  C   UNL     1       1.742   9.552  17.935  0.00  0.00    +0.000 A 
ATOM      6  C   UNL     1       2.534   8.433  17.673  0.00  0.00    +0.000 A 
ENDROOT
BRANCH   1   8
ATOM      7  C   UNL     1       3.981   5.413  19.334  0.00  0.00    +0.000 C 
ATOM      8  C   UNL     1       3.577   6.282  18.389  0.00  0.00    +0.000 C 
BRANCH   7   9
ATOM      9  C   UNL     1       4.736   4.202  18.912  0.00  0.00    +0.000 C 
ATOM     10  O   UNL     1       4.806   3.216  19.645  0.00  0.00    +0.000 OA
BRANCH   9  16
ATOM     11  C   UNL     1       6.887   4.529  17.551  0.00  0.00    +0.000 A 
ATOM     12  C   UNL     1       7.472   4.635  16.278  0.00  0.00    +0.000 A 
ATOM     13  C   UNL     1       6.732   4.386  15.119  0.00  0.00    +0.000 A 
ATOM     14  C   UNL     1       5.393   4.031  15.215  0.00  0.00    +0.000 A 
ATOM     15  C   UNL     1       4.789   3.956  16.470  0.00  0.00    +0.000 A 
ATOM     16  C   UNL     1       5.522   4.212  17.645  0.00  0.00    +0.000 A 
BRANCH  11  18
ATOM     17  C   UNL     1       7.840   6.157  18.994  0.00  0.00    +0.000 C 
ATOM     18  O   UNL     1       7.580   4.784  18.706  0.00  0.00    +0.000 OA
ENDBRANCH  11  18
ENDBRANCH   9  16
ENDBRANCH   7   9
ENDBRANCH   1   8
BRANCH   4  19
ATOM     19  C   UNL     1       0.164  10.830  19.379  0.00  0.00    +0.000 C 
ATOM     20  C   UNL     1      -1.173  10.690  19.421  0.00  0.00    +0.000 C 
BRANCH  20  21
ATOM     21  C   UNL     1      -2.028  11.813  19.923  0.00  0.00    +0.000 C 
ATOM     22  O   UNL     1      -1.655  12.452  20.899  0.00  0.00    +0.000 OA
BRANCH  21  23
ATOM     23  C   UNL     1      -3.363  12.051  19.283  0.00  0.00    +0.000 A 
ATOM     24  C   UNL     1      -3.574  11.461  18.011  0.00  0.00    +0.000 A 
ATOM     25  C   UNL     1      -4.772  11.611  17.308  0.00  0.00    +0.000 A 
ATOM     26  C   UNL     1      -5.810  12.326  17.875  0.00  0.00    +0.000 A 
ATOM     27  C   UNL     1      -5.639  12.884  19.139  0.00  0.00    +0.000 A 
ATOM     28  C   UNL     1      -4.429  12.768  19.862  0.00  0.00    +0.000 A 
BRANCH  28  29
ATOM     29  O   UNL     1      -4.563  13.443  21.042  0.00  0.00    +0.000 OA
ATOM     30  C   UNL     1      -4.930  12.814  22.252  0.00  0.00    +0.000 C 
ENDBRANCH  28  29
ENDBRANCH  21  23
ENDBRANCH  20  21
ENDBRANCH   4  19
TORSDOF 8
ENDMDL
MODEL 6
REMARK VINA RESULT:      -8.3      2.234      3.076
REMARK  Name = 
REMARK  10 active torsions:
REMARK  status: ('A' for Active; 'I' for Inactive)
REMARK    1  A    between atoms: C_1  and  O_2
REMARK    2  A    between atoms: O_2  and  C_3
REMARK    3  A    between atoms: C_8  and  C_9
REMARK    4  A    between atoms: C_9  and  C_11
REMARK    5  A    between atoms: C_12  and  C_13
REMARK    6  A    between atoms: C_16  and  C_17
REMARK    7  A    between atoms: C_18  and  C_19
REMARK    8  A    between atoms: C_19  and  C_21
REMARK    9  A    between atoms: C_26  and  O_27
REMARK   10  A    between atoms: O_27  and  C_28
REMARK                            x       y       z     vdW  Elec       q    Type
REMARK                         _______ _______ _______ _____ _____    ______ ____
ROOT
ATOM      1  C   UNL     1       2.238   7.540  18.754  0.00  0.00    +0.000 A 
ATOM      2  C   UNL     1       1.912   7.645  20.113  0.00  0.00    +0.000 A 
ATOM      3  C   UNL     1       1.262   8.786  20.616  0.00  0.00    +0.000 A 
ATOM      4  C   UNL     1       0.956   9.857  19.772  0.00  0.00    +0.000 A 
ATOM      5  C   UNL     1       1.297   9.756  18.416  0.00  0.00    +0.000 A 
ATOM      6  C   UNL     1       1.935   8.619  17.917  0.00  0.00    +0.000 A 
ENDROOT
BRANCH   1   8
ATOM      7  C   UNL     1       3.368   5.331  19.003  0.00  0.00    +0.000 C 
ATOM      8  C   UNL     1       2.987   6.381  18.253  0.00  0.00    +0.000 C 
BRANCH   7   9
ATOM      9  C   UNL     1       3.949   4.142  18.320  0.00  0.00    +0.000 C 
ATOM     10  O   UNL     1       3.551   3.008  18.584  0.00  0.00    +0.000 OA
BRANCH   9  16
ATOM     11  C   UNL     1       6.380   4.756  17.775  0.00  0.00    +0.000 A 
ATOM     12  C   UNL     1       7.342   4.990  16.777  0.00  0.00    +0.000 A 
ATOM     13  C   UNL     1       7.064   4.734  15.431  0.00  0.00    +0.000 A 
ATOM     14  C   UNL     1       5.819   4.244  15.062  0.00  0.00    +0.000 A 
ATOM     15  C   UNL     1       4.843   4.039  16.036  0.00  0.00    +0.000 A 
ATOM     16  C   UNL     1       5.106   4.301  17.395  0.00  0.00    +0.000 A 
BRANCH  11  18
ATOM     17  C   UNL     1       7.856   5.642  19.410  0.00  0.00    +0.000 C 
ATOM     18  O   UNL     1       6.613   5.013  19.101  0.00  0.00    +0.000 OA
ENDBRANCH  11  18
ENDBRANCH   9  16
ENDBRANCH   7   9
ENDBRANCH   1   8
BRANCH   4  19
ATOM     19  C   UNL     1       0.189  11.014  20.259  0.00  0.00    +0.000 C 
ATOM     20  C   UNL     1      -0.614  10.958  21.336  0.00  0.00    +0.000 C 
BRANCH  20  21
ATOM     21  C   UNL     1      -1.140  12.220  21.946  0.00  0.00    +0.000 C 
ATOM     22  O   UNL     1      -0.403  12.883  22.666  0.00  0.00    +0.000 OA
BRANCH  21  23
ATOM     23  C   UNL     1      -2.582  12.578  21.746  0.00  0.00    +0.000 A 
ATOM     24  C   UNL     1      -2.949  13.046  20.458  0.00  0.00    +0.000 A 
ATOM     25  C   UNL     1      -4.259  13.416  20.144  0.00  0.00    +0.000 A 
ATOM     26  C   UNL     1      -5.250  13.292  21.100  0.00  0.00    +0.000 A 
ATOM     27  C   UNL     1      -4.920  12.800  22.360  0.00  0.00    +0.000 A 
ATOM     28  C   UNL     1      -3.599  12.441  22.712  0.00  0.00    +0.000 A 
BRANCH  28  29
ATOM     29  O   UNL     1      -3.594  12.028  24.014  0.00  0.00    +0.000 OA
ATOM     30  C   UNL     1      -4.599  12.385  24.939  0.00  0.00    +0.000 C 
ENDBRANCH  28  29
ENDBRANCH  21  23
ENDBRANCH  20  21
ENDBRANCH   4  19
TORSDOF 8
ENDMDL
MODEL 7
REMARK VINA RESULT:      -8.3      1.007     10.887
REMARK  Name = 
REMARK  10 active torsions:
REMARK  status: ('A' for Active; 'I' for Inactive)
REMARK    1  A    between atoms: C_1  and  O_2
REMARK    2  A    between atoms: O_2  and  C_3
REMARK    3  A    between atoms: C_8  and  C_9
REMARK    4  A    between atoms: C_9  and  C_11
REMARK    5  A    between atoms: C_12  and  C_13
REMARK    6  A    between atoms: C_16  and  C_17
REMARK    7  A    between atoms: C_18  and  C_19
REMARK    8  A    between atoms: C_19  and  C_21
REMARK    9  A    between atoms: C_26  and  O_27
REMARK   10  A    between atoms: O_27  and  C_28
REMARK                            x       y       z     vdW  Elec       q    Type
REMARK                         _______ _______ _______ _____ _____    ______ ____
ROOT
ATOM      1  C   UNL     1       0.760   9.583  19.444  0.00  0.00    +0.000 A 
ATOM      2  C   UNL     1       1.122   8.638  20.414  0.00  0.00    +0.000 A 
ATOM      3  C   UNL     1       1.981   7.570  20.100  0.00  0.00    +0.000 A 
ATOM      4  C   UNL     1       2.469   7.411  18.800  0.00  0.00    +0.000 A 
ATOM      5  C   UNL     1       2.093   8.348  17.828  0.00  0.00    +0.000 A 
ATOM      6  C   UNL     1       1.246   9.412  18.143  0.00  0.00    +0.000 A 
ENDROOT
BRANCH   1   8
ATOM      7  C   UNL     1      -0.725  11.499  18.860  0.00  0.00    +0.000 C 
ATOM      8  C   UNL     1      -0.200  10.647  19.759  0.00  0.00    +0.000 C 
BRANCH   7   9
ATOM      9  C   UNL     1      -1.831  12.397  19.291  0.00  0.00    +0.000 C 
ATOM     10  O   UNL     1      -1.617  13.335  20.058  0.00  0.00    +0.000 OA
BRANCH   9  16
ATOM     11  C   UNL     1      -4.356  12.257  19.730  0.00  0.00    +0.000 A 
ATOM     12  C   UNL     1      -5.608  11.810  19.276  0.00  0.00    +0.000 A 
ATOM     13  C   UNL     1      -5.760  11.260  18.000  0.00  0.00    +0.000 A 
ATOM     14  C   UNL     1      -4.661  11.144  17.159  0.00  0.00    +0.000 A 
ATOM     15  C   UNL     1      -3.406  11.551  17.608  0.00  0.00    +0.000 A 
ATOM     16  C   UNL     1      -3.237  12.100  18.894  0.00  0.00    +0.000 A 
BRANCH  11  18
ATOM     17  C   UNL     1      -5.325  12.854  21.813  0.00  0.00    +0.000 C 
ATOM     18  O   UNL     1      -4.168  12.785  20.980  0.00  0.00    +0.000 OA
ENDBRANCH  11  18
ENDBRANCH   9  16
ENDBRANCH   7   9
ENDBRANCH   1   8
BRANCH   4  19
ATOM     19  C   UNL     1       3.446   6.360  18.478  0.00  0.00    +0.000 C 
ATOM     20  C   UNL     1       3.811   5.408  19.355  0.00  0.00    +0.000 C 
BRANCH  20  21
ATOM     21  C   UNL     1       4.583   4.214  18.887  0.00  0.00    +0.000 C 
ATOM     22  O   UNL     1       4.604   3.209  19.588  0.00  0.00    +0.000 OA
BRANCH  21  23
ATOM     23  C   UNL     1       5.394   4.319  17.630  0.00  0.00    +0.000 A 
ATOM     24  C   UNL     1       4.689   4.190  16.405  0.00  0.00    +0.000 A 
ATOM     25  C   UNL     1       5.329   4.265  15.166  0.00  0.00    +0.000 A 
ATOM     26  C   UNL     1       6.688   4.509  15.113  0.00  0.00    +0.000 A 
ATOM     27  C   UNL     1       7.394   4.676  16.301  0.00  0.00    +0.000 A 
ATOM     28  C   UNL     1       6.777   4.581  17.570  0.00  0.00    +0.000 A 
BRANCH  28  29
ATOM     29  O   UNL     1       7.732   4.758  18.531  0.00  0.00    +0.000 OA
ATOM     30  C   UNL     1       7.905   5.973  19.229  0.00  0.00    +0.000 C 
ENDBRANCH  28  29
ENDBRANCH  21  23
ENDBRANCH  20  21
ENDBRANCH   4  19
TORSDOF 8
ENDMDL
MODEL 8
REMARK VINA RESULT:      -8.3      1.927     10.858
REMARK  Name = 
REMARK  10 active torsions:
REMARK  status: ('A' for Active; 'I' for Inactive)
REMARK    1  A    between atoms: C_1  and  O_2
REMARK    2  A    between atoms: O_2  and  C_3
REMARK    3  A    between atoms: C_8  and  C_9
REMARK    4  A    between atoms: C_9  and  C_11
REMARK    5  A    between atoms: C_12  and  C_13
REMARK    6  A    between atoms: C_16  and  C_17
REMARK    7  A    between atoms: C_18  and  C_19
REMARK    8  A    between atoms: C_19  and  C_21
REMARK    9  A    between atoms: C_26  and  O_27
REMARK   10  A    between atoms: O_27  and  C_28
REMARK                            x       y       z     vdW  Elec       q    Type
REMARK                         _______ _______ _______ _____ _____    ______ ____
ROOT
ATOM      1  C   UNL     1       0.959   9.673  19.273  0.00  0.00    +0.000 A 
ATOM      2  C   UNL     1       1.143   8.736  20.299  0.00  0.00    +0.000 A 
ATOM      3  C   UNL     1       1.924   7.584  20.097  0.00  0.00    +0.000 A 
ATOM      4  C   UNL     1       2.509   7.333  18.852  0.00  0.00    +0.000 A 
ATOM      5  C   UNL     1       2.309   8.263  17.823  0.00  0.00    +0.000 A 
ATOM      6  C   UNL     1       1.540   9.411  18.027  0.00  0.00    +0.000 A 
ENDROOT
BRANCH   1   8
ATOM      7  C   UNL     1       0.173  11.706  20.485  0.00  0.00    +0.000 C 
ATOM      8  C   UNL     1       0.078  10.830  19.467  0.00  0.00    +0.000 C 
BRANCH   7   9
ATOM      9  C   UNL     1      -0.663  12.937  20.446  0.00  0.00    +0.000 C 
ATOM     10  O   UNL     1      -0.191  14.005  20.058  0.00  0.00    +0.000 OA
BRANCH   9  16
ATOM     11  C   UNL     1      -2.376  12.970  22.356  0.00  0.00    +0.000 A 
ATOM     12  C   UNL     1      -3.718  12.806  22.739  0.00  0.00    +0.000 A 
ATOM     13  C   UNL     1      -4.727  12.642  21.785  0.00  0.00    +0.000 A 
ATOM     14  C   UNL     1      -4.409  12.633  20.434  0.00  0.00    +0.000 A 
ATOM     15  C   UNL     1      -3.077  12.760  20.040  0.00  0.00    +0.000 A 
ATOM     16  C   UNL     1      -2.050  12.919  20.990  0.00  0.00    +0.000 A 
BRANCH  11  18
ATOM     17  C   UNL     1      -1.209  14.417  23.832  0.00  0.00    +0.000 C 
ATOM     18  O   UNL     1      -1.361  13.117  23.265  0.00  0.00    +0.000 OA
ENDBRANCH  11  18
ENDBRANCH   9  16
ENDBRANCH   7   9
ENDBRANCH   1   8
BRANCH   4  19
ATOM     19  C   UNL     1       3.408   6.187  18.652  0.00  0.00    +0.000 C 
ATOM     20  C   UNL     1       2.994   4.910  18.731  0.00  0.00    +0.000 C 
BRANCH  20  21
ATOM     21  C   UNL     1       3.878   3.804  18.244  0.00  0.00    +0.000 C 
ATOM     22  O   UNL     1       3.705   2.672  18.680  0.00  0.00    +0.000 OA
BRANCH  21  23
ATOM     23  C   UNL     1       5.013   4.133  17.323  0.00  0.00    +0.000 A 
ATOM     24  C   UNL     1       4.736   4.096  15.932  0.00  0.00    +0.000 A 
ATOM     25  C   UNL     1       5.709   4.377  14.970  0.00  0.00    +0.000 A 
ATOM     26  C   UNL     1       6.979   4.743  15.371  0.00  0.00    +0.000 A 
ATOM     27  C   UNL     1       7.265   4.823  16.732  0.00  0.00    +0.000 A 
ATOM     28  C   UNL     1       6.307   4.519  17.727  0.00  0.00    +0.000 A 
BRANCH  28  29
ATOM     29  O   UNL     1       6.895   4.659  18.952  0.00  0.00    +0.000 OA
ATOM     30  C   UNL     1       7.762   5.725  19.274  0.00  0.00    +0.000 C 
ENDBRANCH  28  29
ENDBRANCH  21  23
ENDBRANCH  20  21
ENDBRANCH   4  19
TORSDOF 8
ENDMDL
MODEL 9
REMARK VINA RESULT:      -8.2      1.910      3.114
REMARK  Name = 
REMARK  10 active torsions:
REMARK  status: ('A' for Active; 'I' for Inactive)
REMARK    1  A    between atoms: C_1  and  O_2
REMARK    2  A    between atoms: O_2  and  C_3
REMARK    3  A    between atoms: C_8  and  C_9
REMARK    4  A    between atoms: C_9  and  C_11
REMARK    5  A    between atoms: C_12  and  C_13
REMARK    6  A    between atoms: C_16  and  C_17
REMARK    7  A    between atoms: C_18  and  C_19
REMARK    8  A    between atoms: C_19  and  C_21
REMARK    9  A    between atoms: C_26  and  O_27
REMARK   10  A    between atoms: O_27  and  C_28
REMARK                            x       y       z     vdW  Elec       q    Type
REMARK                         _______ _______ _______ _____ _____    ______ ____
ROOT
ATOM      1  C   UNL     1       2.450   7.268  18.979  0.00  0.00    +0.000 A 
ATOM      2  C   UNL     1       1.919   7.645  20.220  0.00  0.00    +0.000 A 
ATOM      3  C   UNL     1       1.154   8.818  20.354  0.00  0.00    +0.000 A 
ATOM      4  C   UNL     1       0.934   9.651  19.254  0.00  0.00    +0.000 A 
ATOM      5  C   UNL     1       1.480   9.280  18.018  0.00  0.00    +0.000 A 
ATOM      6  C   UNL     1       2.232   8.112  17.884  0.00  0.00    +0.000 A 
ENDROOT
BRANCH   1   8
ATOM      7  C   UNL     1       2.987   4.959  18.207  0.00  0.00    +0.000 C 
ATOM      8  C   UNL     1       3.313   6.087  18.864  0.00  0.00    +0.000 C 
BRANCH   7   9
ATOM      9  C   UNL     1       4.036   3.921  18.010  0.00  0.00    +0.000 C 
ATOM     10  O   UNL     1       4.061   2.911  18.711  0.00  0.00    +0.000 OA
BRANCH   9  16
ATOM     11  C   UNL     1       6.473   4.433  17.392  0.00  0.00    +0.000 A 
ATOM     12  C   UNL     1       7.388   4.763  16.378  0.00  0.00    +0.000 A 
ATOM     13  C   UNL     1       7.006   4.769  15.034  0.00  0.00    +0.000 A 
ATOM     14  C   UNL     1       5.701   4.448  14.682  0.00  0.00    +0.000 A 
ATOM     15  C   UNL     1       4.774   4.152  15.680  0.00  0.00    +0.000 A 
ATOM     16  C   UNL     1       5.143   4.150  17.039  0.00  0.00    +0.000 A 
BRANCH  11  18
ATOM     17  C   UNL     1       7.296   5.669  19.244  0.00  0.00    +0.000 C 
ATOM     18  O   UNL     1       6.810   4.434  18.721  0.00  0.00    +0.000 OA
ENDBRANCH  11  18
ENDBRANCH   9  16
ENDBRANCH   7   9
ENDBRANCH   1   8
BRANCH   4  19
ATOM     19  C   UNL     1       0.056  10.827  19.354  0.00  0.00    +0.000 C 
ATOM     20  C   UNL     1      -1.283  10.749  19.259  0.00  0.00    +0.000 C 
BRANCH  20  21
ATOM     21  C   UNL     1      -2.132  11.920  19.648  0.00  0.00    +0.000 C 
ATOM     22  O   UNL     1      -3.135  12.170  18.990  0.00  0.00    +0.000 OA
BRANCH  21  23
ATOM     23  C   UNL     1      -1.672  12.813  20.761  0.00  0.00    +0.000 A 
ATOM     24  C   UNL     1      -1.856  12.329  22.083  0.00  0.00    +0.000 A 
ATOM     25  C   UNL     1      -1.475  13.066  23.206  0.00  0.00    +0.000 A 
ATOM     26  C   UNL     1      -0.862  14.294  23.041  0.00  0.00    +0.000 A 
ATOM     27  C   UNL     1      -0.638  14.773  21.753  0.00  0.00    +0.000 A 
ATOM     28  C   UNL     1      -1.035  14.059  20.598  0.00  0.00    +0.000 A 
BRANCH  28  29
ATOM     29  O   UNL     1      -0.708  14.798  19.497  0.00  0.00    +0.000 OA
ATOM     30  C   UNL     1       0.621  15.147  19.171  0.00  0.00    +0.000 C 
ENDBRANCH  28  29
ENDBRANCH  21  23
ENDBRANCH  20  21
ENDBRANCH   4  19
TORSDOF 8
ENDMDL
