MODEL 1
REMARK VINA RESULT:      -7.3      0.000      0.000
REMARK  Name = 
REMARK  9 active torsions:
REMARK  status: ('A' for Active; 'I' for Inactive)
REMARK    1  A    between atoms: C_1  and  O_2
REMARK    2  A    between atoms: O_2  and  C_3
REMARK    3  A    between atoms: C_8  and  O_9
REMARK    4  A    between atoms: O_9  and  C_10
REMARK    5  A    between atoms: C_10  and  C_11
REMARK    6  A    between atoms: C_11  and  N_12
REMARK    7  A    between atoms: C_15  and  N_16
REMARK    8  A    between atoms: N_16  and  S_17
REMARK    9  A    between atoms: S_17  and  C_20
REMARK                            x       y       z     vdW  Elec       q    Type
REMARK                         _______ _______ _______ _____ _____    ______ ____
ROOT
ATOM      1  N   UNL     1       2.926   3.604  18.793  0.00  0.00    +0.000 NA
ATOM      2  C   UNL     1       4.163   2.844  18.989  0.00  0.00    +0.000 C 
ATOM      3  C   UNL     1       5.283   3.849  18.817  0.00  0.00    +0.000 C 
ATOM      4  C   UNL     1       4.808   4.741  17.690  0.00  0.00    +0.000 C 
ATOM      5  C   UNL     1       3.263   4.593  17.740  0.00  0.00    +0.000 C 
ENDROOT
BRANCH   4   6
ATOM      6  N   UNL     1       5.390   4.285  16.403  0.00  0.00    +0.000 NA
ATOM      7  H   UNL     1       4.739   4.145  15.628  0.00  0.00    +0.000 HD
BRANCH   6   8
ATOM      8  S   UNL     1       6.785   5.078  15.835  0.00  0.00    +0.000 S 
ATOM      9  O   UNL     1       6.509   6.492  15.940  0.00  0.00    +0.000 OA
ATOM     10  O   UNL     1       7.919   4.469  16.495  0.00  0.00    +0.000 OA
BRANCH   8  11
ATOM     11  C   UNL     1       6.803   4.699  14.104  0.00  0.00    +0.000 A 
ATOM     12  C   UNL     1       5.808   3.860  13.589  0.00  0.00    +0.000 A 
ATOM     13  C   UNL     1       5.839   3.512  12.239  0.00  0.00    +0.000 A 
ATOM     14 CL   UNL     1       4.623   2.483  11.594  0.00  0.00    +0.000 Cl
ATOM     15  C   UNL     1       6.856   3.984  11.405  0.00  0.00    +0.000 A 
ATOM     16  C   UNL     1       7.844   4.820  11.925  0.00  0.00    +0.000 A 
ATOM     17  C   UNL     1       7.809   5.185  13.270  0.00  0.00    +0.000 A 
ATOM     18  F   UNL     1       8.805   5.949  13.734  0.00  0.00    +0.000 F 
ENDBRANCH   8  11
ENDBRANCH   6   8
ENDBRANCH   4   6
BRANCH   1  19
ATOM     19  C   UNL     1       2.431   4.198  20.063  0.00  0.00    +0.000 C 
BRANCH  19  20
ATOM     20  C   UNL     1       1.664   5.529  19.956  0.00  0.00    +0.000 C 
BRANCH  20  21
ATOM     21  O   UNL     1       2.486   6.673  20.123  0.00  0.00    +0.000 OA
BRANCH  21  27
ATOM     22  C   UNL     1       1.128   8.775  20.423  0.00  0.00    +0.000 A 
ATOM     23  C   UNL     1       0.855  10.028  19.858  0.00  0.00    +0.000 A 
ATOM     24  C   UNL     1       1.232  10.313  18.545  0.00  0.00    +0.000 A 
ATOM     25  C   UNL     1       1.900   9.357  17.790  0.00  0.00    +0.000 A 
ATOM     26  C   UNL     1       2.259   8.144  18.371  0.00  0.00    +0.000 A 
ATOM     27  C   UNL     1       1.927   7.860  19.701  0.00  0.00    +0.000 A 
BRANCH  22  29
ATOM     28  C   UNL     1       0.255   9.507  22.523  0.00  0.00    +0.000 C 
ATOM     29  O   UNL     1       0.646   8.434  21.662  0.00  0.00    +0.000 OA
ENDBRANCH  22  29
ENDBRANCH  21  27
ENDBRANCH  20  21
ENDBRANCH  19  20
ENDBRANCH   1  19
TORSDOF 8
ENDMDL
MODEL 2
REMARK VINA RESULT:      -7.2      3.000      4.495
REMARK  Name = 
REMARK  9 active torsions:
REMARK  status: ('A' for Active; 'I' for Inactive)
REMARK    1  A    between atoms: C_1  and  O_2
REMARK    2  A    between atoms: O_2  and  C_3
REMARK    3  A    between atoms: C_8  and  O_9
REMARK    4  A    between atoms: O_9  and  C_10
REMARK    5  A    between atoms: C_10  and  C_11
REMARK    6  A    between atoms: C_11  and  N_12
REMARK    7  A    between atoms: C_15  and  N_16
REMARK    8  A    between atoms: N_16  and  S_17
REMARK    9  A    between atoms: S_17  and  C_20
REMARK                            x       y       z     vdW  Elec       q    Type
REMARK                         _______ _______ _______ _____ _____    ______ ____
ROOT
ATOM      1  N   UNL     1       2.671   8.157  18.618  0.00  0.00    +0.000 NA
ATOM      2  C   UNL     1       3.485   7.392  17.669  0.00  0.00    +0.000 C 
ATOM      3  C   UNL     1       2.864   6.011  17.629  0.00  0.00    +0.000 C 
ATOM      4  C   UNL     1       2.463   5.747  19.065  0.00  0.00    +0.000 C 
ATOM      5  C   UNL     1       2.298   7.171  19.662  0.00  0.00    +0.000 C 
ENDROOT
BRANCH   4   6
ATOM      6  N   UNL     1       3.517   4.955  19.749  0.00  0.00    +0.000 NA
ATOM      7  H   UNL     1       3.385   4.778  20.746  0.00  0.00    +0.000 HD
BRANCH   6   8
ATOM      8  S   UNL     1       4.063   3.533  18.987  0.00  0.00    +0.000 S 
ATOM      9  O   UNL     1       4.766   2.784  20.003  0.00  0.00    +0.000 OA
ATOM     10  O   UNL     1       2.937   2.977  18.268  0.00  0.00    +0.000 OA
BRANCH   8  11
ATOM     11  C   UNL     1       5.293   4.115  17.853  0.00  0.00    +0.000 A 
ATOM     12  C   UNL     1       5.184   3.761  16.503  0.00  0.00    +0.000 A 
ATOM     13  C   UNL     1       6.173   4.170  15.608  0.00  0.00    +0.000 A 
ATOM     14 CL   UNL     1       6.051   3.743  13.948  0.00  0.00    +0.000 Cl
ATOM     15  C   UNL     1       7.268   4.917  16.049  0.00  0.00    +0.000 A 
ATOM     16  C   UNL     1       7.371   5.265  17.396  0.00  0.00    +0.000 A 
ATOM     17  C   UNL     1       6.377   4.874  18.292  0.00  0.00    +0.000 A 
ATOM     18  F   UNL     1       6.542   5.190  19.582  0.00  0.00    +0.000 F 
ENDBRANCH   8  11
ENDBRANCH   6   8
ENDBRANCH   4   6
BRANCH   1  19
ATOM     19  C   UNL     1       1.517   8.820  17.954  0.00  0.00    +0.000 C 
BRANCH  19  20
ATOM     20  C   UNL     1       0.986  10.110  18.607  0.00  0.00    +0.000 C 
BRANCH  20  21
ATOM     21  O   UNL     1      -0.329   9.982  19.125  0.00  0.00    +0.000 OA
BRANCH  21  27
ATOM     22  C   UNL     1      -0.829  11.522  21.057  0.00  0.00    +0.000 A 
ATOM     23  C   UNL     1      -1.118  11.549  22.429  0.00  0.00    +0.000 A 
ATOM     24  C   UNL     1      -0.901  10.421  23.223  0.00  0.00    +0.000 A 
ATOM     25  C   UNL     1      -0.410   9.253  22.654  0.00  0.00    +0.000 A 
ATOM     26  C   UNL     1      -0.207   9.187  21.278  0.00  0.00    +0.000 A 
ATOM     27  C   UNL     1      -0.463  10.294  20.461  0.00  0.00    +0.000 A 
BRANCH  22  29
ATOM     28  C   UNL     1      -2.067  13.479  20.471  0.00  0.00    +0.000 C 
ATOM     29  O   UNL     1      -0.910  12.658  20.292  0.00  0.00    +0.000 OA
ENDBRANCH  22  29
ENDBRANCH  21  27
ENDBRANCH  20  21
ENDBRANCH  19  20
ENDBRANCH   1  19
TORSDOF 8
ENDMDL
MODEL 3
REMARK VINA RESULT:      -7.1      5.750      7.808
REMARK  Name = 
REMARK  9 active torsions:
REMARK  status: ('A' for Active; 'I' for Inactive)
REMARK    1  A    between atoms: C_1  and  O_2
REMARK    2  A    between atoms: O_2  and  C_3
REMARK    3  A    between atoms: C_8  and  O_9
REMARK    4  A    between atoms: O_9  and  C_10
REMARK    5  A    between atoms: C_10  and  C_11
REMARK    6  A    between atoms: C_11  and  N_12
REMARK    7  A    between atoms: C_15  and  N_16
REMARK    8  A    between atoms: N_16  and  S_17
REMARK    9  A    between atoms: S_17  and  C_20
REMARK                            x       y       z     vdW  Elec       q    Type
REMARK                         _______ _______ _______ _____ _____    ______ ____
ROOT
ATOM      1  N   UNL     1       7.051   6.941  18.423  0.00  0.00    +0.000 NA
ATOM      2  C   UNL     1       7.892   5.903  19.026  0.00  0.00    +0.000 C 
ATOM      3  C   UNL     1       7.859   4.743  18.052  0.00  0.00    +0.000 C 
ATOM      4  C   UNL     1       6.431   4.726  17.548  0.00  0.00    +0.000 C 
ATOM      5  C   UNL     1       5.956   6.189  17.761  0.00  0.00    +0.000 C 
ENDROOT
BRANCH   4   6
ATOM      6  N   UNL     1       5.632   3.743  18.322  0.00  0.00    +0.000 NA
ATOM      7  H   UNL     1       5.594   3.876  19.334  0.00  0.00    +0.000 HD
BRANCH   6   8
ATOM      8  S   UNL     1       4.081   3.346  17.743  0.00  0.00    +0.000 S 
ATOM      9  O   UNL     1       3.920   4.075  16.507  0.00  0.00    +0.000 OA
ATOM     10  O   UNL     1       3.961   1.905  17.802  0.00  0.00    +0.000 OA
BRANCH   8  11
ATOM     11  C   UNL     1       2.992   4.104  18.917  0.00  0.00    +0.000 A 
ATOM     12  C   UNL     1       2.907   5.501  18.950  0.00  0.00    +0.000 A 
ATOM     13  C   UNL     1       2.093   6.113  19.903  0.00  0.00    +0.000 A 
ATOM     14 CL   UNL     1       1.979   7.828  19.954  0.00  0.00    +0.000 Cl
ATOM     15  C   UNL     1       1.375   5.347  20.824  0.00  0.00    +0.000 A 
ATOM     16  C   UNL     1       1.465   3.956  20.786  0.00  0.00    +0.000 A 
ATOM     17  C   UNL     1       2.264   3.337  19.825  0.00  0.00    +0.000 A 
ATOM     18  F   UNL     1       2.356   2.003  19.857  0.00  0.00    +0.000 F 
ENDBRANCH   8  11
ENDBRANCH   6   8
ENDBRANCH   4   6
BRANCH   1  19
ATOM     19  C   UNL     1       7.827   7.829  17.517  0.00  0.00    +0.000 C 
BRANCH  19  20
ATOM     20  C   UNL     1       8.123   9.253  18.025  0.00  0.00    +0.000 C 
BRANCH  20  21
ATOM     21  O   UNL     1       9.199   9.312  18.947  0.00  0.00    +0.000 OA
BRANCH  21  27
ATOM     22  C   UNL     1      10.003  11.699  18.834  0.00  0.00    +0.000 A 
ATOM     23  C   UNL     1       9.962  12.933  19.498  0.00  0.00    +0.000 A 
ATOM     24  C   UNL     1       9.527  13.013  20.822  0.00  0.00    +0.000 A 
ATOM     25  C   UNL     1       9.113  11.867  21.489  0.00  0.00    +0.000 A 
ATOM     26  C   UNL     1       9.061  10.653  20.810  0.00  0.00    +0.000 A 
ATOM     27  C   UNL     1       9.451  10.563  19.469  0.00  0.00    +0.000 A 
BRANCH  22  29
ATOM     28  C   UNL     1      11.298  12.704  17.096  0.00  0.00    +0.000 C 
ATOM     29  O   UNL     1      10.553  11.584  17.582  0.00  0.00    +0.000 OA
ENDBRANCH  22  29
ENDBRANCH  21  27
ENDBRANCH  20  21
ENDBRANCH  19  20
ENDBRANCH   1  19
TORSDOF 8
ENDMDL
MODEL 4
REMARK VINA RESULT:      -7.1      5.736      8.074
REMARK  Name = 
REMARK  9 active torsions:
REMARK  status: ('A' for Active; 'I' for Inactive)
REMARK    1  A    between atoms: C_1  and  O_2
REMARK    2  A    between atoms: O_2  and  C_3
REMARK    3  A    between atoms: C_8  and  O_9
REMARK    4  A    between atoms: O_9  and  C_10
REMARK    5  A    between atoms: C_10  and  C_11
REMARK    6  A    between atoms: C_11  and  N_12
REMARK    7  A    between atoms: C_15  and  N_16
REMARK    8  A    between atoms: N_16  and  S_17
REMARK    9  A    between atoms: S_17  and  C_20
REMARK                            x       y       z     vdW  Elec       q    Type
REMARK                         _______ _______ _______ _____ _____    ______ ____
ROOT
ATOM      1  N   UNL     1       6.981   6.420  17.600  0.00  0.00    +0.000 NA
ATOM      2  C   UNL     1       6.974   5.437  16.513  0.00  0.00    +0.000 C 
ATOM      3  C   UNL     1       5.670   5.663  15.776  0.00  0.00    +0.000 C 
ATOM      4  C   UNL     1       4.674   5.968  16.875  0.00  0.00    +0.000 C 
ATOM      5  C   UNL     1       5.564   6.506  18.028  0.00  0.00    +0.000 C 
ENDROOT
BRANCH   4   6
ATOM      6  N   UNL     1       3.934   4.736  17.245  0.00  0.00    +0.000 NA
ATOM      7  H   UNL     1       4.463   4.010  17.731  0.00  0.00    +0.000 HD
BRANCH   6   8
ATOM      8  S   UNL     1       2.409   4.914  17.981  0.00  0.00    +0.000 S 
ATOM      9  O   UNL     1       2.330   6.294  18.401  0.00  0.00    +0.000 OA
ATOM     10  O   UNL     1       1.434   4.329  17.086  0.00  0.00    +0.000 OA
BRANCH   8  11
ATOM     11  C   UNL     1       2.546   3.949  19.460  0.00  0.00    +0.000 A 
ATOM     12  C   UNL     1       3.680   3.147  19.638  0.00  0.00    +0.000 A 
ATOM     13  C   UNL     1       3.777   2.343  20.773  0.00  0.00    +0.000 A 
ATOM     14 CL   UNL     1       5.164   1.355  21.004  0.00  0.00    +0.000 Cl
ATOM     15  C   UNL     1       2.752   2.325  21.723  0.00  0.00    +0.000 A 
ATOM     16  C   UNL     1       1.625   3.125  21.539  0.00  0.00    +0.000 A 
ATOM     17  C   UNL     1       1.529   3.944  20.415  0.00  0.00    +0.000 A 
ATOM     18  F   UNL     1       0.409   4.658  20.258  0.00  0.00    +0.000 F 
ENDBRANCH   8  11
ENDBRANCH   6   8
ENDBRANCH   4   6
BRANCH   1  19
ATOM     19  C   UNL     1       7.579   7.714  17.176  0.00  0.00    +0.000 C 
BRANCH  19  20
ATOM     20  C   UNL     1       8.258   8.558  18.270  0.00  0.00    +0.000 C 
BRANCH  20  21
ATOM     21  O   UNL     1       8.677   9.837  17.821  0.00  0.00    +0.000 OA
BRANCH  21  27
ATOM     22  C   UNL     1      10.361  11.566  18.547  0.00  0.00    +0.000 A 
ATOM     23  C   UNL     1      10.763  12.361  19.630  0.00  0.00    +0.000 A 
ATOM     24  C   UNL     1      10.302  12.090  20.919  0.00  0.00    +0.000 A 
ATOM     25  C   UNL     1       9.423  11.036  21.137  0.00  0.00    +0.000 A 
ATOM     26  C   UNL     1       8.946  10.300  20.057  0.00  0.00    +0.000 A 
ATOM     27  C   UNL     1       9.363  10.587  18.753  0.00  0.00    +0.000 A 
BRANCH  22  29
ATOM     28  C   UNL     1      11.449  13.026  17.000  0.00  0.00    +0.000 C 
ATOM     29  O   UNL     1      10.909  11.736  17.300  0.00  0.00    +0.000 OA
ENDBRANCH  22  29
ENDBRANCH  21  27
ENDBRANCH  20  21
ENDBRANCH  19  20
ENDBRANCH   1  19
TORSDOF 8
ENDMDL
MODEL 5
REMARK VINA RESULT:      -7.0      3.767      5.201
REMARK  Name = 
REMARK  9 active torsions:
REMARK  status: ('A' for Active; 'I' for Inactive)
REMARK    1  A    between atoms: C_1  and  O_2
REMARK    2  A    between atoms: O_2  and  C_3
REMARK    3  A    between atoms: C_8  and  O_9
REMARK    4  A    between atoms: O_9  and  C_10
REMARK    5  A    between atoms: C_10  and  C_11
REMARK    6  A    between atoms: C_11  and  N_12
REMARK    7  A    between atoms: C_15  and  N_16
REMARK    8  A    between atoms: N_16  and  S_17
REMARK    9  A    between atoms: S_17  and  C_20
REMARK                            x       y       z     vdW  Elec       q    Type
REMARK                         _______ _______ _______ _____ _____    ______ ____
ROOT
ATOM      1  N   UNL     1       1.647   8.748  19.984  0.00  0.00    +0.000 NA
ATOM      2  C   UNL     1       2.265   8.573  18.667  0.00  0.00    +0.000 C 
ATOM      3  C   UNL     1       1.958   7.144  18.266  0.00  0.00    +0.000 C 
ATOM      4  C   UNL     1       2.084   6.364  19.557  0.00  0.00    +0.000 C 
ATOM      5  C   UNL     1       1.824   7.435  20.652  0.00  0.00    +0.000 C 
ENDROOT
BRANCH   4   6
ATOM      6  N   UNL     1       3.435   5.757  19.654  0.00  0.00    +0.000 NA
ATOM      7  H   UNL     1       3.892   5.796  20.567  0.00  0.00    +0.000 HD
BRANCH   6   8
ATOM      8  S   UNL     1       3.666   4.216  18.969  0.00  0.00    +0.000 S 
ATOM      9  O   UNL     1       4.127   3.368  20.044  0.00  0.00    +0.000 OA
ATOM     10  O   UNL     1       2.475   3.906  18.208  0.00  0.00    +0.000 OA
BRANCH   8  11
ATOM     11  C   UNL     1       5.048   4.446  17.885  0.00  0.00    +0.000 A 
ATOM     12  C   UNL     1       4.890   4.159  16.524  0.00  0.00    +0.000 A 
ATOM     13  C   UNL     1       5.985   4.287  15.668  0.00  0.00    +0.000 A 
ATOM     14 CL   UNL     1       5.805   3.938  13.995  0.00  0.00    +0.000 Cl
ATOM     15  C   UNL     1       7.230   4.687  16.158  0.00  0.00    +0.000 A 
ATOM     16  C   UNL     1       7.380   4.971  17.516  0.00  0.00    +0.000 A 
ATOM     17  C   UNL     1       6.286   4.861  18.374  0.00  0.00    +0.000 A 
ATOM     18  F   UNL     1       6.489   5.097  19.675  0.00  0.00    +0.000 F 
ENDBRANCH   8  11
ENDBRANCH   6   8
ENDBRANCH   4   6
BRANCH   1  19
ATOM     19  C   UNL     1       0.235   9.202  19.879  0.00  0.00    +0.000 C 
BRANCH  19  20
ATOM     20  C   UNL     1      -0.088  10.217  18.766  0.00  0.00    +0.000 C 
BRANCH  20  21
ATOM     21  O   UNL     1      -1.240  11.002  19.032  0.00  0.00    +0.000 OA
BRANCH  21  27
ATOM     22  C   UNL     1      -3.526  11.495  18.093  0.00  0.00    +0.000 A 
ATOM     23  C   UNL     1      -4.301  11.434  16.926  0.00  0.00    +0.000 A 
ATOM     24  C   UNL     1      -3.883  10.670  15.835  0.00  0.00    +0.000 A 
ATOM     25  C   UNL     1      -2.681   9.975  15.892  0.00  0.00    +0.000 A 
ATOM     26  C   UNL     1      -1.861  10.104  17.009  0.00  0.00    +0.000 A 
ATOM     27  C   UNL     1      -2.244  10.901  18.093  0.00  0.00    +0.000 A 
BRANCH  22  29
ATOM     28  C   UNL     1      -5.402  12.128  19.431  0.00  0.00    +0.000 C 
ATOM     29  O   UNL     1      -3.987  12.131  19.219  0.00  0.00    +0.000 OA
ENDBRANCH  22  29
ENDBRANCH  21  27
ENDBRANCH  20  21
ENDBRANCH  19  20
ENDBRANCH   1  19
TORSDOF 8
ENDMDL
MODEL 6
REMARK VINA RESULT:      -6.9      2.986      4.346
REMARK  Name = 
REMARK  9 active torsions:
REMARK  status: ('A' for Active; 'I' for Inactive)
REMARK    1  A    between atoms: C_1  and  O_2
REMARK    2  A    between atoms: O_2  and  C_3
REMARK    3  A    between atoms: C_8  and  O_9
REMARK    4  A    between atoms: O_9  and  C_10
REMARK    5  A    between atoms: C_10  and  C_11
REMARK    6  A    between atoms: C_11  and  N_12
REMARK    7  A    between atoms: C_15  and  N_16
REMARK    8  A    between atoms: N_16  and  S_17
REMARK    9  A    between atoms: S_17  and  C_20
REMARK                            x       y       z     vdW  Elec       q    Type
REMARK                         _______ _______ _______ _____ _____    ______ ____
ROOT
ATOM      1  N   UNL     1       2.564   8.170  18.703  0.00  0.00    +0.000 NA
ATOM      2  C   UNL     1       3.399   7.447  17.740  0.00  0.00    +0.000 C 
ATOM      3  C   UNL     1       2.831   6.044  17.689  0.00  0.00    +0.000 C 
ATOM      4  C   UNL     1       2.450   5.749  19.125  0.00  0.00    +0.000 C 
ATOM      5  C   UNL     1       2.236   7.159  19.738  0.00  0.00    +0.000 C 
ENDROOT
BRANCH   4   6
ATOM      6  N   UNL     1       3.538   4.990  19.792  0.00  0.00    +0.000 NA
ATOM      7  H   UNL     1       3.435   4.824  20.795  0.00  0.00    +0.000 HD
BRANCH   6   8
ATOM      8  S   UNL     1       4.097   3.569  19.037  0.00  0.00    +0.000 S 
ATOM      9  O   UNL     1       4.834   2.846  20.047  0.00  0.00    +0.000 OA
ATOM     10  O   UNL     1       2.968   2.983  18.346  0.00  0.00    +0.000 OA
BRANCH   8  11
ATOM     11  C   UNL     1       5.293   4.162  17.872  0.00  0.00    +0.000 A 
ATOM     12  C   UNL     1       5.159   3.798  16.527  0.00  0.00    +0.000 A 
ATOM     13  C   UNL     1       6.122   4.215  15.608  0.00  0.00    +0.000 A 
ATOM     14 CL   UNL     1       5.969   3.776  13.953  0.00  0.00    +0.000 Cl
ATOM     15  C   UNL     1       7.216   4.979  16.020  0.00  0.00    +0.000 A 
ATOM     16  C   UNL     1       7.344   5.337  17.362  0.00  0.00    +0.000 A 
ATOM     17  C   UNL     1       6.376   4.938  18.283  0.00  0.00    +0.000 A 
ATOM     18  F   UNL     1       6.565   5.265  19.567  0.00  0.00    +0.000 F 
ENDBRANCH   8  11
ENDBRANCH   6   8
ENDBRANCH   4   6
BRANCH   1  19
ATOM     19  C   UNL     1       1.382   8.796  18.054  0.00  0.00    +0.000 C 
BRANCH  19  20
ATOM     20  C   UNL     1       1.011  10.220  18.511  0.00  0.00    +0.000 C 
BRANCH  20  21
ATOM     21  O   UNL     1       1.016  10.382  19.920  0.00  0.00    +0.000 OA
BRANCH  21  27
ATOM     22  C   UNL     1      -0.433  11.245  21.793  0.00  0.00    +0.000 A 
ATOM     23  C   UNL     1      -1.531  12.069  22.078  0.00  0.00    +0.000 A 
ATOM     24  C   UNL     1      -2.382  12.497  21.057  0.00  0.00    +0.000 A 
ATOM     25  C   UNL     1      -2.135  12.123  19.743  0.00  0.00    +0.000 A 
ATOM     26  C   UNL     1      -0.996  11.383  19.437  0.00  0.00    +0.000 A 
ATOM     27  C   UNL     1      -0.109  10.984  20.443  0.00  0.00    +0.000 A 
BRANCH  22  29
ATOM     28  C   UNL     1      -0.111   9.467  23.356  0.00  0.00    +0.000 C 
ATOM     29  O   UNL     1       0.331  10.708  22.798  0.00  0.00    +0.000 OA
ENDBRANCH  22  29
ENDBRANCH  21  27
ENDBRANCH  20  21
ENDBRANCH  19  20
ENDBRANCH   1  19
TORSDOF 8
ENDMDL
MODEL 7
REMARK VINA RESULT:      -6.9      3.400      4.689
REMARK  Name = 
REMARK  9 active torsions:
REMARK  status: ('A' for Active; 'I' for Inactive)
REMARK    1  A    between atoms: C_1  and  O_2
REMARK    2  A    between atoms: O_2  and  C_3
REMARK    3  A    between atoms: C_8  and  O_9
REMARK    4  A    between atoms: O_9  and  C_10
REMARK    5  A    between atoms: C_10  and  C_11
REMARK    6  A    between atoms: C_11  and  N_12
REMARK    7  A    between atoms: C_15  and  N_16
REMARK    8  A    between atoms: N_16  and  S_17
REMARK    9  A    between atoms: S_17  and  C_20
REMARK                            x       y       z     vdW  Elec       q    Type
REMARK                         _______ _______ _______ _____ _____    ______ ____
ROOT
ATOM      1  N   UNL     1       2.665   8.214  18.677  0.00  0.00    +0.000 NA
ATOM      2  C   UNL     1       3.442   7.430  17.713  0.00  0.00    +0.000 C 
ATOM      3  C   UNL     1       2.792   6.061  17.691  0.00  0.00    +0.000 C 
ATOM      4  C   UNL     1       2.416   5.809  19.136  0.00  0.00    +0.000 C 
ATOM      5  C   UNL     1       2.293   7.239  19.731  0.00  0.00    +0.000 C 
ENDROOT
BRANCH   4   6
ATOM      6  N   UNL     1       3.466   4.997  19.800  0.00  0.00    +0.000 NA
ATOM      7  H   UNL     1       3.346   4.818  20.798  0.00  0.00    +0.000 HD
BRANCH   6   8
ATOM      8  S   UNL     1       3.978   3.571  19.024  0.00  0.00    +0.000 S 
ATOM      9  O   UNL     1       4.673   2.800  20.029  0.00  0.00    +0.000 OA
ATOM     10  O   UNL     1       2.837   3.043  18.308  0.00  0.00    +0.000 OA
BRANCH   8  11
ATOM     11  C   UNL     1       5.212   4.137  17.885  0.00  0.00    +0.000 A 
ATOM     12  C   UNL     1       5.092   3.787  16.535  0.00  0.00    +0.000 A 
ATOM     13  C   UNL     1       6.083   4.183  15.637  0.00  0.00    +0.000 A 
ATOM     14 CL   UNL     1       5.949   3.760  13.977  0.00  0.00    +0.000 Cl
ATOM     15  C   UNL     1       7.191   4.912  16.074  0.00  0.00    +0.000 A 
ATOM     16  C   UNL     1       7.304   5.257  17.421  0.00  0.00    +0.000 A 
ATOM     17  C   UNL     1       6.309   4.879  18.321  0.00  0.00    +0.000 A 
ATOM     18  F   UNL     1       6.483   5.192  19.611  0.00  0.00    +0.000 F 
ENDBRANCH   8  11
ENDBRANCH   6   8
ENDBRANCH   4   6
BRANCH   1  19
ATOM     19  C   UNL     1       1.512   8.899  18.034  0.00  0.00    +0.000 C 
BRANCH  19  20
ATOM     20  C   UNL     1       0.545   9.653  18.966  0.00  0.00    +0.000 C 
BRANCH  20  21
ATOM     21  O   UNL     1       0.010  10.835  18.390  0.00  0.00    +0.000 OA
BRANCH  21  27
ATOM     22  C   UNL     1      -2.314  11.581  19.020  0.00  0.00    +0.000 A 
ATOM     23  C   UNL     1      -3.643  11.619  18.575  0.00  0.00    +0.000 A 
ATOM     24  C   UNL     1      -4.055  10.830  17.499  0.00  0.00    +0.000 A 
ATOM     25  C   UNL     1      -3.142  10.011  16.847  0.00  0.00    +0.000 A 
ATOM     26  C   UNL     1      -1.801  10.036  17.221  0.00  0.00    +0.000 A 
ATOM     27  C   UNL     1      -1.363  10.855  18.268  0.00  0.00    +0.000 A 
BRANCH  22  29
ATOM     28  C   UNL     1      -1.496  13.600  19.999  0.00  0.00    +0.000 C 
ATOM     29  O   UNL     1      -1.927  12.246  20.156  0.00  0.00    +0.000 OA
ENDBRANCH  22  29
ENDBRANCH  21  27
ENDBRANCH  20  21
ENDBRANCH  19  20
ENDBRANCH   1  19
TORSDOF 8
ENDMDL
MODEL 8
REMARK VINA RESULT:      -6.9      3.298      4.795
REMARK  Name = 
REMARK  9 active torsions:
REMARK  status: ('A' for Active; 'I' for Inactive)
REMARK    1  A    between atoms: C_1  and  O_2
REMARK    2  A    between atoms: O_2  and  C_3
REMARK    3  A    between atoms: C_8  and  O_9
REMARK    4  A    between atoms: O_9  and  C_10
REMARK    5  A    between atoms: C_10  and  C_11
REMARK    6  A    between atoms: C_11  and  N_12
REMARK    7  A    between atoms: C_15  and  N_16
REMARK    8  A    between atoms: N_16  and  S_17
REMARK    9  A    between atoms: S_17  and  C_20
REMARK                            x       y       z     vdW  Elec       q    Type
REMARK                         _______ _______ _______ _____ _____    ______ ____
ROOT
ATOM      1  N   UNL     1       2.713   8.161  18.613  0.00  0.00    +0.000 NA
ATOM      2  C   UNL     1       3.533   7.378  17.685  0.00  0.00    +0.000 C 
ATOM      3  C   UNL     1       2.885   6.009  17.633  0.00  0.00    +0.000 C 
ATOM      4  C   UNL     1       2.444   5.757  19.060  0.00  0.00    +0.000 C 
ATOM      5  C   UNL     1       2.294   7.186  19.649  0.00  0.00    +0.000 C 
ENDROOT
BRANCH   4   6
ATOM      6  N   UNL     1       3.464   4.945  19.770  0.00  0.00    +0.000 NA
ATOM      7  H   UNL     1       3.296   4.757  20.759  0.00  0.00    +0.000 HD
BRANCH   6   8
ATOM      8  S   UNL     1       4.021   3.526  19.010  0.00  0.00    +0.000 S 
ATOM      9  O   UNL     1       4.710   2.773  20.033  0.00  0.00    +0.000 OA
ATOM     10  O   UNL     1       2.906   2.973  18.273  0.00  0.00    +0.000 OA
BRANCH   8  11
ATOM     11  C   UNL     1       5.268   4.113  17.896  0.00  0.00    +0.000 A 
ATOM     12  C   UNL     1       5.179   3.762  16.544  0.00  0.00    +0.000 A 
ATOM     13  C   UNL     1       6.181   4.175  15.665  0.00  0.00    +0.000 A 
ATOM     14 CL   UNL     1       6.084   3.752  14.002  0.00  0.00    +0.000 Cl
ATOM     15  C   UNL     1       7.269   4.922  16.124  0.00  0.00    +0.000 A 
ATOM     16  C   UNL     1       7.350   5.266  17.473  0.00  0.00    +0.000 A 
ATOM     17  C   UNL     1       6.344   4.872  18.354  0.00  0.00    +0.000 A 
ATOM     18  F   UNL     1       6.489   5.185  19.647  0.00  0.00    +0.000 F 
ENDBRANCH   8  11
ENDBRANCH   6   8
ENDBRANCH   4   6
BRANCH   1  19
ATOM     19  C   UNL     1       1.590   8.846  17.920  0.00  0.00    +0.000 C 
BRANCH  19  20
ATOM     20  C   UNL     1       1.006  10.094  18.608  0.00  0.00    +0.000 C 
BRANCH  20  21
ATOM     21  O   UNL     1      -0.120   9.816  19.426  0.00  0.00    +0.000 OA
BRANCH  21  27
ATOM     22  C   UNL     1      -2.178  10.611  18.207  0.00  0.00    +0.000 A 
ATOM     23  C   UNL     1      -3.318  11.418  18.331  0.00  0.00    +0.000 A 
ATOM     24  C   UNL     1      -3.419  12.350  19.365  0.00  0.00    +0.000 A 
ATOM     25  C   UNL     1      -2.393  12.475  20.293  0.00  0.00    +0.000 A 
ATOM     26  C   UNL     1      -1.299  11.616  20.233  0.00  0.00    +0.000 A 
ATOM     27  C   UNL     1      -1.203  10.646  19.230  0.00  0.00    +0.000 A 
BRANCH  22  29
ATOM     28  C   UNL     1      -2.682  10.153  15.917  0.00  0.00    +0.000 C 
ATOM     29  O   UNL     1      -2.005   9.788  17.123  0.00  0.00    +0.000 OA
ENDBRANCH  22  29
ENDBRANCH  21  27
ENDBRANCH  20  21
ENDBRANCH  19  20
ENDBRANCH   1  19
TORSDOF 8
ENDMDL
MODEL 9
REMARK VINA RESULT:      -6.7      4.801      9.276
REMARK  Name = 
REMARK  9 active torsions:
REMARK  status: ('A' for Active; 'I' for Inactive)
REMARK    1  A    between atoms: C_1  and  O_2
REMARK    2  A    between atoms: O_2  and  C_3
REMARK    3  A    between atoms: C_8  and  O_9
REMARK    4  A    between atoms: O_9  and  C_10
REMARK    5  A    between atoms: C_10  and  C_11
REMARK    6  A    between atoms: C_11  and  N_12
REMARK    7  A    between atoms: C_15  and  N_16
REMARK    8  A    between atoms: N_16  and  S_17
REMARK    9  A    between atoms: S_17  and  C_20
REMARK                            x       y       z     vdW  Elec       q    Type
REMARK                         _______ _______ _______ _____ _____    ______ ____
ROOT
ATOM      1  N   UNL     1       1.916   5.293  19.500  0.00  0.00    +0.000 NA
ATOM      2  C   UNL     1       1.983   6.179  18.336  0.00  0.00    +0.000 C 
ATOM      3  C   UNL     1       2.663   7.440  18.830  0.00  0.00    +0.000 C 
ATOM      4  C   UNL     1       2.106   7.637  20.224  0.00  0.00    +0.000 C 
ATOM      5  C   UNL     1       1.676   6.205  20.645  0.00  0.00    +0.000 C 
ENDROOT
BRANCH   4   6
ATOM      6  N   UNL     1       0.970   8.592  20.186  0.00  0.00    +0.000 NA
ATOM      7  H   UNL     1       0.208   8.375  19.542  0.00  0.00    +0.000 HD
BRANCH   6   8
ATOM      8  S   UNL     1       0.325   9.120  21.671  0.00  0.00    +0.000 S 
ATOM      9  O   UNL     1      -0.764   8.220  21.973  0.00  0.00    +0.000 OA
ATOM     10  O   UNL     1       1.438   9.304  22.576  0.00  0.00    +0.000 OA
BRANCH   8  11
ATOM     11  C   UNL     1      -0.412  10.680  21.272  0.00  0.00    +0.000 A 
ATOM     12  C   UNL     1      -0.251  11.189  19.978  0.00  0.00    +0.000 A 
ATOM     13  C   UNL     1      -0.782  12.440  19.665  0.00  0.00    +0.000 A 
ATOM     14 CL   UNL     1      -0.592  13.076  18.079  0.00  0.00    +0.000 Cl
ATOM     15  C   UNL     1      -1.460  13.188  20.630  0.00  0.00    +0.000 A 
ATOM     16  C   UNL     1      -1.616  12.675  21.918  0.00  0.00    +0.000 A 
ATOM     17  C   UNL     1      -1.103  11.418  22.233  0.00  0.00    +0.000 A 
ATOM     18  F   UNL     1      -1.236  10.989  23.493  0.00  0.00    +0.000 F 
ENDBRANCH   8  11
ENDBRANCH   6   8
ENDBRANCH   4   6
BRANCH   1  19
ATOM     19  C   UNL     1       3.134   4.448  19.628  0.00  0.00    +0.000 C 
BRANCH  19  20
ATOM     20  C   UNL     1       3.303   3.313  18.600  0.00  0.00    +0.000 C 
BRANCH  20  21
ATOM     21  O   UNL     1       4.658   3.001  18.319  0.00  0.00    +0.000 OA
BRANCH  21  27
ATOM     22  C   UNL     1       6.395   4.760  17.824  0.00  0.00    +0.000 A 
ATOM     23  C   UNL     1       7.042   5.440  16.783  0.00  0.00    +0.000 A 
ATOM     24  C   UNL     1       6.533   5.402  15.484  0.00  0.00    +0.000 A 
ATOM     25  C   UNL     1       5.384   4.671  15.208  0.00  0.00    +0.000 A 
ATOM     26  C   UNL     1       4.787   3.917  16.214  0.00  0.00    +0.000 A 
ATOM     27  C   UNL     1       5.310   3.909  17.512  0.00  0.00    +0.000 A 
BRANCH  22  29
ATOM     28  C   UNL     1       7.908   5.775  19.369  0.00  0.00    +0.000 C 
ATOM     29  O   UNL     1       6.805   4.897  19.126  0.00  0.00    +0.000 OA
ENDBRANCH  22  29
ENDBRANCH  21  27
ENDBRANCH  20  21
ENDBRANCH  19  20
ENDBRANCH   1  19
TORSDOF 8
ENDMDL
