MODEL 1
REMARK VINA RESULT:      -7.2      0.000      0.000
REMARK  Name = 
REMARK  8 active torsions:
REMARK  status: ('A' for Active; 'I' for Inactive)
REMARK    1  A    between atoms: C_1  and  O_2
REMARK    2  A    between atoms: O_2  and  C_3
REMARK    3  A    between atoms: C_8  and  N_9
REMARK    4  A    between atoms: N_12  and  C_13
REMARK    5  A    between atoms: C_18  and  C_20
REMARK    6  A    between atoms: C_20  and  C_21
REMARK    7  A    between atoms: C_21  and  C_22
REMARK    8  A    between atoms: C_22  and  C_23
REMARK                            x       y       z     vdW  Elec       q    Type
REMARK                         _______ _______ _______ _____ _____    ______ ____
ROOT
ATOM      1  N   UNL     1       0.708   9.634  19.225  0.00  0.00    +0.000 N 
ATOM      2  C   UNL     1       1.303   9.174  17.953  0.00  0.00    +0.000 C 
ATOM      3  C   UNL     1       2.537   8.239  18.135  0.00  0.00    +0.000 C 
ATOM      4  N   UNL     1       2.517   7.210  19.186  0.00  0.00    +0.000 NA
ATOM      5  C   UNL     1       1.925   7.793  20.402  0.00  0.00    +0.000 C 
ATOM      6  C   UNL     1       0.584   8.534  20.213  0.00  0.00    +0.000 C 
ENDROOT
BRANCH   4   7
ATOM      7  C   UNL     1       2.086   5.822  18.913  0.00  0.00    +0.000 C 
ATOM      8  C   UNL     1       2.084   4.902  20.159  0.00  0.00    +0.000 C 
ATOM      9  C   UNL     1       3.397   4.164  20.438  0.00  0.00    +0.000 C 
ATOM     10  C   UNL     1       4.098   3.632  19.187  0.00  0.00    +0.000 C 
ATOM     11  N   UNL     1       4.051   4.577  18.075  0.00  0.00    +0.000 N 
ATOM     12  C   UNL     1       5.074   4.815  17.175  0.00  0.00    +0.000 C 
ATOM     13  O   UNL     1       4.871   5.249  16.039  0.00  0.00    +0.000 OA
ATOM     14  C   UNL     1       2.714   5.040  17.741  0.00  0.00    +0.000 C 
BRANCH  12  15
ATOM     15  C   UNL     1       6.488   4.571  17.636  0.00  0.00    +0.000 C 
BRANCH  15  16
ATOM     16  C   UNL     1       6.994   5.820  18.325  0.00  0.00    +0.000 C 
BRANCH  16  17
ATOM     17  C   UNL     1       7.591   6.804  17.347  0.00  0.00    +0.000 C 
ATOM     18  C   UNL     1       7.918   8.172  17.881  0.00  0.00    +0.000 C 
ATOM     19  O   UNL     1       7.767   6.524  16.162  0.00  0.00    +0.000 OA
ENDBRANCH  16  17
ENDBRANCH  15  16
ENDBRANCH  12  15
ENDBRANCH   4   7
BRANCH   1  25
ATOM     20  C   UNL     1      -0.807  11.456  20.167  0.00  0.00    +0.000 A 
ATOM     21  C   UNL     1      -1.919  12.299  19.954  0.00  0.00    +0.000 A 
ATOM     22  C   UNL     1      -2.733  12.163  18.834  0.00  0.00    +0.000 A 
ATOM     23  C   UNL     1      -2.428  11.195  17.898  0.00  0.00    +0.000 A 
ATOM     24  C   UNL     1      -1.304  10.385  18.080  0.00  0.00    +0.000 A 
ATOM     25  C   UNL     1      -0.421  10.503  19.184  0.00  0.00    +0.000 A 
BRANCH  20  27
ATOM     26  C   UNL     1      -0.604  11.272  22.527  0.00  0.00    +0.000 C 
ATOM     27  O   UNL     1      -0.030  11.672  21.283  0.00  0.00    +0.000 OA
ENDBRANCH  20  27
ENDBRANCH   1  25
TORSDOF 6
ENDMDL
MODEL 2
REMARK VINA RESULT:      -7.0      2.428      3.913
REMARK  Name = 
REMARK  8 active torsions:
REMARK  status: ('A' for Active; 'I' for Inactive)
REMARK    1  A    between atoms: C_1  and  O_2
REMARK    2  A    between atoms: O_2  and  C_3
REMARK    3  A    between atoms: C_8  and  N_9
REMARK    4  A    between atoms: N_12  and  C_13
REMARK    5  A    between atoms: C_18  and  C_20
REMARK    6  A    between atoms: C_20  and  C_21
REMARK    7  A    between atoms: C_21  and  C_22
REMARK    8  A    between atoms: C_22  and  C_23
REMARK                            x       y       z     vdW  Elec       q    Type
REMARK                         _______ _______ _______ _____ _____    ______ ____
ROOT
ATOM      1  N   UNL     1       1.188   9.212  19.549  0.00  0.00    +0.000 N 
ATOM      2  C   UNL     1       1.655   8.247  20.566  0.00  0.00    +0.000 C 
ATOM      3  C   UNL     1       1.962   6.829  19.996  0.00  0.00    +0.000 C 
ATOM      4  N   UNL     1       2.647   6.702  18.701  0.00  0.00    +0.000 NA
ATOM      5  C   UNL     1       2.082   7.695  17.773  0.00  0.00    +0.000 C 
ATOM      6  C   UNL     1       1.991   9.142  18.303  0.00  0.00    +0.000 C 
ENDROOT
BRANCH   4   7
ATOM      7  C   UNL     1       4.115   6.554  18.604  0.00  0.00    +0.000 C 
ATOM      8  C   UNL     1       4.675   6.709  17.168  0.00  0.00    +0.000 C 
ATOM      9  C   UNL     1       4.751   5.419  16.345  0.00  0.00    +0.000 C 
ATOM     10  C   UNL     1       5.210   4.194  17.138  0.00  0.00    +0.000 C 
ATOM     11  N   UNL     1       4.620   4.137  18.472  0.00  0.00    +0.000 N 
ATOM     12  C   UNL     1       4.189   2.990  19.115  0.00  0.00    +0.000 C 
ATOM     13  O   UNL     1       4.122   2.905  20.343  0.00  0.00    +0.000 OA
ATOM     14  C   UNL     1       4.810   5.344  19.260  0.00  0.00    +0.000 C 
BRANCH  12  15
ATOM     15  C   UNL     1       3.746   1.830  18.263  0.00  0.00    +0.000 C 
BRANCH  15  16
ATOM     16  C   UNL     1       2.261   1.618  18.469  0.00  0.00    +0.000 C 
BRANCH  16  17
ATOM     17  C   UNL     1       1.486   2.910  18.372  0.00  0.00    +0.000 C 
ATOM     18  C   UNL     1       0.690   3.312  19.583  0.00  0.00    +0.000 C 
ATOM     19  O   UNL     1       1.467   3.587  17.344  0.00  0.00    +0.000 OA
ENDBRANCH  16  17
ENDBRANCH  15  16
ENDBRANCH  12  15
ENDBRANCH   4   7
BRANCH   1  25
ATOM     20  C   UNL     1      -0.070  10.928  20.955  0.00  0.00    +0.000 A 
ATOM     21  C   UNL     1      -0.232  12.288  21.297  0.00  0.00    +0.000 A 
ATOM     22  C   UNL     1       0.432  13.297  20.609  0.00  0.00    +0.000 A 
ATOM     23  C   UNL     1       1.290  12.956  19.583  0.00  0.00    +0.000 A 
ATOM     24  C   UNL     1       1.490  11.610  19.265  0.00  0.00    +0.000 A 
ATOM     25  C   UNL     1       0.866  10.539  19.955  0.00  0.00    +0.000 A 
BRANCH  20  27
ATOM     26  C   UNL     1      -0.444   9.975  23.099  0.00  0.00    +0.000 C 
ATOM     27  O   UNL     1      -0.736   9.983  21.701  0.00  0.00    +0.000 OA
ENDBRANCH  20  27
ENDBRANCH   1  25
TORSDOF 6
ENDMDL
MODEL 3
REMARK VINA RESULT:      -7.0      2.384      4.057
REMARK  Name = 
REMARK  8 active torsions:
REMARK  status: ('A' for Active; 'I' for Inactive)
REMARK    1  A    between atoms: C_1  and  O_2
REMARK    2  A    between atoms: O_2  and  C_3
REMARK    3  A    between atoms: C_8  and  N_9
REMARK    4  A    between atoms: N_12  and  C_13
REMARK    5  A    between atoms: C_18  and  C_20
REMARK    6  A    between atoms: C_20  and  C_21
REMARK    7  A    between atoms: C_21  and  C_22
REMARK    8  A    between atoms: C_22  and  C_23
REMARK                            x       y       z     vdW  Elec       q    Type
REMARK                         _______ _______ _______ _____ _____    ______ ____
ROOT
ATOM      1  N   UNL     1       1.180   9.317  18.849  0.00  0.00    +0.000 N 
ATOM      2  C   UNL     1       1.707   8.790  20.126  0.00  0.00    +0.000 C 
ATOM      3  C   UNL     1       2.004   7.259  20.101  0.00  0.00    +0.000 C 
ATOM      4  N   UNL     1       2.629   6.663  18.910  0.00  0.00    +0.000 NA
ATOM      5  C   UNL     1       2.008   7.250  17.712  0.00  0.00    +0.000 C 
ATOM      6  C   UNL     1       1.925   8.791  17.679  0.00  0.00    +0.000 C 
ENDROOT
BRANCH   4   7
ATOM      7  C   UNL     1       4.092   6.481  18.804  0.00  0.00    +0.000 C 
ATOM      8  C   UNL     1       4.649   6.648  17.369  0.00  0.00    +0.000 C 
ATOM      9  C   UNL     1       4.690   5.372  16.522  0.00  0.00    +0.000 C 
ATOM     10  C   UNL     1       5.123   4.122  17.290  0.00  0.00    +0.000 C 
ATOM     11  N   UNL     1       4.538   4.055  18.626  0.00  0.00    +0.000 N 
ATOM     12  C   UNL     1       4.082   2.908  19.251  0.00  0.00    +0.000 C 
ATOM     13  O   UNL     1       4.018   2.802  20.477  0.00  0.00    +0.000 OA
ATOM     14  C   UNL     1       4.761   5.242  19.435  0.00  0.00    +0.000 C 
BRANCH  12  15
ATOM     15  C   UNL     1       3.608   1.774  18.380  0.00  0.00    +0.000 C 
BRANCH  15  16
ATOM     16  C   UNL     1       2.103   1.662  18.509  0.00  0.00    +0.000 C 
BRANCH  16  17
ATOM     17  C   UNL     1       1.424   3.007  18.406  0.00  0.00    +0.000 C 
ATOM     18  C   UNL     1       0.731   3.509  19.643  0.00  0.00    +0.000 C 
ATOM     19  O   UNL     1       1.399   3.648  17.356  0.00  0.00    +0.000 OA
ENDBRANCH  16  17
ENDBRANCH  15  16
ENDBRANCH  12  15
ENDBRANCH   4   7
BRANCH   1  25
ATOM     20  C   UNL     1      -0.437  11.285  18.727  0.00  0.00    +0.000 A 
ATOM     21  C   UNL     1      -0.596  12.687  18.701  0.00  0.00    +0.000 A 
ATOM     22  C   UNL     1       0.496  13.543  18.600  0.00  0.00    +0.000 A 
ATOM     23  C   UNL     1       1.766  13.005  18.549  0.00  0.00    +0.000 A 
ATOM     24  C   UNL     1       1.935  11.619  18.618  0.00  0.00    +0.000 A 
ATOM     25  C   UNL     1       0.861  10.703  18.756  0.00  0.00    +0.000 A 
BRANCH  20  27
ATOM     26  C   UNL     1      -2.148  10.043  17.641  0.00  0.00    +0.000 C 
ATOM     27  O   UNL     1      -1.562  10.503  18.860  0.00  0.00    +0.000 OA
ENDBRANCH  20  27
ENDBRANCH   1  25
TORSDOF 6
ENDMDL
MODEL 4
REMARK VINA RESULT:      -6.8      1.154      1.866
REMARK  Name = 
REMARK  8 active torsions:
REMARK  status: ('A' for Active; 'I' for Inactive)
REMARK    1  A    between atoms: C_1  and  O_2
REMARK    2  A    between atoms: O_2  and  C_3
REMARK    3  A    between atoms: C_8  and  N_9
REMARK    4  A    between atoms: N_12  and  C_13
REMARK    5  A    between atoms: C_18  and  C_20
REMARK    6  A    between atoms: C_20  and  C_21
REMARK    7  A    between atoms: C_21  and  C_22
REMARK    8  A    between atoms: C_22  and  C_23
REMARK                            x       y       z     vdW  Elec       q    Type
REMARK                         _______ _______ _______ _____ _____    ______ ____
ROOT
ATOM      1  N   UNL     1       0.708   9.761  19.581  0.00  0.00    +0.000 N 
ATOM      2  C   UNL     1       1.204   9.284  18.273  0.00  0.00    +0.000 C 
ATOM      3  C   UNL     1       2.363   8.247  18.378  0.00  0.00    +0.000 C 
ATOM      4  N   UNL     1       2.304   7.198  19.408  0.00  0.00    +0.000 NA
ATOM      5  C   UNL     1       1.819   7.799  20.661  0.00  0.00    +0.000 C 
ATOM      6  C   UNL     1       0.537   8.652  20.551  0.00  0.00    +0.000 C 
ENDROOT
BRANCH   4   7
ATOM      7  C   UNL     1       1.747   5.857  19.127  0.00  0.00    +0.000 C 
ATOM      8  C   UNL     1       1.610   4.953  20.377  0.00  0.00    +0.000 C 
ATOM      9  C   UNL     1       2.833   4.091  20.706  0.00  0.00    +0.000 C 
ATOM     10  C   UNL     1       3.520   3.481  19.484  0.00  0.00    +0.000 C 
ATOM     11  N   UNL     1       3.606   4.415  18.365  0.00  0.00    +0.000 N 
ATOM     12  C   UNL     1       4.678   4.542  17.500  0.00  0.00    +0.000 C 
ATOM     13  O   UNL     1       4.558   4.985  16.356  0.00  0.00    +0.000 OA
ATOM     14  C   UNL     1       2.333   5.006  17.982  0.00  0.00    +0.000 C 
BRANCH  12  15
ATOM     15  C   UNL     1       6.043   4.163  18.012  0.00  0.00    +0.000 C 
BRANCH  15  16
ATOM     16  C   UNL     1       7.084   4.686  17.045  0.00  0.00    +0.000 C 
BRANCH  16  17
ATOM     17  C   UNL     1       7.554   6.074  17.414  0.00  0.00    +0.000 C 
ATOM     18  C   UNL     1       7.845   6.322  18.869  0.00  0.00    +0.000 C 
ATOM     19  O   UNL     1       7.658   6.973  16.580  0.00  0.00    +0.000 OA
ENDBRANCH  16  17
ENDBRANCH  15  16
ENDBRANCH  12  15
ENDBRANCH   4   7
BRANCH   1  25
ATOM     20  C   UNL     1      -1.445  10.815  18.711  0.00  0.00    +0.000 A 
ATOM     21  C   UNL     1      -2.453  11.784  18.908  0.00  0.00    +0.000 A 
ATOM     22  C   UNL     1      -2.360  12.738  19.915  0.00  0.00    +0.000 A 
ATOM     23  C   UNL     1      -1.266  12.720  20.757  0.00  0.00    +0.000 A 
ATOM     24  C   UNL     1      -0.285  11.738  20.596  0.00  0.00    +0.000 A 
ATOM     25  C   UNL     1      -0.345  10.721  19.610  0.00  0.00    +0.000 A 
BRANCH  20  27
ATOM     26  C   UNL     1      -2.947   9.773  17.194  0.00  0.00    +0.000 C 
ATOM     27  O   UNL     1      -1.622   9.883  17.714  0.00  0.00    +0.000 OA
ENDBRANCH  20  27
ENDBRANCH   1  25
TORSDOF 6
ENDMDL
MODEL 5
REMARK VINA RESULT:      -6.7      1.294      1.373
REMARK  Name = 
REMARK  8 active torsions:
REMARK  status: ('A' for Active; 'I' for Inactive)
REMARK    1  A    between atoms: C_1  and  O_2
REMARK    2  A    between atoms: O_2  and  C_3
REMARK    3  A    between atoms: C_8  and  N_9
REMARK    4  A    between atoms: N_12  and  C_13
REMARK    5  A    between atoms: C_18  and  C_20
REMARK    6  A    between atoms: C_20  and  C_21
REMARK    7  A    between atoms: C_21  and  C_22
REMARK    8  A    between atoms: C_22  and  C_23
REMARK                            x       y       z     vdW  Elec       q    Type
REMARK                         _______ _______ _______ _____ _____    ______ ____
ROOT
ATOM      1  N   UNL     1       1.213   9.580  19.005  0.00  0.00    +0.000 N 
ATOM      2  C   UNL     1       1.879   9.021  17.809  0.00  0.00    +0.000 C 
ATOM      3  C   UNL     1       2.961   7.947  18.134  0.00  0.00    +0.000 C 
ATOM      4  N   UNL     1       2.701   6.953  19.186  0.00  0.00    +0.000 NA
ATOM      5  C   UNL     1       2.060   7.631  20.324  0.00  0.00    +0.000 C 
ATOM      6  C   UNL     1       0.849   8.525  19.984  0.00  0.00    +0.000 C 
ENDROOT
BRANCH   4   7
ATOM      7  C   UNL     1       2.134   5.622  18.881  0.00  0.00    +0.000 C 
ATOM      8  C   UNL     1       2.079   4.662  20.095  0.00  0.00    +0.000 C 
ATOM      9  C   UNL     1       3.324   3.795  20.308  0.00  0.00    +0.000 C 
ATOM     10  C   UNL     1       3.936   3.245  19.019  0.00  0.00    +0.000 C 
ATOM     11  N   UNL     1       3.948   4.228  17.941  0.00  0.00    +0.000 N 
ATOM     12  C   UNL     1       4.963   4.402  17.017  0.00  0.00    +0.000 C 
ATOM     13  O   UNL     1       4.770   4.894  15.904  0.00  0.00    +0.000 OA
ATOM     14  C   UNL     1       2.651   4.826  17.665  0.00  0.00    +0.000 C 
BRANCH  12  15
ATOM     15  C   UNL     1       6.360   4.011  17.426  0.00  0.00    +0.000 C 
BRANCH  15  16
ATOM     16  C   UNL     1       7.308   5.124  17.035  0.00  0.00    +0.000 C 
BRANCH  16  17
ATOM     17  C   UNL     1       7.432   6.169  18.118  0.00  0.00    +0.000 C 
ATOM     18  C   UNL     1       7.668   7.584  17.667  0.00  0.00    +0.000 C 
ATOM     19  O   UNL     1       7.385   5.881  19.314  0.00  0.00    +0.000 OA
ENDBRANCH  16  17
ENDBRANCH  15  16
ENDBRANCH  12  15
ENDBRANCH   4   7
BRANCH   1  25
ATOM     20  C   UNL     1       0.384  11.989  18.908  0.00  0.00    +0.000 A 
ATOM     21  C   UNL     1      -0.695  12.860  18.645  0.00  0.00    +0.000 A 
ATOM     22  C   UNL     1      -1.978  12.380  18.405  0.00  0.00    +0.000 A 
ATOM     23  C   UNL     1      -2.193  11.017  18.400  0.00  0.00    +0.000 A 
ATOM     24  C   UNL     1      -1.122  10.145  18.617  0.00  0.00    +0.000 A 
ATOM     25  C   UNL     1       0.211  10.578  18.832  0.00  0.00    +0.000 A 
BRANCH  20  27
ATOM     26  C   UNL     1       1.698  13.608  20.047  0.00  0.00    +0.000 C 
ATOM     27  O   UNL     1       1.631  12.536  19.106  0.00  0.00    +0.000 OA
ENDBRANCH  20  27
ENDBRANCH   1  25
TORSDOF 6
ENDMDL
MODEL 6
REMARK VINA RESULT:      -6.7      1.716      2.340
REMARK  Name = 
REMARK  8 active torsions:
REMARK  status: ('A' for Active; 'I' for Inactive)
REMARK    1  A    between atoms: C_1  and  O_2
REMARK    2  A    between atoms: O_2  and  C_3
REMARK    3  A    between atoms: C_8  and  N_9
REMARK    4  A    between atoms: N_12  and  C_13
REMARK    5  A    between atoms: C_18  and  C_20
REMARK    6  A    between atoms: C_20  and  C_21
REMARK    7  A    between atoms: C_21  and  C_22
REMARK    8  A    between atoms: C_22  and  C_23
REMARK                            x       y       z     vdW  Elec       q    Type
REMARK                         _______ _______ _______ _____ _____    ______ ____
ROOT
ATOM      1  N   UNL     1       1.902   7.518  20.304  0.00  0.00    +0.000 N 
ATOM      2  C   UNL     1       3.009   7.110  19.413  0.00  0.00    +0.000 C 
ATOM      3  C   UNL     1       3.534   5.666  19.681  0.00  0.00    +0.000 C 
ATOM      4  N   UNL     1       2.574   4.588  19.967  0.00  0.00    +0.000 NA
ATOM      5  C   UNL     1       1.541   5.110  20.875  0.00  0.00    +0.000 C 
ATOM      6  C   UNL     1       0.888   6.447  20.461  0.00  0.00    +0.000 C 
ENDROOT
BRANCH   4   7
ATOM      7  C   UNL     1       2.051   3.705  18.903  0.00  0.00    +0.000 C 
ATOM      8  C   UNL     1       2.191   2.193  19.209  0.00  0.00    +0.000 C 
ATOM      9  C   UNL     1       3.499   1.543  18.746  0.00  0.00    +0.000 C 
ATOM     10  C   UNL     1       3.988   2.020  17.377  0.00  0.00    +0.000 C 
ATOM     11  N   UNL     1       3.820   3.458  17.192  0.00  0.00    +0.000 N 
ATOM     12  C   UNL     1       4.711   4.299  16.549  0.00  0.00    +0.000 C 
ATOM     13  O   UNL     1       4.363   5.361  16.030  0.00  0.00    +0.000 OA
ATOM     14  C   UNL     1       2.469   3.937  17.436  0.00  0.00    +0.000 C 
BRANCH  12  15
ATOM     15  C   UNL     1       6.165   3.904  16.534  0.00  0.00    +0.000 C 
BRANCH  15  16
ATOM     16  C   UNL     1       6.869   4.612  17.672  0.00  0.00    +0.000 C 
BRANCH  16  17
ATOM     17  C   UNL     1       7.445   5.940  17.243  0.00  0.00    +0.000 C 
ATOM     18  C   UNL     1       7.831   6.894  18.341  0.00  0.00    +0.000 C 
ATOM     19  O   UNL     1       7.558   6.253  16.058  0.00  0.00    +0.000 OA
ENDBRANCH  16  17
ENDBRANCH  15  16
ENDBRANCH  12  15
ENDBRANCH   4   7
BRANCH   1  25
ATOM     20  C   UNL     1       0.928   9.697  21.201  0.00  0.00    +0.000 A 
ATOM     21  C   UNL     1       0.458  10.995  20.905  0.00  0.00    +0.000 A 
ATOM     22  C   UNL     1       0.291  11.428  19.593  0.00  0.00    +0.000 A 
ATOM     23  C   UNL     1       0.617  10.574  18.559  0.00  0.00    +0.000 A 
ATOM     24  C   UNL     1       1.124   9.303  18.844  0.00  0.00    +0.000 A 
ATOM     25  C   UNL     1       1.347   8.823  20.160  0.00  0.00    +0.000 A 
BRANCH  20  27
ATOM     26  C   UNL     1      -0.042   9.530  23.364  0.00  0.00    +0.000 C 
ATOM     27  O   UNL     1       1.098   9.351  22.523  0.00  0.00    +0.000 OA
ENDBRANCH  20  27
ENDBRANCH   1  25
TORSDOF 6
ENDMDL
MODEL 7
REMARK VINA RESULT:      -6.6      1.288      1.421
REMARK  Name = 
REMARK  8 active torsions:
REMARK  status: ('A' for Active; 'I' for Inactive)
REMARK    1  A    between atoms: C_1  and  O_2
REMARK    2  A    between atoms: O_2  and  C_3
REMARK    3  A    between atoms: C_8  and  N_9
REMARK    4  A    between atoms: N_12  and  C_13
REMARK    5  A    between atoms: C_18  and  C_20
REMARK    6  A    between atoms: C_20  and  C_21
REMARK    7  A    between atoms: C_21  and  C_22
REMARK    8  A    between atoms: C_22  and  C_23
REMARK                            x       y       z     vdW  Elec       q    Type
REMARK                         _______ _______ _______ _____ _____    ______ ____
ROOT
ATOM      1  N   UNL     1       1.116   9.529  19.531  0.00  0.00    +0.000 N 
ATOM      2  C   UNL     1       1.739   8.859  18.369  0.00  0.00    +0.000 C 
ATOM      3  C   UNL     1       2.661   7.661  18.752  0.00  0.00    +0.000 C 
ATOM      4  N   UNL     1       2.241   6.735  19.815  0.00  0.00    +0.000 NA
ATOM      5  C   UNL     1       1.660   7.520  20.917  0.00  0.00    +0.000 C 
ATOM      6  C   UNL     1       0.588   8.555  20.518  0.00  0.00    +0.000 C 
ENDROOT
BRANCH   4   7
ATOM      7  C   UNL     1       1.514   5.482  19.518  0.00  0.00    +0.000 C 
ATOM      8  C   UNL     1       1.408   4.511  20.720  0.00  0.00    +0.000 C 
ATOM      9  C   UNL     1       2.556   3.506  20.860  0.00  0.00    +0.000 C 
ATOM     10  C   UNL     1       3.041   2.916  19.535  0.00  0.00    +0.000 C 
ATOM     11  N   UNL     1       3.114   3.914  18.472  0.00  0.00    +0.000 N 
ATOM     12  C   UNL     1       4.098   3.991  17.503  0.00  0.00    +0.000 C 
ATOM     13  O   UNL     1       3.910   4.523  16.407  0.00  0.00    +0.000 OA
ATOM     14  C   UNL     1       1.881   4.658  18.267  0.00  0.00    +0.000 C 
BRANCH  12  15
ATOM     15  C   UNL     1       5.459   3.437  17.838  0.00  0.00    +0.000 C 
BRANCH  15  16
ATOM     16  C   UNL     1       6.273   4.526  18.504  0.00  0.00    +0.000 C 
BRANCH  16  17
ATOM     17  C   UNL     1       7.374   5.040  17.608  0.00  0.00    +0.000 C 
ATOM     18  C   UNL     1       7.469   6.532  17.444  0.00  0.00    +0.000 C 
ATOM     19  O   UNL     1       8.135   4.282  17.006  0.00  0.00    +0.000 OA
ENDBRANCH  16  17
ENDBRANCH  15  16
ENDBRANCH  12  15
ENDBRANCH   4   7
BRANCH   1  25
ATOM     20  C   UNL     1       0.293  11.901  19.972  0.00  0.00    +0.000 A 
ATOM     21  C   UNL     1      -0.581  12.942  19.590  0.00  0.00    +0.000 A 
ATOM     22  C   UNL     1      -1.565  12.750  18.626  0.00  0.00    +0.000 A 
ATOM     23  C   UNL     1      -1.672  11.517  18.013  0.00  0.00    +0.000 A 
ATOM     24  C   UNL     1      -0.783  10.494  18.355  0.00  0.00    +0.000 A 
ATOM     25  C   UNL     1       0.260  10.645  19.304  0.00  0.00    +0.000 A 
BRANCH  20  27
ATOM     26  C   UNL     1       2.151  13.246  20.591  0.00  0.00    +0.000 C 
ATOM     27  O   UNL     1       1.262  12.175  20.910  0.00  0.00    +0.000 OA
ENDBRANCH  20  27
ENDBRANCH   1  25
TORSDOF 6
ENDMDL
MODEL 8
REMARK VINA RESULT:      -6.5      2.111      9.132
REMARK  Name = 
REMARK  8 active torsions:
REMARK  status: ('A' for Active; 'I' for Inactive)
REMARK    1  A    between atoms: C_1  and  O_2
REMARK    2  A    between atoms: O_2  and  C_3
REMARK    3  A    between atoms: C_8  and  N_9
REMARK    4  A    between atoms: N_12  and  C_13
REMARK    5  A    between atoms: C_18  and  C_20
REMARK    6  A    between atoms: C_20  and  C_21
REMARK    7  A    between atoms: C_21  and  C_22
REMARK    8  A    between atoms: C_22  and  C_23
REMARK                            x       y       z     vdW  Elec       q    Type
REMARK                         _______ _______ _______ _____ _____    ______ ____
ROOT
ATOM      1  N   UNL     1       2.556   7.309  18.741  0.00  0.00    +0.000 N 
ATOM      2  C   UNL     1       1.928   7.367  20.078  0.00  0.00    +0.000 C 
ATOM      3  C   UNL     1       1.610   8.815  20.563  0.00  0.00    +0.000 C 
ATOM      4  N   UNL     1       1.067   9.794  19.610  0.00  0.00    +0.000 NA
ATOM      5  C   UNL     1       1.784   9.652  18.332  0.00  0.00    +0.000 C 
ATOM      6  C   UNL     1       1.893   8.217  17.774  0.00  0.00    +0.000 C 
ENDROOT
BRANCH   4   7
ATOM      7  C   UNL     1      -0.387  10.019  19.463  0.00  0.00    +0.000 C 
ATOM      8  C   UNL     1      -0.781  10.822  18.199  0.00  0.00    +0.000 C 
ATOM      9  C   UNL     1      -0.826  12.343  18.369  0.00  0.00    +0.000 C 
ATOM     10  C   UNL     1      -1.423  12.810  19.697  0.00  0.00    +0.000 C 
ATOM     11  N   UNL     1      -0.985  11.994  20.826  0.00  0.00    +0.000 N 
ATOM     12  C   UNL     1      -0.679  12.464  22.091  0.00  0.00    +0.000 C 
ATOM     13  O   UNL     1      -0.749  11.754  23.096  0.00  0.00    +0.000 OA
ATOM     14  C   UNL     1      -1.204  10.567  20.651  0.00  0.00    +0.000 C 
BRANCH  12  15
ATOM     15  C   UNL     1      -0.199  13.887  22.216  0.00  0.00    +0.000 C 
BRANCH  15  16
ATOM     16  C   UNL     1      -1.373  14.760  22.605  0.00  0.00    +0.000 C 
BRANCH  16  17
ATOM     17  C   UNL     1      -1.626  14.738  24.094  0.00  0.00    +0.000 C 
ATOM     18  C   UNL     1      -2.977  14.251  24.542  0.00  0.00    +0.000 C 
ATOM     19  O   UNL     1      -0.791  15.135  24.906  0.00  0.00    +0.000 OA
ENDBRANCH  16  17
ENDBRANCH  15  16
ENDBRANCH  12  15
ENDBRANCH   4   7
BRANCH   1  25
ATOM     20  C   UNL     1       4.108   5.691  17.526  0.00  0.00    +0.000 A 
ATOM     21  C   UNL     1       4.337   4.365  17.100  0.00  0.00    +0.000 A 
ATOM     22  C   UNL     1       3.364   3.380  17.227  0.00  0.00    +0.000 A 
ATOM     23  C   UNL     1       2.154   3.704  17.806  0.00  0.00    +0.000 A 
ATOM     24  C   UNL     1       1.934   5.004  18.270  0.00  0.00    +0.000 A 
ATOM     25  C   UNL     1       2.902   6.038  18.198  0.00  0.00    +0.000 A 
BRANCH  20  27
ATOM     26  C   UNL     1       6.446   6.099  17.621  0.00  0.00    +0.000 C 
ATOM     27  O   UNL     1       5.130   6.604  17.397  0.00  0.00    +0.000 OA
ENDBRANCH  20  27
ENDBRANCH   1  25
TORSDOF 6
ENDMDL
MODEL 9
REMARK VINA RESULT:      -6.5      4.195      6.481
REMARK  Name = 
REMARK  8 active torsions:
REMARK  status: ('A' for Active; 'I' for Inactive)
REMARK    1  A    between atoms: C_1  and  O_2
REMARK    2  A    between atoms: O_2  and  C_3
REMARK    3  A    between atoms: C_8  and  N_9
REMARK    4  A    between atoms: N_12  and  C_13
REMARK    5  A    between atoms: C_18  and  C_20
REMARK    6  A    between atoms: C_20  and  C_21
REMARK    7  A    between atoms: C_21  and  C_22
REMARK    8  A    between atoms: C_22  and  C_23
REMARK                            x       y       z     vdW  Elec       q    Type
REMARK                         _______ _______ _______ _____ _____    ______ ____
ROOT
ATOM      1  N   UNL     1       1.382  15.115  19.736  0.00  0.00    +0.000 N 
ATOM      2  C   UNL     1       1.732  13.741  19.317  0.00  0.00    +0.000 C 
ATOM      3  C   UNL     1       1.771  12.715  20.491  0.00  0.00    +0.000 C 
ATOM      4  N   UNL     1       0.736  12.771  21.535  0.00  0.00    +0.000 NA
ATOM      5  C   UNL     1       0.494  14.182  21.879  0.00  0.00    +0.000 C 
ATOM      6  C   UNL     1       0.246  15.135  20.690  0.00  0.00    +0.000 C 
ENDROOT
BRANCH   4   7
ATOM      7  C   UNL     1      -0.490  11.948  21.466  0.00  0.00    +0.000 C 
ATOM      8  C   UNL     1      -0.788  11.144  22.756  0.00  0.00    +0.000 C 
ATOM      9  C   UNL     1      -0.165   9.746  22.822  0.00  0.00    +0.000 C 
ATOM     10  C   UNL     1      -0.209   8.975  21.502  0.00  0.00    +0.000 C 
ATOM     11  N   UNL     1       0.094   9.820  20.350  0.00  0.00    +0.000 N 
ATOM     12  C   UNL     1       0.836   9.444  19.246  0.00  0.00    +0.000 C 
ATOM     13  O   UNL     1       0.705   9.981  18.144  0.00  0.00    +0.000 OA
ATOM     14  C   UNL     1      -0.725  11.019  20.258  0.00  0.00    +0.000 C 
BRANCH  12  15
ATOM     15  C   UNL     1       1.873   8.365  19.429  0.00  0.00    +0.000 C 
BRANCH  15  16
ATOM     16  C   UNL     1       2.456   8.020  18.076  0.00  0.00    +0.000 C 
BRANCH  16  17
ATOM     17  C   UNL     1       2.936   6.590  18.014  0.00  0.00    +0.000 C 
ATOM     18  C   UNL     1       4.390   6.380  17.690  0.00  0.00    +0.000 C 
ATOM     19  O   UNL     1       2.176   5.636  18.178  0.00  0.00    +0.000 OA
ENDBRANCH  16  17
ENDBRANCH  15  16
ENDBRANCH  12  15
ENDBRANCH   4   7
BRANCH   1  25
ATOM     20  C   UNL     1       2.409  16.651  17.979  0.00  0.00    +0.000 A 
ATOM     21  C   UNL     1       2.186  17.628  16.984  0.00  0.00    +0.000 A 
ATOM     22  C   UNL     1       0.933  18.199  16.791  0.00  0.00    +0.000 A 
ATOM     23  C   UNL     1      -0.122  17.780  17.576  0.00  0.00    +0.000 A 
ATOM     24  C   UNL     1       0.080  16.782  18.533  0.00  0.00    +0.000 A 
ATOM     25  C   UNL     1       1.327  16.142  18.749  0.00  0.00    +0.000 A 
BRANCH  20  27
ATOM     26  C   UNL     1       4.568  16.798  18.960  0.00  0.00    +0.000 C 
ATOM     27  O   UNL     1       3.669  16.109  18.090  0.00  0.00    +0.000 OA
ENDBRANCH  20  27
ENDBRANCH   1  25
TORSDOF 6
ENDMDL
