MODEL 1
REMARK VINA RESULT:      -8.1      0.000      0.000
REMARK  Name = 
REMARK  8 active torsions:
REMARK  status: ('A' for Active; 'I' for Inactive)
REMARK    1  A    between atoms: C_1  and  O_2
REMARK    2  A    between atoms: O_2  and  C_3
REMARK    3  A    between atoms: C_6  and  C_7
REMARK    4  A    between atoms: N_8  and  N_9
REMARK    5  A    between atoms: C_10  and  C_12
REMARK    6  A    between atoms: C_12  and  S_13
REMARK    7  A    between atoms: S_13  and  C_14
REMARK    8  A    between atoms: C_23  and  O_24
REMARK                            x       y       z     vdW  Elec       q    Type
REMARK                         _______ _______ _______ _____ _____    ______ ____
ROOT
ATOM      1  N   UNL     1       8.621   8.208  19.037  0.00  0.00    +0.000 N 
ATOM      2  C   UNL     1       7.967   7.356  18.162  0.00  0.00    +0.000 C 
ATOM      3  O   UNL     1       7.656   7.652  17.007  0.00  0.00    +0.000 OA
ATOM      4  H   UNL     1       9.034   7.851  19.899  0.00  0.00    +0.000 HD
ENDROOT
BRANCH   1   6
ATOM      5  C   UNL     1       9.392  10.320  19.413  0.00  0.00    +0.000 C 
ATOM      6  N   UNL     1       8.964   9.436  18.575  0.00  0.00    +0.000 NA
BRANCH   5  10
ATOM      7  C   UNL     1      10.534  14.171  17.906  0.00  0.00    +0.000 A 
ATOM      8  C   UNL     1      10.868  13.003  17.211  0.00  0.00    +0.000 A 
ATOM      9  C   UNL     1      10.497  11.743  17.701  0.00  0.00    +0.000 A 
ATOM     10  C   UNL     1       9.784  11.653  18.899  0.00  0.00    +0.000 A 
ATOM     11  C   UNL     1       9.453  12.825  19.593  0.00  0.00    +0.000 A 
ATOM     12  C   UNL     1       9.824  14.075  19.102  0.00  0.00    +0.000 A 
BRANCH   7  14
ATOM     13  C   UNL     1       9.993  16.394  17.268  0.00  0.00    +0.000 C 
ATOM     14  O   UNL     1      10.950  15.337  17.322  0.00  0.00    +0.000 OA
ENDBRANCH   7  14
BRANCH  11  15
ATOM     15  O   UNL     1       8.755  12.842  20.773  0.00  0.00    +0.000 OA
ATOM     16  H   UNL     1       9.242  12.294  21.434  0.00  0.00    +0.000 HD
ENDBRANCH  11  15
ENDBRANCH   5  10
ENDBRANCH   1   6
BRANCH   2  17
ATOM     17  C   UNL     1       7.634   5.998  18.747  0.00  0.00    +0.000 C 
BRANCH  17  18
ATOM     18  S   UNL     1       7.210   4.810  17.456  0.00  0.00    +0.000 S 
BRANCH  18  19
ATOM     19  C   UNL     1       5.591   4.356  17.897  0.00  0.00    +0.000 A 
ATOM     20  N   UNL     1       4.518   4.573  17.148  0.00  0.00    +0.000 NA
ATOM     21  C   UNL     1       3.498   4.006  17.883  0.00  0.00    +0.000 A 
ATOM     22  C   UNL     1       2.125   3.876  17.626  0.00  0.00    +0.000 A 
ATOM     23  C   UNL     1       1.324   3.255  18.601  0.00  0.00    +0.000 A 
ATOM     24  C   UNL     1       1.874   2.776  19.796  0.00  0.00    +0.000 A 
ATOM     25  C   UNL     1       3.244   2.887  20.059  0.00  0.00    +0.000 A 
ATOM     26  C   UNL     1       3.999   3.501  19.070  0.00  0.00    +0.000 A 
ATOM     27  O   UNL     1       5.340   3.714  19.079  0.00  0.00    +0.000 OA
ENDBRANCH  18  19
ENDBRANCH  17  18
ENDBRANCH   2  17
TORSDOF 7
ENDMDL
MODEL 2
REMARK VINA RESULT:      -8.1      0.939      1.047
REMARK  Name = 
REMARK  8 active torsions:
REMARK  status: ('A' for Active; 'I' for Inactive)
REMARK    1  A    between atoms: C_1  and  O_2
REMARK    2  A    between atoms: O_2  and  C_3
REMARK    3  A    between atoms: C_6  and  C_7
REMARK    4  A    between atoms: N_8  and  N_9
REMARK    5  A    between atoms: C_10  and  C_12
REMARK    6  A    between atoms: C_12  and  S_13
REMARK    7  A    between atoms: S_13  and  C_14
REMARK    8  A    between atoms: C_23  and  O_24
REMARK                            x       y       z     vdW  Elec       q    Type
REMARK                         _______ _______ _______ _____ _____    ______ ____
ROOT
ATOM      1  N   UNL     1       8.625   8.217  19.068  0.00  0.00    +0.000 N 
ATOM      2  C   UNL     1       7.968   7.417  18.148  0.00  0.00    +0.000 C 
ATOM      3  O   UNL     1       7.708   7.757  16.993  0.00  0.00    +0.000 OA
ATOM      4  H   UNL     1       8.994   7.820  19.933  0.00  0.00    +0.000 HD
ENDROOT
BRANCH   1   6
ATOM      5  C   UNL     1       9.498  10.273  19.524  0.00  0.00    +0.000 C 
ATOM      6  N   UNL     1       9.031   9.442  18.653  0.00  0.00    +0.000 NA
BRANCH   5  10
ATOM      7  C   UNL     1      10.851  14.121  18.195  0.00  0.00    +0.000 A 
ATOM      8  C   UNL     1      11.557  13.413  19.174  0.00  0.00    +0.000 A 
ATOM      9  C   UNL     1      11.117  12.156  19.612  0.00  0.00    +0.000 A 
ATOM     10  C   UNL     1       9.959  11.603  19.062  0.00  0.00    +0.000 A 
ATOM     11  C   UNL     1       9.254  12.315  18.082  0.00  0.00    +0.000 A 
ATOM     12  C   UNL     1       9.695  13.564  17.651  0.00  0.00    +0.000 A 
BRANCH   7  14
ATOM     13  C   UNL     1      10.565  16.181  17.050  0.00  0.00    +0.000 C 
ATOM     14  O   UNL     1      11.385  15.334  17.852  0.00  0.00    +0.000 OA
ENDBRANCH   7  14
BRANCH  11  15
ATOM     15  O   UNL     1       8.110  11.857  17.481  0.00  0.00    +0.000 OA
ATOM     16  H   UNL     1       7.566  12.634  17.206  0.00  0.00    +0.000 HD
ENDBRANCH  11  15
ENDBRANCH   5  10
ENDBRANCH   1   6
BRANCH   2  17
ATOM     17  C   UNL     1       7.561   6.058  18.682  0.00  0.00    +0.000 C 
BRANCH  17  18
ATOM     18  S   UNL     1       7.141   4.921  17.345  0.00  0.00    +0.000 S 
BRANCH  18  19
ATOM     19  C   UNL     1       5.543   4.407  17.794  0.00  0.00    +0.000 A 
ATOM     20  N   UNL     1       4.440   4.700  17.119  0.00  0.00    +0.000 NA
ATOM     21  C   UNL     1       3.452   4.042  17.823  0.00  0.00    +0.000 A 
ATOM     22  C   UNL     1       2.071   3.932  17.608  0.00  0.00    +0.000 A 
ATOM     23  C   UNL     1       1.313   3.195  18.535  0.00  0.00    +0.000 A 
ATOM     24  C   UNL     1       1.912   2.586  19.644  0.00  0.00    +0.000 A 
ATOM     25  C   UNL     1       3.291   2.677  19.863  0.00  0.00    +0.000 A 
ATOM     26  C   UNL     1       4.003   3.408  18.922  0.00  0.00    +0.000 A 
ATOM     27  O   UNL     1       5.343   3.630  18.903  0.00  0.00    +0.000 OA
ENDBRANCH  18  19
ENDBRANCH  17  18
ENDBRANCH   2  17
TORSDOF 7
ENDMDL
MODEL 3
REMARK VINA RESULT:      -8.0      0.943      1.189
REMARK  Name = 
REMARK  8 active torsions:
REMARK  status: ('A' for Active; 'I' for Inactive)
REMARK    1  A    between atoms: C_1  and  O_2
REMARK    2  A    between atoms: O_2  and  C_3
REMARK    3  A    between atoms: C_6  and  C_7
REMARK    4  A    between atoms: N_8  and  N_9
REMARK    5  A    between atoms: C_10  and  C_12
REMARK    6  A    between atoms: C_12  and  S_13
REMARK    7  A    between atoms: S_13  and  C_14
REMARK    8  A    between atoms: C_23  and  O_24
REMARK                            x       y       z     vdW  Elec       q    Type
REMARK                         _______ _______ _______ _____ _____    ______ ____
ROOT
ATOM      1  N   UNL     1       8.566   8.080  18.948  0.00  0.00    +0.000 N 
ATOM      2  C   UNL     1       7.821   7.277  18.101  0.00  0.00    +0.000 C 
ATOM      3  O   UNL     1       7.377   7.641  17.010  0.00  0.00    +0.000 OA
ATOM      4  H   UNL     1       9.077   7.674  19.732  0.00  0.00    +0.000 HD
ENDROOT
BRANCH   1   6
ATOM      5  C   UNL     1       9.446  10.146  19.340  0.00  0.00    +0.000 C 
ATOM      6  N   UNL     1       8.846   9.339  18.530  0.00  0.00    +0.000 NA
BRANCH   5  10
ATOM      7  C   UNL     1      10.382  14.099  17.960  0.00  0.00    +0.000 A 
ATOM      8  C   UNL     1      10.769  12.974  17.224  0.00  0.00    +0.000 A 
ATOM      9  C   UNL     1      10.465  11.681  17.672  0.00  0.00    +0.000 A 
ATOM     10  C   UNL     1       9.767  11.514  18.870  0.00  0.00    +0.000 A 
ATOM     11  C   UNL     1       9.382  12.643  19.606  0.00  0.00    +0.000 A 
ATOM     12  C   UNL     1       9.686  13.926  19.156  0.00  0.00    +0.000 A 
BRANCH   7  14
ATOM     13  C   UNL     1      10.940  16.377  18.332  0.00  0.00    +0.000 C 
ATOM     14  O   UNL     1      10.734  15.304  17.415  0.00  0.00    +0.000 OA
ENDBRANCH   7  14
BRANCH  11  15
ATOM     15  O   UNL     1       8.692  12.584  20.789  0.00  0.00    +0.000 OA
ATOM     16  H   UNL     1       8.150  11.760  20.796  0.00  0.00    +0.000 HD
ENDBRANCH  11  15
ENDBRANCH   5  10
ENDBRANCH   1   6
BRANCH   2  17
ATOM     17  C   UNL     1       7.565   5.880  18.630  0.00  0.00    +0.000 C 
BRANCH  17  18
ATOM     18  S   UNL     1       6.718   4.855  17.410  0.00  0.00    +0.000 S 
BRANCH  18  19
ATOM     19  C   UNL     1       5.181   4.577  18.172  0.00  0.00    +0.000 A 
ATOM     20  N   UNL     1       4.805   5.112  19.325  0.00  0.00    +0.000 NA
ATOM     21  C   UNL     1       3.517   4.645  19.487  0.00  0.00    +0.000 A 
ATOM     22  C   UNL     1       2.563   4.870  20.491  0.00  0.00    +0.000 A 
ATOM     23  C   UNL     1       1.322   4.218  20.383  0.00  0.00    +0.000 A 
ATOM     24  C   UNL     1       1.038   3.368  19.307  0.00  0.00    +0.000 A 
ATOM     25  C   UNL     1       1.975   3.145  18.292  0.00  0.00    +0.000 A 
ATOM     26  C   UNL     1       3.185   3.811  18.434  0.00  0.00    +0.000 A 
ATOM     27  O   UNL     1       4.243   3.772  17.584  0.00  0.00    +0.000 OA
ENDBRANCH  18  19
ENDBRANCH  17  18
ENDBRANCH   2  17
TORSDOF 7
ENDMDL
MODEL 4
REMARK VINA RESULT:      -8.0      5.466      6.895
REMARK  Name = 
REMARK  8 active torsions:
REMARK  status: ('A' for Active; 'I' for Inactive)
REMARK    1  A    between atoms: C_1  and  O_2
REMARK    2  A    between atoms: O_2  and  C_3
REMARK    3  A    between atoms: C_6  and  C_7
REMARK    4  A    between atoms: N_8  and  N_9
REMARK    5  A    between atoms: C_10  and  C_12
REMARK    6  A    between atoms: C_12  and  S_13
REMARK    7  A    between atoms: S_13  and  C_14
REMARK    8  A    between atoms: C_23  and  O_24
REMARK                            x       y       z     vdW  Elec       q    Type
REMARK                         _______ _______ _______ _____ _____    ______ ____
ROOT
ATOM      1  N   UNL     1       4.140   6.686  16.981  0.00  0.00    +0.000 N 
ATOM      2  C   UNL     1       5.522   6.778  16.934  0.00  0.00    +0.000 C 
ATOM      3  O   UNL     1       6.177   7.671  17.474  0.00  0.00    +0.000 OA
ATOM      4  H   UNL     1       3.666   5.828  16.697  0.00  0.00    +0.000 HD
ENDROOT
BRANCH   1   6
ATOM      5  C   UNL     1       2.535   7.253  18.497  0.00  0.00    +0.000 C 
ATOM      6  N   UNL     1       3.475   7.628  17.695  0.00  0.00    +0.000 NA
BRANCH   5  10
ATOM      7  C   UNL     1       0.484  10.228  20.809  0.00  0.00    +0.000 A 
ATOM      8  C   UNL     1       0.827   8.995  21.373  0.00  0.00    +0.000 A 
ATOM      9  C   UNL     1       1.497   8.020  20.620  0.00  0.00    +0.000 A 
ATOM     10  C   UNL     1       1.825   8.285  19.289  0.00  0.00    +0.000 A 
ATOM     11  C   UNL     1       1.478   9.521  18.727  0.00  0.00    +0.000 A 
ATOM     12  C   UNL     1       0.813  10.486  19.479  0.00  0.00    +0.000 A 
BRANCH   7  14
ATOM     13  C   UNL     1      -0.671  10.541  22.860  0.00  0.00    +0.000 C 
ATOM     14  O   UNL     1      -0.164  11.095  21.648  0.00  0.00    +0.000 OA
ENDBRANCH   7  14
BRANCH  11  15
ATOM     15  O   UNL     1       1.759   9.876  17.433  0.00  0.00    +0.000 OA
ATOM     16  H   UNL     1       2.522  10.502  17.437  0.00  0.00    +0.000 HD
ENDBRANCH  11  15
ENDBRANCH   5  10
ENDBRANCH   1   6
BRANCH   2  17
ATOM     17  C   UNL     1       6.192   5.681  16.132  0.00  0.00    +0.000 C 
BRANCH  17  18
ATOM     18  S   UNL     1       6.546   4.236  17.155  0.00  0.00    +0.000 S 
BRANCH  18  19
ATOM     19  C   UNL     1       5.054   4.030  18.021  0.00  0.00    +0.000 A 
ATOM     20  N   UNL     1       4.873   4.344  19.296  0.00  0.00    +0.000 NA
ATOM     21  C   UNL     1       3.542   4.051  19.511  0.00  0.00    +0.000 A 
ATOM     22  C   UNL     1       2.729   4.187  20.646  0.00  0.00    +0.000 A 
ATOM     23  C   UNL     1       1.390   3.769  20.555  0.00  0.00    +0.000 A 
ATOM     24  C   UNL     1       0.874   3.232  19.369  0.00  0.00    +0.000 A 
ATOM     25  C   UNL     1       1.670   3.103  18.226  0.00  0.00    +0.000 A 
ATOM     26  C   UNL     1       2.985   3.532  18.356  0.00  0.00    +0.000 A 
ATOM     27  O   UNL     1       3.945   3.525  17.396  0.00  0.00    +0.000 OA
ENDBRANCH  18  19
ENDBRANCH  17  18
ENDBRANCH   2  17
TORSDOF 7
ENDMDL
MODEL 5
REMARK VINA RESULT:      -8.0      5.867      6.907
REMARK  Name = 
REMARK  8 active torsions:
REMARK  status: ('A' for Active; 'I' for Inactive)
REMARK    1  A    between atoms: C_1  and  O_2
REMARK    2  A    between atoms: O_2  and  C_3
REMARK    3  A    between atoms: C_6  and  C_7
REMARK    4  A    between atoms: N_8  and  N_9
REMARK    5  A    between atoms: C_10  and  C_12
REMARK    6  A    between atoms: C_12  and  S_13
REMARK    7  A    between atoms: S_13  and  C_14
REMARK    8  A    between atoms: C_23  and  O_24
REMARK                            x       y       z     vdW  Elec       q    Type
REMARK                         _______ _______ _______ _____ _____    ______ ____
ROOT
ATOM      1  N   UNL     1       4.504   6.750  16.984  0.00  0.00    +0.000 N 
ATOM      2  C   UNL     1       5.525   5.998  17.542  0.00  0.00    +0.000 C 
ATOM      3  O   UNL     1       5.866   6.059  18.724  0.00  0.00    +0.000 OA
ATOM      4  H   UNL     1       4.130   6.516  16.064  0.00  0.00    +0.000 HD
ENDROOT
BRANCH   1   6
ATOM      5  C   UNL     1       2.653   7.230  18.224  0.00  0.00    +0.000 C 
ATOM      6  N   UNL     1       3.822   7.585  17.806  0.00  0.00    +0.000 NA
BRANCH   5  10
ATOM      7  C   UNL     1       0.538   9.845  20.887  0.00  0.00    +0.000 A 
ATOM      8  C   UNL     1       0.966   8.583  21.313  0.00  0.00    +0.000 A 
ATOM      9  C   UNL     1       1.657   7.726  20.446  0.00  0.00    +0.000 A 
ATOM     10  C   UNL     1       1.921   8.138  19.138  0.00  0.00    +0.000 A 
ATOM     11  C   UNL     1       1.489   9.402  18.714  0.00  0.00    +0.000 A 
ATOM     12  C   UNL     1       0.802  10.250  19.580  0.00  0.00    +0.000 A 
BRANCH   7  14
ATOM     13  C   UNL     1      -0.429   9.927  23.054  0.00  0.00    +0.000 C 
ATOM     14  O   UNL     1      -0.123  10.588  21.829  0.00  0.00    +0.000 OA
ENDBRANCH   7  14
BRANCH  11  15
ATOM     15  O   UNL     1       1.702   9.897  17.453  0.00  0.00    +0.000 OA
ATOM     16  H   UNL     1       0.875   9.784  16.927  0.00  0.00    +0.000 HD
ENDBRANCH  11  15
ENDBRANCH   5  10
ENDBRANCH   1   6
BRANCH   2  17
ATOM     17  C   UNL     1       6.227   5.077  16.564  0.00  0.00    +0.000 C 
BRANCH  17  18
ATOM     18  S   UNL     1       5.170   3.696  16.081  0.00  0.00    +0.000 S 
BRANCH  18  19
ATOM     19  C   UNL     1       4.102   3.560  17.445  0.00  0.00    +0.000 A 
ATOM     20  N   UNL     1       2.828   3.925  17.442  0.00  0.00    +0.000 NA
ATOM     21  C   UNL     1       2.397   3.586  18.708  0.00  0.00    +0.000 A 
ATOM     22  C   UNL     1       1.142   3.689  19.324  0.00  0.00    +0.000 A 
ATOM     23  C   UNL     1       1.024   3.271  20.662  0.00  0.00    +0.000 A 
ATOM     24  C   UNL     1       2.123   2.764  21.365  0.00  0.00    +0.000 A 
ATOM     25  C   UNL     1       3.378   2.643  20.758  0.00  0.00    +0.000 A 
ATOM     26  C   UNL     1       3.451   3.062  19.437  0.00  0.00    +0.000 A 
ATOM     27  O   UNL     1       4.542   3.034  18.629  0.00  0.00    +0.000 OA
ENDBRANCH  18  19
ENDBRANCH  17  18
ENDBRANCH   2  17
TORSDOF 7
ENDMDL
MODEL 6
REMARK VINA RESULT:      -8.0      5.473      7.524
REMARK  Name = 
REMARK  8 active torsions:
REMARK  status: ('A' for Active; 'I' for Inactive)
REMARK    1  A    between atoms: C_1  and  O_2
REMARK    2  A    between atoms: O_2  and  C_3
REMARK    3  A    between atoms: C_6  and  C_7
REMARK    4  A    between atoms: N_8  and  N_9
REMARK    5  A    between atoms: C_10  and  C_12
REMARK    6  A    between atoms: C_12  and  S_13
REMARK    7  A    between atoms: S_13  and  C_14
REMARK    8  A    between atoms: C_23  and  O_24
REMARK                            x       y       z     vdW  Elec       q    Type
REMARK                         _______ _______ _______ _____ _____    ______ ____
ROOT
ATOM      1  N   UNL     1       2.706   4.997  20.506  0.00  0.00    +0.000 N 
ATOM      2  C   UNL     1       1.920   3.865  20.364  0.00  0.00    +0.000 C 
ATOM      3  O   UNL     1       0.700   3.884  20.192  0.00  0.00    +0.000 OA
ATOM      4  H   UNL     1       3.722   4.935  20.440  0.00  0.00    +0.000 HD
ENDROOT
BRANCH   1   6
ATOM      5  C   UNL     1       2.482   7.040  19.519  0.00  0.00    +0.000 C 
ATOM      6  N   UNL     1       2.089   6.201  20.419  0.00  0.00    +0.000 NA
BRANCH   5  10
ATOM      7  C   UNL     1       0.479  10.820  19.200  0.00  0.00    +0.000 A 
ATOM      8  C   UNL     1       0.925  10.148  18.057  0.00  0.00    +0.000 A 
ATOM      9  C   UNL     1       1.580   8.913  18.157  0.00  0.00    +0.000 A 
ATOM     10  C   UNL     1       1.791   8.346  19.416  0.00  0.00    +0.000 A 
ATOM     11  C   UNL     1       1.345   9.023  20.559  0.00  0.00    +0.000 A 
ATOM     12  C   UNL     1       0.694  10.251  20.454  0.00  0.00    +0.000 A 
BRANCH   7  14
ATOM     13  C   UNL     1       0.687  13.103  18.580  0.00  0.00    +0.000 C 
ATOM     14  O   UNL     1      -0.149  12.015  18.969  0.00  0.00    +0.000 OA
ENDBRANCH   7  14
BRANCH  11  15
ATOM     15  O   UNL     1       1.501   8.550  21.837  0.00  0.00    +0.000 OA
ATOM     16  H   UNL     1       1.720   9.308  22.429  0.00  0.00    +0.000 HD
ENDBRANCH  11  15
ENDBRANCH   5  10
ENDBRANCH   1   6
BRANCH   2  17
ATOM     17  C   UNL     1       2.684   2.560  20.456  0.00  0.00    +0.000 C 
BRANCH  17  18
ATOM     18  S   UNL     1       3.464   2.139  18.883  0.00  0.00    +0.000 S 
BRANCH  18  19
ATOM     19  C   UNL     1       4.510   3.501  18.619  0.00  0.00    +0.000 A 
ATOM     20  N   UNL     1       5.622   3.740  19.300  0.00  0.00    +0.000 NA
ATOM     21  C   UNL     1       6.119   4.883  18.708  0.00  0.00    +0.000 A 
ATOM     22  C   UNL     1       7.282   5.627  18.949  0.00  0.00    +0.000 A 
ATOM     23  C   UNL     1       7.502   6.782  18.177  0.00  0.00    +0.000 A 
ATOM     24  C   UNL     1       6.591   7.183  17.192  0.00  0.00    +0.000 A 
ATOM     25  C   UNL     1       5.433   6.442  16.932  0.00  0.00    +0.000 A 
ATOM     26  C   UNL     1       5.256   5.307  17.712  0.00  0.00    +0.000 A 
ATOM     27  O   UNL     1       4.229   4.421  17.645  0.00  0.00    +0.000 OA
ENDBRANCH  18  19
ENDBRANCH  17  18
ENDBRANCH   2  17
TORSDOF 7
ENDMDL
MODEL 7
REMARK VINA RESULT:      -8.0      1.864      2.256
REMARK  Name = 
REMARK  8 active torsions:
REMARK  status: ('A' for Active; 'I' for Inactive)
REMARK    1  A    between atoms: C_1  and  O_2
REMARK    2  A    between atoms: O_2  and  C_3
REMARK    3  A    between atoms: C_6  and  C_7
REMARK    4  A    between atoms: N_8  and  N_9
REMARK    5  A    between atoms: C_10  and  C_12
REMARK    6  A    between atoms: C_12  and  S_13
REMARK    7  A    between atoms: S_13  and  C_14
REMARK    8  A    between atoms: C_23  and  O_24
REMARK                            x       y       z     vdW  Elec       q    Type
REMARK                         _______ _______ _______ _____ _____    ______ ____
ROOT
ATOM      1  N   UNL     1       7.492   7.886  17.442  0.00  0.00    +0.000 N 
ATOM      2  C   UNL     1       7.528   6.597  17.947  0.00  0.00    +0.000 C 
ATOM      3  O   UNL     1       8.070   6.282  19.008  0.00  0.00    +0.000 OA
ATOM      4  H   UNL     1       6.863   8.127  16.674  0.00  0.00    +0.000 HD
ENDROOT
BRANCH   1   6
ATOM      5  C   UNL     1       8.419   9.963  17.602  0.00  0.00    +0.000 C 
ATOM      6  N   UNL     1       8.066   8.865  18.184  0.00  0.00    +0.000 NA
BRANCH   5  10
ATOM      7  C   UNL     1      10.193  13.055  19.989  0.00  0.00    +0.000 A 
ATOM      8  C   UNL     1      10.356  11.707  20.328  0.00  0.00    +0.000 A 
ATOM      9  C   UNL     1       9.777  10.694  19.551  0.00  0.00    +0.000 A 
ATOM     10  C   UNL     1       9.028  11.036  18.422  0.00  0.00    +0.000 A 
ATOM     11  C   UNL     1       8.866  12.387  18.087  0.00  0.00    +0.000 A 
ATOM     12  C   UNL     1       9.443  13.390  18.863  0.00  0.00    +0.000 A 
BRANCH   7  14
ATOM     13  C   UNL     1      10.965  15.275  20.329  0.00  0.00    +0.000 C 
ATOM     14  O   UNL     1      10.810  13.947  20.825  0.00  0.00    +0.000 OA
ENDBRANCH   7  14
BRANCH  11  15
ATOM     15  O   UNL     1       8.153  12.823  17.000  0.00  0.00    +0.000 OA
ATOM     16  H   UNL     1       8.436  13.744  16.787  0.00  0.00    +0.000 HD
ENDBRANCH  11  15
ENDBRANCH   5  10
ENDBRANCH   1   6
BRANCH   2  17
ATOM     17  C   UNL     1       6.851   5.564  17.069  0.00  0.00    +0.000 C 
BRANCH  17  18
ATOM     18  S   UNL     1       5.331   6.210  16.340  0.00  0.00    +0.000 S 
BRANCH  18  19
ATOM     19  C   UNL     1       4.111   5.500  17.354  0.00  0.00    +0.000 A 
ATOM     20  N   UNL     1       3.479   4.366  17.088  0.00  0.00    +0.000 NA
ATOM     21  C   UNL     1       2.658   4.194  18.184  0.00  0.00    +0.000 A 
ATOM     22  C   UNL     1       1.759   3.174  18.525  0.00  0.00    +0.000 A 
ATOM     23  C   UNL     1       1.038   3.300  19.725  0.00  0.00    +0.000 A 
ATOM     24  C   UNL     1       1.208   4.408  20.563  0.00  0.00    +0.000 A 
ATOM     25  C   UNL     1       2.112   5.427  20.243  0.00  0.00    +0.000 A 
ATOM     26  C   UNL     1       2.807   5.262  19.052  0.00  0.00    +0.000 A 
ATOM     27  O   UNL     1       3.743   6.096  18.530  0.00  0.00    +0.000 OA
ENDBRANCH  18  19
ENDBRANCH  17  18
ENDBRANCH   2  17
TORSDOF 7
ENDMDL
MODEL 8
REMARK VINA RESULT:      -7.9      5.202      7.762
REMARK  Name = 
REMARK  8 active torsions:
REMARK  status: ('A' for Active; 'I' for Inactive)
REMARK    1  A    between atoms: C_1  and  O_2
REMARK    2  A    between atoms: O_2  and  C_3
REMARK    3  A    between atoms: C_6  and  C_7
REMARK    4  A    between atoms: N_8  and  N_9
REMARK    5  A    between atoms: C_10  and  C_12
REMARK    6  A    between atoms: C_12  and  S_13
REMARK    7  A    between atoms: S_13  and  C_14
REMARK    8  A    between atoms: C_23  and  O_24
REMARK                            x       y       z     vdW  Elec       q    Type
REMARK                         _______ _______ _______ _____ _____    ______ ____
ROOT
ATOM      1  N   UNL     1       2.425   5.314  20.858  0.00  0.00    +0.000 N 
ATOM      2  C   UNL     1       2.002   4.217  20.127  0.00  0.00    +0.000 C 
ATOM      3  O   UNL     1       1.018   4.214  19.385  0.00  0.00    +0.000 OA
ATOM      4  H   UNL     1       3.350   5.326  21.290  0.00  0.00    +0.000 HD
ENDROOT
BRANCH   1   6
ATOM      5  C   UNL     1       2.162   7.371  19.910  0.00  0.00    +0.000 C 
ATOM      6  N   UNL     1       1.723   6.466  20.720  0.00  0.00    +0.000 NA
BRANCH   5  10
ATOM      7  C   UNL     1      -0.109  10.983  19.463  0.00  0.00    +0.000 A 
ATOM      8  C   UNL     1      -0.170  10.241  20.648  0.00  0.00    +0.000 A 
ATOM      9  C   UNL     1       0.570   9.060  20.798  0.00  0.00    +0.000 A 
ATOM     10  C   UNL     1       1.379   8.618  19.748  0.00  0.00    +0.000 A 
ATOM     11  C   UNL     1       1.436   9.362  18.562  0.00  0.00    +0.000 A 
ATOM     12  C   UNL     1       0.698  10.535  18.419  0.00  0.00    +0.000 A 
BRANCH   7  14
ATOM     13  C   UNL     1      -0.733  12.957  18.300  0.00  0.00    +0.000 C 
ATOM     14  O   UNL     1      -0.876  12.117  19.444  0.00  0.00    +0.000 OA
ENDBRANCH   7  14
BRANCH  11  15
ATOM     15  O   UNL     1       2.200   9.014  17.479  0.00  0.00    +0.000 OA
ATOM     16  H   UNL     1       1.700   8.355  16.940  0.00  0.00    +0.000 HD
ENDBRANCH  11  15
ENDBRANCH   5  10
ENDBRANCH   1   6
BRANCH   2  17
ATOM     17  C   UNL     1       2.847   2.974  20.322  0.00  0.00    +0.000 C 
BRANCH  17  18
ATOM     18  S   UNL     1       3.636   2.463  18.781  0.00  0.00    +0.000 S 
BRANCH  18  19
ATOM     19  C   UNL     1       4.713   3.790  18.466  0.00  0.00    +0.000 A 
ATOM     20  N   UNL     1       4.538   4.691  17.510  0.00  0.00    +0.000 NA
ATOM     21  C   UNL     1       5.604   5.550  17.683  0.00  0.00    +0.000 A 
ATOM     22  C   UNL     1       5.974   6.724  17.011  0.00  0.00    +0.000 A 
ATOM     23  C   UNL     1       7.153   7.376  17.416  0.00  0.00    +0.000 A 
ATOM     24  C   UNL     1       7.939   6.875  18.460  0.00  0.00    +0.000 A 
ATOM     25  C   UNL     1       7.574   5.713  19.149  0.00  0.00    +0.000 A 
ATOM     26  C   UNL     1       6.402   5.103  18.722  0.00  0.00    +0.000 A 
ATOM     27  O   UNL     1       5.831   3.982  19.233  0.00  0.00    +0.000 OA
ENDBRANCH  18  19
ENDBRANCH  17  18
ENDBRANCH   2  17
TORSDOF 7
ENDMDL
MODEL 9
REMARK VINA RESULT:      -7.9      1.430      1.598
REMARK  Name = 
REMARK  8 active torsions:
REMARK  status: ('A' for Active; 'I' for Inactive)
REMARK    1  A    between atoms: C_1  and  O_2
REMARK    2  A    between atoms: O_2  and  C_3
REMARK    3  A    between atoms: C_6  and  C_7
REMARK    4  A    between atoms: N_8  and  N_9
REMARK    5  A    between atoms: C_10  and  C_12
REMARK    6  A    between atoms: C_12  and  S_13
REMARK    7  A    between atoms: S_13  and  C_14
REMARK    8  A    between atoms: C_23  and  O_24
REMARK                            x       y       z     vdW  Elec       q    Type
REMARK                         _______ _______ _______ _____ _____    ______ ____
ROOT
ATOM      1  N   UNL     1       8.515   7.951  18.953  0.00  0.00    +0.000 N 
ATOM      2  C   UNL     1       7.754   7.231  18.047  0.00  0.00    +0.000 C 
ATOM      3  O   UNL     1       7.518   7.594  16.894  0.00  0.00    +0.000 OA
ATOM      4  H   UNL     1       8.848   7.517  19.814  0.00  0.00    +0.000 HD
ENDROOT
BRANCH   1   6
ATOM      5  C   UNL     1       9.251  10.066  19.379  0.00  0.00    +0.000 C 
ATOM      6  N   UNL     1       9.058   9.117  18.524  0.00  0.00    +0.000 NA
BRANCH   5  10
ATOM      7  C   UNL     1      11.042  13.723  18.026  0.00  0.00    +0.000 A 
ATOM      8  C   UNL     1      11.693  12.909  18.960  0.00  0.00    +0.000 A 
ATOM      9  C   UNL     1      11.111  11.714  19.404  0.00  0.00    +0.000 A 
ATOM     10  C   UNL     1       9.863  11.331  18.908  0.00  0.00    +0.000 A 
ATOM     11  C   UNL     1       9.212  12.149  17.975  0.00  0.00    +0.000 A 
ATOM     12  C   UNL     1       9.795  13.336  17.536  0.00  0.00    +0.000 A 
BRANCH   7  14
ATOM     13  C   UNL     1      11.791  15.886  18.658  0.00  0.00    +0.000 C 
ATOM     14  O   UNL     1      11.715  14.860  17.670  0.00  0.00    +0.000 OA
ENDBRANCH   7  14
BRANCH  11  15
ATOM     15  O   UNL     1       7.989  11.859  17.428  0.00  0.00    +0.000 OA
ATOM     16  H   UNL     1       7.720  10.956  17.721  0.00  0.00    +0.000 HD
ENDBRANCH  11  15
ENDBRANCH   5  10
ENDBRANCH   1   6
BRANCH   2  17
ATOM     17  C   UNL     1       7.197   5.932  18.595  0.00  0.00    +0.000 C 
BRANCH  17  18
ATOM     18  S   UNL     1       6.325   4.997  17.321  0.00  0.00    +0.000 S 
BRANCH  18  19
ATOM     19  C   UNL     1       4.857   4.551  18.137  0.00  0.00    +0.000 A 
ATOM     20  N   UNL     1       4.328   3.336  18.125  0.00  0.00    +0.000 NA
ATOM     21  C   UNL     1       3.219   3.463  18.936  0.00  0.00    +0.000 A 
ATOM     22  C   UNL     1       2.256   2.532  19.350  0.00  0.00    +0.000 A 
ATOM     23  C   UNL     1       1.211   2.983  20.176  0.00  0.00    +0.000 A 
ATOM     24  C   UNL     1       1.129   4.321  20.580  0.00  0.00    +0.000 A 
ATOM     25  C   UNL     1       2.091   5.257  20.185  0.00  0.00    +0.000 A 
ATOM     26  C   UNL     1       3.107   4.771  19.374  0.00  0.00    +0.000 A 
ATOM     27  O   UNL     1       4.159   5.469  18.874  0.00  0.00    +0.000 OA
ENDBRANCH  18  19
ENDBRANCH  17  18
ENDBRANCH   2  17
TORSDOF 7
ENDMDL
