MODEL 1
REMARK VINA RESULT:      -8.1      0.000      0.000
REMARK  Name = 
REMARK  8 active torsions:
REMARK  status: ('A' for Active; 'I' for Inactive)
REMARK    1  A    between atoms: C_1  and  C_2
REMARK    2  A    between atoms: C_4  and  O_5
REMARK    3  A    between atoms: O_5  and  C_6
REMARK    4  A    between atoms: C_6  and  C_7
REMARK    5  A    between atoms: C_7  and  O_9
REMARK    6  A    between atoms: O_9  and  N_10
REMARK    7  A    between atoms: C_11  and  C_13
REMARK    8  A    between atoms: C_13  and  C_14
REMARK                            x       y       z     vdW  Elec       q    Type
REMARK                         _______ _______ _______ _____ _____    ______ ____
ROOT
ATOM      1  O   UNL     1       7.629   6.689  16.554  0.00  0.00    +0.000 OA
ENDROOT
BRANCH   1   2
ATOM      2  N   UNL     1       6.292   6.360  16.260  0.00  0.00    +0.000 NA
ATOM      3  C   UNL     1       6.112   5.074  16.347  0.00  0.00    +0.000 C 
ATOM      4  N   UNL     1       7.129   4.187  16.617  0.00  0.00    +0.000 N 
ATOM      5  H   UNL     1       8.048   4.621  16.544  0.00  0.00    +0.000 HD
ATOM      6  H   UNL     1       7.083   3.300  16.131  0.00  0.00    +0.000 HD
BRANCH   3   7
ATOM      7  C   UNL     1       4.707   4.530  16.067  0.00  0.00    +0.000 C 
BRANCH   7   8
ATOM      8  C   UNL     1       3.824   4.226  17.266  0.00  0.00    +0.000 A 
ATOM      9  C   UNL     1       3.001   5.183  17.876  0.00  0.00    +0.000 A 
ATOM     10  C   UNL     1       2.215   4.843  18.984  0.00  0.00    +0.000 A 
ATOM     11  C   UNL     1       2.211   3.536  19.472  0.00  0.00    +0.000 A 
ATOM     12 CL   UNL     1       1.273   3.132  20.856  0.00  0.00    +0.000 Cl
ATOM     13  C   UNL     1       2.966   2.559  18.835  0.00  0.00    +0.000 A 
ATOM     14  C   UNL     1       3.763   2.901  17.738  0.00  0.00    +0.000 A 
ENDBRANCH   7   8
ENDBRANCH   3   7
ENDBRANCH   1   2
BRANCH   1  15
ATOM     15  C   UNL     1       7.713   7.125  17.858  0.00  0.00    +0.000 C 
ATOM     16  O   UNL     1       7.526   6.450  18.858  0.00  0.00    +0.000 OA
BRANCH  15  17
ATOM     17  C   UNL     1       8.117   8.589  17.844  0.00  0.00    +0.000 C 
BRANCH  17  18
ATOM     18  O   UNL     1       8.882   8.935  18.986  0.00  0.00    +0.000 OA
BRANCH  18  22
ATOM     19  C   UNL     1       9.727  13.023  21.723  0.00  0.00    +0.000 C 
ATOM     20  C   UNL     1       9.626  12.319  20.395  0.00  0.00    +0.000 A 
ATOM     21  C   UNL     1       9.285  10.951  20.362  0.00  0.00    +0.000 A 
ATOM     22  C   UNL     1       9.189  10.261  19.148  0.00  0.00    +0.000 A 
ATOM     23  C   UNL     1       9.427  10.948  17.957  0.00  0.00    +0.000 A 
ATOM     24  C   UNL     1       9.761  12.302  17.969  0.00  0.00    +0.000 A 
ATOM     25  C   UNL     1       9.861  12.985  19.184  0.00  0.00    +0.000 A 
ATOM     26 BR   UNL     1      10.327  14.827  19.116  0.00  0.00    +0.000 Br
ENDBRANCH  18  22
ENDBRANCH  17  18
ENDBRANCH  15  17
ENDBRANCH   1  15
TORSDOF 7
ENDMDL
MODEL 2
REMARK VINA RESULT:      -7.9      5.359      7.082
REMARK  Name = 
REMARK  8 active torsions:
REMARK  status: ('A' for Active; 'I' for Inactive)
REMARK    1  A    between atoms: C_1  and  C_2
REMARK    2  A    between atoms: C_4  and  O_5
REMARK    3  A    between atoms: O_5  and  C_6
REMARK    4  A    between atoms: C_6  and  C_7
REMARK    5  A    between atoms: C_7  and  O_9
REMARK    6  A    between atoms: O_9  and  N_10
REMARK    7  A    between atoms: C_11  and  C_13
REMARK    8  A    between atoms: C_13  and  C_14
REMARK                            x       y       z     vdW  Elec       q    Type
REMARK                         _______ _______ _______ _____ _____    ______ ____
ROOT
ATOM      1  O   UNL     1       1.533   2.103  19.138  0.00  0.00    +0.000 OA
ENDROOT
BRANCH   1   2
ATOM      2  N   UNL     1       2.121   2.953  18.181  0.00  0.00    +0.000 NA
ATOM      3  C   UNL     1       3.301   2.514  17.850  0.00  0.00    +0.000 C 
ATOM      4  N   UNL     1       3.886   1.413  18.432  0.00  0.00    +0.000 N 
ATOM      5  H   UNL     1       3.390   1.110  19.268  0.00  0.00    +0.000 HD
ATOM      6  H   UNL     1       4.887   1.470  18.578  0.00  0.00    +0.000 HD
BRANCH   3   7
ATOM      7  C   UNL     1       4.091   3.311  16.807  0.00  0.00    +0.000 C 
BRANCH   7   8
ATOM      8  C   UNL     1       5.135   4.291  17.319  0.00  0.00    +0.000 A 
ATOM      9  C   UNL     1       5.443   4.445  18.677  0.00  0.00    +0.000 A 
ATOM     10  C   UNL     1       6.409   5.372  19.087  0.00  0.00    +0.000 A 
ATOM     11  C   UNL     1       7.106   6.128  18.144  0.00  0.00    +0.000 A 
ATOM     12 CL   UNL     1       8.265   7.292  18.654  0.00  0.00    +0.000 Cl
ATOM     13  C   UNL     1       6.864   5.936  16.790  0.00  0.00    +0.000 A 
ATOM     14  C   UNL     1       5.888   5.022  16.381  0.00  0.00    +0.000 A 
ENDBRANCH   7   8
ENDBRANCH   3   7
ENDBRANCH   1   2
BRANCH   1  15
ATOM     15  C   UNL     1       1.699   2.650  20.391  0.00  0.00    +0.000 C 
ATOM     16  O   UNL     1       2.222   2.105  21.352  0.00  0.00    +0.000 OA
BRANCH  15  17
ATOM     17  C   UNL     1       1.151   4.066  20.369  0.00  0.00    +0.000 C 
BRANCH  17  18
ATOM     18  O   UNL     1       2.139   5.018  20.727  0.00  0.00    +0.000 OA
BRANCH  18  22
ATOM     19  C   UNL     1       0.646   9.776  20.943  0.00  0.00    +0.000 C 
ATOM     20  C   UNL     1       1.309   8.629  20.224  0.00  0.00    +0.000 A 
ATOM     21  C   UNL     1       1.379   7.368  20.851  0.00  0.00    +0.000 A 
ATOM     22  C   UNL     1       1.994   6.283  20.218  0.00  0.00    +0.000 A 
ATOM     23  C   UNL     1       2.536   6.457  18.944  0.00  0.00    +0.000 A 
ATOM     24  C   UNL     1       2.471   7.696  18.306  0.00  0.00    +0.000 A 
ATOM     25  C   UNL     1       1.861   8.778  18.944  0.00  0.00    +0.000 A 
ATOM     26 BR   UNL     1       1.821  10.435  18.011  0.00  0.00    +0.000 Br
ENDBRANCH  18  22
ENDBRANCH  17  18
ENDBRANCH  15  17
ENDBRANCH   1  15
TORSDOF 7
ENDMDL
MODEL 3
REMARK VINA RESULT:      -7.8      1.449      1.812
REMARK  Name = 
REMARK  8 active torsions:
REMARK  status: ('A' for Active; 'I' for Inactive)
REMARK    1  A    between atoms: C_1  and  C_2
REMARK    2  A    between atoms: C_4  and  O_5
REMARK    3  A    between atoms: O_5  and  C_6
REMARK    4  A    between atoms: C_6  and  C_7
REMARK    5  A    between atoms: C_7  and  O_9
REMARK    6  A    between atoms: O_9  and  N_10
REMARK    7  A    between atoms: C_11  and  C_13
REMARK    8  A    between atoms: C_13  and  C_14
REMARK                            x       y       z     vdW  Elec       q    Type
REMARK                         _______ _______ _______ _____ _____    ______ ____
ROOT
ATOM      1  O   UNL     1       7.431   7.438  16.749  0.00  0.00    +0.000 OA
ENDROOT
BRANCH   1   2
ATOM      2  N   UNL     1       7.032   6.114  17.018  0.00  0.00    +0.000 NA
ATOM      3  C   UNL     1       5.944   5.828  16.362  0.00  0.00    +0.000 C 
ATOM      4  N   UNL     1       5.270   6.742  15.585  0.00  0.00    +0.000 N 
ATOM      5  H   UNL     1       5.597   7.694  15.739  0.00  0.00    +0.000 HD
ATOM      6  H   UNL     1       4.259   6.675  15.601  0.00  0.00    +0.000 HD
BRANCH   3   7
ATOM      7  C   UNL     1       5.363   4.420  16.526  0.00  0.00    +0.000 C 
BRANCH   7   8
ATOM      8  C   UNL     1       4.177   4.257  17.462  0.00  0.00    +0.000 A 
ATOM      9  C   UNL     1       2.965   3.673  17.072  0.00  0.00    +0.000 A 
ATOM     10  C   UNL     1       1.905   3.559  17.979  0.00  0.00    +0.000 A 
ATOM     11  C   UNL     1       2.055   3.991  19.298  0.00  0.00    +0.000 A 
ATOM     12 CL   UNL     1       0.738   3.884  20.399  0.00  0.00    +0.000 Cl
ATOM     13  C   UNL     1       3.273   4.508  19.720  0.00  0.00    +0.000 A 
ATOM     14  C   UNL     1       4.328   4.636  18.810  0.00  0.00    +0.000 A 
ENDBRANCH   7   8
ENDBRANCH   3   7
ENDBRANCH   1   2
BRANCH   1  15
ATOM     15  C   UNL     1       8.012   7.975  17.877  0.00  0.00    +0.000 C 
ATOM     16  O   UNL     1       8.460   7.348  18.825  0.00  0.00    +0.000 OA
BRANCH  15  17
ATOM     17  C   UNL     1       8.035   9.486  17.726  0.00  0.00    +0.000 C 
BRANCH  17  18
ATOM     18  O   UNL     1       8.886  10.097  18.681  0.00  0.00    +0.000 OA
BRANCH  18  22
ATOM     19  C   UNL     1       8.659  15.081  18.536  0.00  0.00    +0.000 C 
ATOM     20  C   UNL     1       9.367  13.781  18.255  0.00  0.00    +0.000 A 
ATOM     21  C   UNL     1       8.747  12.565  18.609  0.00  0.00    +0.000 A 
ATOM     22  C   UNL     1       9.376  11.339  18.371  0.00  0.00    +0.000 A 
ATOM     23  C   UNL     1      10.633  11.327  17.764  0.00  0.00    +0.000 A 
ATOM     24  C   UNL     1      11.260  12.519  17.401  0.00  0.00    +0.000 A 
ATOM     25  C   UNL     1      10.630  13.742  17.646  0.00  0.00    +0.000 A 
ATOM     26 BR   UNL     1      11.554  15.322  17.130  0.00  0.00    +0.000 Br
ENDBRANCH  18  22
ENDBRANCH  17  18
ENDBRANCH  15  17
ENDBRANCH   1  15
TORSDOF 7
ENDMDL
MODEL 4
REMARK VINA RESULT:      -7.6      5.474      7.262
REMARK  Name = 
REMARK  8 active torsions:
REMARK  status: ('A' for Active; 'I' for Inactive)
REMARK    1  A    between atoms: C_1  and  C_2
REMARK    2  A    between atoms: C_4  and  O_5
REMARK    3  A    between atoms: O_5  and  C_6
REMARK    4  A    between atoms: C_6  and  C_7
REMARK    5  A    between atoms: C_7  and  O_9
REMARK    6  A    between atoms: O_9  and  N_10
REMARK    7  A    between atoms: C_11  and  C_13
REMARK    8  A    between atoms: C_13  and  C_14
REMARK                            x       y       z     vdW  Elec       q    Type
REMARK                         _______ _______ _______ _____ _____    ______ ____
ROOT
ATOM      1  O   UNL     1       1.513   2.476  19.756  0.00  0.00    +0.000 OA
ENDROOT
BRANCH   1   2
ATOM      2  N   UNL     1       2.675   2.388  18.965  0.00  0.00    +0.000 NA
ATOM      3  C   UNL     1       2.585   3.184  17.939  0.00  0.00    +0.000 C 
ATOM      4  N   UNL     1       1.464   3.933  17.662  0.00  0.00    +0.000 N 
ATOM      5  H   UNL     1       0.663   3.649  18.222  0.00  0.00    +0.000 HD
ATOM      6  H   UNL     1       1.231   4.034  16.681  0.00  0.00    +0.000 HD
BRANCH   3   7
ATOM      7  C   UNL     1       3.767   3.229  16.965  0.00  0.00    +0.000 C 
BRANCH   7   8
ATOM      8  C   UNL     1       4.779   4.348  17.146  0.00  0.00    +0.000 A 
ATOM      9  C   UNL     1       5.324   4.699  18.388  0.00  0.00    +0.000 A 
ATOM     10  C   UNL     1       6.248   5.746  18.491  0.00  0.00    +0.000 A 
ATOM     11  C   UNL     1       6.668   6.430  17.350  0.00  0.00    +0.000 A 
ATOM     12 CL   UNL     1       7.774   7.741  17.485  0.00  0.00    +0.000 Cl
ATOM     13  C   UNL     1       6.192   6.049  16.102  0.00  0.00    +0.000 A 
ATOM     14  C   UNL     1       5.258   5.013  16.000  0.00  0.00    +0.000 A 
ENDBRANCH   7   8
ENDBRANCH   3   7
ENDBRANCH   1   2
BRANCH   1  15
ATOM     15  C   UNL     1       1.845   2.976  20.996  0.00  0.00    +0.000 C 
ATOM     16  O   UNL     1       2.406   2.365  21.893  0.00  0.00    +0.000 OA
BRANCH  15  17
ATOM     17  C   UNL     1       1.428   4.435  21.048  0.00  0.00    +0.000 C 
BRANCH  17  18
ATOM     18  O   UNL     1       2.403   5.282  20.464  0.00  0.00    +0.000 OA
BRANCH  18  22
ATOM     19  C   UNL     1       2.206   9.384  17.627  0.00  0.00    +0.000 C 
ATOM     20  C   UNL     1       1.862   8.628  18.884  0.00  0.00    +0.000 A 
ATOM     21  C   UNL     1       2.329   7.308  19.047  0.00  0.00    +0.000 A 
ATOM     22  C   UNL     1       2.023   6.572  20.197  0.00  0.00    +0.000 A 
ATOM     23  C   UNL     1       1.252   7.165  21.197  0.00  0.00    +0.000 A 
ATOM     24  C   UNL     1       0.785   8.472  21.057  0.00  0.00    +0.000 A 
ATOM     25  C   UNL     1       1.088   9.201  19.904  0.00  0.00    +0.000 A 
ATOM     26 BR   UNL     1       0.409  10.973  19.785  0.00  0.00    +0.000 Br
ENDBRANCH  18  22
ENDBRANCH  17  18
ENDBRANCH  15  17
ENDBRANCH   1  15
TORSDOF 7
ENDMDL
MODEL 5
REMARK VINA RESULT:      -7.5      0.752      1.230
REMARK  Name = 
REMARK  8 active torsions:
REMARK  status: ('A' for Active; 'I' for Inactive)
REMARK    1  A    between atoms: C_1  and  C_2
REMARK    2  A    between atoms: C_4  and  O_5
REMARK    3  A    between atoms: O_5  and  C_6
REMARK    4  A    between atoms: C_6  and  C_7
REMARK    5  A    between atoms: C_7  and  O_9
REMARK    6  A    between atoms: O_9  and  N_10
REMARK    7  A    between atoms: C_11  and  C_13
REMARK    8  A    between atoms: C_13  and  C_14
REMARK                            x       y       z     vdW  Elec       q    Type
REMARK                         _______ _______ _______ _____ _____    ______ ____
ROOT
ATOM      1  O   UNL     1       7.688   6.578  16.656  0.00  0.00    +0.000 OA
ENDROOT
BRANCH   1   2
ATOM      2  N   UNL     1       6.609   5.859  16.105  0.00  0.00    +0.000 NA
ATOM      3  C   UNL     1       6.487   4.705  16.696  0.00  0.00    +0.000 C 
ATOM      4  N   UNL     1       7.355   4.258  17.665  0.00  0.00    +0.000 N 
ATOM      5  H   UNL     1       8.196   4.829  17.722  0.00  0.00    +0.000 HD
ATOM      6  H   UNL     1       7.564   3.267  17.648  0.00  0.00    +0.000 HD
BRANCH   3   7
ATOM      7  C   UNL     1       5.354   3.784  16.231  0.00  0.00    +0.000 C 
BRANCH   7   8
ATOM      8  C   UNL     1       4.172   3.601  17.168  0.00  0.00    +0.000 A 
ATOM      9  C   UNL     1       3.822   2.367  17.734  0.00  0.00    +0.000 A 
ATOM     10  C   UNL     1       2.715   2.261  18.584  0.00  0.00    +0.000 A 
ATOM     11  C   UNL     1       1.967   3.393  18.912  0.00  0.00    +0.000 A 
ATOM     12 CL   UNL     1       0.585   3.252  19.927  0.00  0.00    +0.000 Cl
ATOM     13  C   UNL     1       2.342   4.636  18.417  0.00  0.00    +0.000 A 
ATOM     14  C   UNL     1       3.439   4.739  17.555  0.00  0.00    +0.000 A 
ENDBRANCH   7   8
ENDBRANCH   3   7
ENDBRANCH   1   2
BRANCH   1  15
ATOM     15  C   UNL     1       7.200   7.650  17.370  0.00  0.00    +0.000 C 
ATOM     16  O   UNL     1       6.088   7.740  17.867  0.00  0.00    +0.000 OA
BRANCH  15  17
ATOM     17  C   UNL     1       8.298   8.695  17.467  0.00  0.00    +0.000 C 
BRANCH  17  18
ATOM     18  O   UNL     1       8.658   8.957  18.813  0.00  0.00    +0.000 OA
BRANCH  18  22
ATOM     19  C   UNL     1       9.769  12.728  21.889  0.00  0.00    +0.000 C 
ATOM     20  C   UNL     1       9.723  12.112  20.514  0.00  0.00    +0.000 A 
ATOM     21  C   UNL     1       9.189  10.817  20.354  0.00  0.00    +0.000 A 
ATOM     22  C   UNL     1       9.137  10.210  19.095  0.00  0.00    +0.000 A 
ATOM     23  C   UNL     1       9.614  10.907  17.984  0.00  0.00    +0.000 A 
ATOM     24  C   UNL     1      10.141  12.191  18.122  0.00  0.00    +0.000 A 
ATOM     25  C   UNL     1      10.196  12.792  19.382  0.00  0.00    +0.000 A 
ATOM     26 BR   UNL     1      10.936  14.541  19.488  0.00  0.00    +0.000 Br
ENDBRANCH  18  22
ENDBRANCH  17  18
ENDBRANCH  15  17
ENDBRANCH   1  15
TORSDOF 7
ENDMDL
MODEL 6
REMARK VINA RESULT:      -7.4      4.707      9.483
REMARK  Name = 
REMARK  8 active torsions:
REMARK  status: ('A' for Active; 'I' for Inactive)
REMARK    1  A    between atoms: C_1  and  C_2
REMARK    2  A    between atoms: C_4  and  O_5
REMARK    3  A    between atoms: O_5  and  C_6
REMARK    4  A    between atoms: C_6  and  C_7
REMARK    5  A    between atoms: C_7  and  O_9
REMARK    6  A    between atoms: O_9  and  N_10
REMARK    7  A    between atoms: C_11  and  C_13
REMARK    8  A    between atoms: C_13  and  C_14
REMARK                            x       y       z     vdW  Elec       q    Type
REMARK                         _______ _______ _______ _____ _____    ______ ____
ROOT
ATOM      1  O   UNL     1       7.514   7.074  17.517  0.00  0.00    +0.000 OA
ENDROOT
BRANCH   1   2
ATOM      2  N   UNL     1       8.369   7.731  18.423  0.00  0.00    +0.000 NA
ATOM      3  C   UNL     1       8.286   9.021  18.269  0.00  0.00    +0.000 C 
ATOM      4  N   UNL     1       7.515   9.616  17.297  0.00  0.00    +0.000 N 
ATOM      5  H   UNL     1       7.186   8.947  16.604  0.00  0.00    +0.000 HD
ATOM      6  H   UNL     1       7.905  10.450  16.873  0.00  0.00    +0.000 HD
BRANCH   3   7
ATOM      7  C   UNL     1       9.144   9.905  19.181  0.00  0.00    +0.000 C 
BRANCH   7   8
ATOM      8  C   UNL     1       9.661  11.212  18.603  0.00  0.00    +0.000 A 
ATOM      9  C   UNL     1      10.818  11.300  17.816  0.00  0.00    +0.000 A 
ATOM     10  C   UNL     1      11.249  12.535  17.319  0.00  0.00    +0.000 A 
ATOM     11  C   UNL     1      10.510  13.692  17.569  0.00  0.00    +0.000 A 
ATOM     12 CL   UNL     1      11.063  15.214  16.988  0.00  0.00    +0.000 Cl
ATOM     13  C   UNL     1       9.323  13.612  18.286  0.00  0.00    +0.000 A 
ATOM     14  C   UNL     1       8.901  12.380  18.797  0.00  0.00    +0.000 A 
ENDBRANCH   7   8
ENDBRANCH   3   7
ENDBRANCH   1   2
BRANCH   1  15
ATOM     15  C   UNL     1       7.461   5.735  17.834  0.00  0.00    +0.000 C 
ATOM     16  O   UNL     1       7.789   5.232  18.897  0.00  0.00    +0.000 OA
BRANCH  15  17
ATOM     17  C   UNL     1       6.885   4.987  16.643  0.00  0.00    +0.000 C 
BRANCH  17  18
ATOM     18  O   UNL     1       5.554   5.388  16.364  0.00  0.00    +0.000 OA
BRANCH  18  22
ATOM     19  C   UNL     1       3.133   1.720  18.730  0.00  0.00    +0.000 C 
ATOM     20  C   UNL     1       3.322   3.176  18.391  0.00  0.00    +0.000 A 
ATOM     21  C   UNL     1       4.362   3.553  17.517  0.00  0.00    +0.000 A 
ATOM     22  C   UNL     1       4.573   4.895  17.185  0.00  0.00    +0.000 A 
ATOM     23  C   UNL     1       3.731   5.869  17.725  0.00  0.00    +0.000 A 
ATOM     24  C   UNL     1       2.694   5.515  18.587  0.00  0.00    +0.000 A 
ATOM     25  C   UNL     1       2.490   4.173  18.920  0.00  0.00    +0.000 A 
ATOM     26 BR   UNL     1       1.060   3.773  20.108  0.00  0.00    +0.000 Br
ENDBRANCH  18  22
ENDBRANCH  17  18
ENDBRANCH  15  17
ENDBRANCH   1  15
TORSDOF 7
ENDMDL
MODEL 7
REMARK VINA RESULT:      -7.4      5.280      7.183
REMARK  Name = 
REMARK  8 active torsions:
REMARK  status: ('A' for Active; 'I' for Inactive)
REMARK    1  A    between atoms: C_1  and  C_2
REMARK    2  A    between atoms: C_4  and  O_5
REMARK    3  A    between atoms: O_5  and  C_6
REMARK    4  A    between atoms: C_6  and  C_7
REMARK    5  A    between atoms: C_7  and  O_9
REMARK    6  A    between atoms: O_9  and  N_10
REMARK    7  A    between atoms: C_11  and  C_13
REMARK    8  A    between atoms: C_13  and  C_14
REMARK                            x       y       z     vdW  Elec       q    Type
REMARK                         _______ _______ _______ _____ _____    ______ ____
ROOT
ATOM      1  O   UNL     1       2.202   2.631  19.636  0.00  0.00    +0.000 OA
ENDROOT
BRANCH   1   2
ATOM      2  N   UNL     1       3.458   2.673  19.000  0.00  0.00    +0.000 NA
ATOM      3  C   UNL     1       3.361   3.266  17.846  0.00  0.00    +0.000 C 
ATOM      4  N   UNL     1       2.167   3.709  17.324  0.00  0.00    +0.000 N 
ATOM      5  H   UNL     1       1.365   3.349  17.838  0.00  0.00    +0.000 HD
ATOM      6  H   UNL     1       2.059   3.608  16.322  0.00  0.00    +0.000 HD
BRANCH   3   7
ATOM      7  C   UNL     1       4.637   3.413  17.010  0.00  0.00    +0.000 C 
BRANCH   7   8
ATOM      8  C   UNL     1       5.456   4.679  17.200  0.00  0.00    +0.000 A 
ATOM      9  C   UNL     1       5.052   5.934  16.725  0.00  0.00    +0.000 A 
ATOM     10  C   UNL     1       5.855   7.063  16.924  0.00  0.00    +0.000 A 
ATOM     11  C   UNL     1       7.053   6.960  17.633  0.00  0.00    +0.000 A 
ATOM     12 CL   UNL     1       8.055   8.342  17.842  0.00  0.00    +0.000 Cl
ATOM     13  C   UNL     1       7.433   5.738  18.172  0.00  0.00    +0.000 A 
ATOM     14  C   UNL     1       6.639   4.607  17.960  0.00  0.00    +0.000 A 
ENDBRANCH   7   8
ENDBRANCH   3   7
ENDBRANCH   1   2
BRANCH   1  15
ATOM     15  C   UNL     1       2.320   3.147  20.908  0.00  0.00    +0.000 C 
ATOM     16  O   UNL     1       2.126   2.544  21.952  0.00  0.00    +0.000 OA
BRANCH  15  17
ATOM     17  C   UNL     1       2.772   4.593  20.794  0.00  0.00    +0.000 C 
BRANCH  17  18
ATOM     18  O   UNL     1       1.799   5.490  21.300  0.00  0.00    +0.000 OA
BRANCH  18  22
ATOM     19  C   UNL     1       2.567   8.631  17.497  0.00  0.00    +0.000 C 
ATOM     20  C   UNL     1       1.992   8.311  18.853  0.00  0.00    +0.000 A 
ATOM     21  C   UNL     1       2.202   7.033  19.409  0.00  0.00    +0.000 A 
ATOM     22  C   UNL     1       1.677   6.697  20.662  0.00  0.00    +0.000 A 
ATOM     23  C   UNL     1       0.943   7.651  21.368  0.00  0.00    +0.000 A 
ATOM     24  C   UNL     1       0.729   8.923  20.836  0.00  0.00    +0.000 A 
ATOM     25  C   UNL     1       1.251   9.251  19.583  0.00  0.00    +0.000 A 
ATOM     26 BR   UNL     1       0.908  11.002  18.924  0.00  0.00    +0.000 Br
ENDBRANCH  18  22
ENDBRANCH  17  18
ENDBRANCH  15  17
ENDBRANCH   1  15
TORSDOF 7
ENDMDL
MODEL 8
REMARK VINA RESULT:      -7.4      5.658      7.506
REMARK  Name = 
REMARK  8 active torsions:
REMARK  status: ('A' for Active; 'I' for Inactive)
REMARK    1  A    between atoms: C_1  and  C_2
REMARK    2  A    between atoms: C_4  and  O_5
REMARK    3  A    between atoms: O_5  and  C_6
REMARK    4  A    between atoms: C_6  and  C_7
REMARK    5  A    between atoms: C_7  and  O_9
REMARK    6  A    between atoms: O_9  and  N_10
REMARK    7  A    between atoms: C_11  and  C_13
REMARK    8  A    between atoms: C_13  and  C_14
REMARK                            x       y       z     vdW  Elec       q    Type
REMARK                         _______ _______ _______ _____ _____    ______ ____
ROOT
ATOM      1  O   UNL     1       0.793   3.501  18.264  0.00  0.00    +0.000 OA
ENDROOT
BRANCH   1   2
ATOM      2  N   UNL     1       1.624   4.621  18.066  0.00  0.00    +0.000 NA
ATOM      3  C   UNL     1       1.853   5.219  19.200  0.00  0.00    +0.000 C 
ATOM      4  N   UNL     1       1.285   4.824  20.389  0.00  0.00    +0.000 N 
ATOM      5  H   UNL     1       0.529   4.156  20.252  0.00  0.00    +0.000 HD
ATOM      6  H   UNL     1       1.028   5.570  21.025  0.00  0.00    +0.000 HD
BRANCH   3   7
ATOM      7  C   UNL     1       2.750   6.461  19.181  0.00  0.00    +0.000 C 
BRANCH   7   8
ATOM      8  C   UNL     1       2.067   7.818  19.221  0.00  0.00    +0.000 A 
ATOM      9  C   UNL     1       1.901   8.628  18.089  0.00  0.00    +0.000 A 
ATOM     10  C   UNL     1       1.270   9.874  18.191  0.00  0.00    +0.000 A 
ATOM     11  C   UNL     1       0.762  10.308  19.416  0.00  0.00    +0.000 A 
ATOM     12 CL   UNL     1       0.021  11.855  19.546  0.00  0.00    +0.000 Cl
ATOM     13  C   UNL     1       0.854   9.487  20.533  0.00  0.00    +0.000 A 
ATOM     14  C   UNL     1       1.498   8.249  20.434  0.00  0.00    +0.000 A 
ENDBRANCH   7   8
ENDBRANCH   3   7
ENDBRANCH   1   2
BRANCH   1  15
ATOM     15  C   UNL     1       1.559   2.436  18.685  0.00  0.00    +0.000 C 
ATOM     16  O   UNL     1       1.414   1.810  19.724  0.00  0.00    +0.000 OA
BRANCH  15  17
ATOM     17  C   UNL     1       2.598   2.146  17.616  0.00  0.00    +0.000 C 
BRANCH  17  18
ATOM     18  O   UNL     1       3.916   2.200  18.135  0.00  0.00    +0.000 OA
BRANCH  18  22
ATOM     19  C   UNL     1       5.606   5.800  15.119  0.00  0.00    +0.000 C 
ATOM     20  C   UNL     1       5.525   5.136  16.469  0.00  0.00    +0.000 A 
ATOM     21  C   UNL     1       4.751   3.967  16.619  0.00  0.00    +0.000 A 
ATOM     22  C   UNL     1       4.646   3.327  17.859  0.00  0.00    +0.000 A 
ATOM     23  C   UNL     1       5.328   3.855  18.956  0.00  0.00    +0.000 A 
ATOM     24  C   UNL     1       6.103   5.007  18.825  0.00  0.00    +0.000 A 
ATOM     25  C   UNL     1       6.201   5.646  17.587  0.00  0.00    +0.000 A 
ATOM     26 BR   UNL     1       7.270   7.216  17.494  0.00  0.00    +0.000 Br
ENDBRANCH  18  22
ENDBRANCH  17  18
ENDBRANCH  15  17
ENDBRANCH   1  15
TORSDOF 7
ENDMDL
MODEL 9
REMARK VINA RESULT:      -7.3      4.971      9.751
REMARK  Name = 
REMARK  8 active torsions:
REMARK  status: ('A' for Active; 'I' for Inactive)
REMARK    1  A    between atoms: C_1  and  C_2
REMARK    2  A    between atoms: C_4  and  O_5
REMARK    3  A    between atoms: O_5  and  C_6
REMARK    4  A    between atoms: C_6  and  C_7
REMARK    5  A    between atoms: C_7  and  O_9
REMARK    6  A    between atoms: O_9  and  N_10
REMARK    7  A    between atoms: C_11  and  C_13
REMARK    8  A    between atoms: C_13  and  C_14
REMARK                            x       y       z     vdW  Elec       q    Type
REMARK                         _______ _______ _______ _____ _____    ______ ____
ROOT
ATOM      1  O   UNL     1       7.317   8.059  17.279  0.00  0.00    +0.000 OA
ENDROOT
BRANCH   1   2
ATOM      2  N   UNL     1       8.304   8.319  18.250  0.00  0.00    +0.000 NA
ATOM      3  C   UNL     1       8.510   9.601  18.353  0.00  0.00    +0.000 C 
ATOM      4  N   UNL     1       7.885  10.532  17.556  0.00  0.00    +0.000 N 
ATOM      5  H   UNL     1       7.410  10.103  16.764  0.00  0.00    +0.000 HD
ATOM      6  H   UNL     1       8.448  11.328  17.281  0.00  0.00    +0.000 HD
BRANCH   3   7
ATOM      7  C   UNL     1       9.550  10.076  19.373  0.00  0.00    +0.000 C 
BRANCH   7   8
ATOM      8  C   UNL     1      10.212  11.421  19.123  0.00  0.00    +0.000 A 
ATOM      9  C   UNL     1       9.917  12.573  19.865  0.00  0.00    +0.000 A 
ATOM     10  C   UNL     1      10.554  13.786  19.580  0.00  0.00    +0.000 A 
ATOM     11  C   UNL     1      11.522  13.856  18.578  0.00  0.00    +0.000 A 
ATOM     12 CL   UNL     1      12.276  15.357  18.206  0.00  0.00    +0.000 Cl
ATOM     13  C   UNL     1      11.879  12.708  17.881  0.00  0.00    +0.000 A 
ATOM     14  C   UNL     1      11.231  11.499  18.154  0.00  0.00    +0.000 A 
ENDBRANCH   7   8
ENDBRANCH   3   7
ENDBRANCH   1   2
BRANCH   1  15
ATOM     15  C   UNL     1       7.275   6.706  17.027  0.00  0.00    +0.000 C 
ATOM     16  O   UNL     1       7.631   6.153  15.997  0.00  0.00    +0.000 OA
BRANCH  15  17
ATOM     17  C   UNL     1       6.744   6.007  18.266  0.00  0.00    +0.000 C 
BRANCH  17  18
ATOM     18  O   UNL     1       6.391   4.660  18.001  0.00  0.00    +0.000 OA
BRANCH  18  22
ATOM     19  C   UNL     1       2.330   4.628  20.903  0.00  0.00    +0.000 C 
ATOM     20  C   UNL     1       3.072   4.202  19.663  0.00  0.00    +0.000 A 
ATOM     21  C   UNL     1       4.394   4.649  19.460  0.00  0.00    +0.000 A 
ATOM     22  C   UNL     1       5.112   4.281  18.318  0.00  0.00    +0.000 A 
ATOM     23  C   UNL     1       4.506   3.451  17.373  0.00  0.00    +0.000 A 
ATOM     24  C   UNL     1       3.201   2.995  17.558  0.00  0.00    +0.000 A 
ATOM     25  C   UNL     1       2.486   3.370  18.698  0.00  0.00    +0.000 A 
ATOM     26 BR   UNL     1       0.710   2.712  18.873  0.00  0.00    +0.000 Br
ENDBRANCH  18  22
ENDBRANCH  17  18
ENDBRANCH  15  17
ENDBRANCH   1  15
TORSDOF 7
ENDMDL
