MODEL 1
REMARK VINA RESULT:      -6.9      0.000      0.000
REMARK  Name = 
REMARK  9 active torsions:
REMARK  status: ('A' for Active; 'I' for Inactive)
REMARK    1  A    between atoms: C_1  and  C_2
REMARK    2  A    between atoms: C_2  and  C_3
REMARK    3  A    between atoms: C_3  and  O_4
REMARK    4  A    between atoms: O_4  and  C_5
REMARK    5  A    between atoms: C_8  and  C_9
REMARK    6  A    between atoms: C_11  and  C_12
REMARK    7  A    between atoms: C_14  and  N_15
REMARK    8  A    between atoms: N_18  and  C_19
REMARK    9  A    between atoms: C_19  and  C_20
REMARK                            x       y       z     vdW  Elec       q    Type
REMARK                         _______ _______ _______ _____ _____    ______ ____
ROOT
ATOM      1  C   UNL     1       1.893   7.964  19.688  0.00  0.00    +0.000 A 
ATOM      2  N   UNL     1       1.607   7.882  20.974  0.00  0.00    +0.000 NA
ATOM      3  C   UNL     1       1.012   9.091  21.249  0.00  0.00    +0.000 A 
ATOM      4  C   UNL     1       0.940   9.870  20.112  0.00  0.00    +0.000 A 
ATOM      5  O   UNL     1       1.490   9.128  19.095  0.00  0.00    +0.000 OA
ENDROOT
BRANCH   1   9
ATOM      6  C   UNL     1       3.958   5.192  17.145  0.00  0.00    +0.000 A 
ATOM      7  C   UNL     1       4.175   6.569  17.065  0.00  0.00    +0.000 A 
ATOM      8  C   UNL     1       3.493   7.446  17.906  0.00  0.00    +0.000 A 
ATOM      9  C   UNL     1       2.574   6.980  18.852  0.00  0.00    +0.000 A 
ATOM     10  C   UNL     1       2.350   5.598  18.930  0.00  0.00    +0.000 A 
ATOM     11  C   UNL     1       3.037   4.712  18.079  0.00  0.00    +0.000 A 
BRANCH   6  12
ATOM     12  O   UNL     1       4.591   4.256  16.363  0.00  0.00    +0.000 OA
BRANCH  12  13
ATOM     13  C   UNL     1       6.016   4.227  16.496  0.00  0.00    +0.000 C 
BRANCH  13  15
ATOM     14  C   UNL     1       6.142   3.953  14.014  0.00  0.00    +0.000 C 
ATOM     15  C   UNL     1       6.701   4.699  15.219  0.00  0.00    +0.000 C 
ENDBRANCH  13  15
ENDBRANCH  12  13
ENDBRANCH   6  12
ENDBRANCH   1   9
BRANCH   4  16
ATOM     16  N   UNL     1       0.523  11.118  19.802  0.00  0.00    +0.000 N 
ATOM     17  C   UNL     1       1.445  12.250  19.674  0.00  0.00    +0.000 C 
ATOM     18  C   UNL     1       1.088  13.091  18.419  0.00  0.00    +0.000 C 
ATOM     19  N   UNL     1      -0.339  13.492  18.301  0.00  0.00    +0.000 NA
ATOM     20  C   UNL     1      -1.168  12.268  18.424  0.00  0.00    +0.000 C 
ATOM     21  C   UNL     1      -0.904  11.432  19.692  0.00  0.00    +0.000 C 
BRANCH  19  22
ATOM     22  C   UNL     1      -0.662  14.533  19.289  0.00  0.00    +0.000 C 
ATOM     23  C   UNL     1      -0.208  15.932  18.887  0.00  0.00    +0.000 C 
ENDBRANCH  19  22
ENDBRANCH   4  16
BRANCH   3  24
ATOM     24  C   UNL     1       0.517   9.394  22.551  0.00  0.00    +0.000 C 
ATOM     25  N   UNL     1       0.102   9.668  23.605  0.00  0.00    +0.000 NA
ENDBRANCH   3  24
TORSDOF 7
ENDMDL
MODEL 2
REMARK VINA RESULT:      -6.7      3.139      8.786
REMARK  Name = 
REMARK  9 active torsions:
REMARK  status: ('A' for Active; 'I' for Inactive)
REMARK    1  A    between atoms: C_1  and  C_2
REMARK    2  A    between atoms: C_2  and  C_3
REMARK    3  A    between atoms: C_3  and  O_4
REMARK    4  A    between atoms: O_4  and  C_5
REMARK    5  A    between atoms: C_8  and  C_9
REMARK    6  A    between atoms: C_11  and  C_12
REMARK    7  A    between atoms: C_14  and  N_15
REMARK    8  A    between atoms: N_18  and  C_19
REMARK    9  A    between atoms: C_19  and  C_20
REMARK                            x       y       z     vdW  Elec       q    Type
REMARK                         _______ _______ _______ _____ _____    ______ ____
ROOT
ATOM      1  C   UNL     1       2.566   6.810  19.430  0.00  0.00    +0.000 A 
ATOM      2  N   UNL     1       2.584   5.643  20.045  0.00  0.00    +0.000 NA
ATOM      3  C   UNL     1       3.472   4.901  19.301  0.00  0.00    +0.000 A 
ATOM      4  C   UNL     1       3.981   5.649  18.260  0.00  0.00    +0.000 A 
ATOM      5  O   UNL     1       3.412   6.895  18.358  0.00  0.00    +0.000 OA
ENDROOT
BRANCH   1   9
ATOM      6  C   UNL     1       0.252  10.333  20.239  0.00  0.00    +0.000 A 
ATOM      7  C   UNL     1       0.805  10.086  18.981  0.00  0.00    +0.000 A 
ATOM      8  C   UNL     1       1.550   8.932  18.745  0.00  0.00    +0.000 A 
ATOM      9  C   UNL     1       1.766   7.988  19.754  0.00  0.00    +0.000 A 
ATOM     10  C   UNL     1       1.217   8.236  21.020  0.00  0.00    +0.000 A 
ATOM     11  C   UNL     1       0.467   9.402  21.258  0.00  0.00    +0.000 A 
BRANCH   6  12
ATOM     12  O   UNL     1      -0.501  11.437  20.557  0.00  0.00    +0.000 OA
BRANCH  12  13
ATOM     13  C   UNL     1       0.017  12.228  21.632  0.00  0.00    +0.000 C 
BRANCH  13  15
ATOM     14  C   UNL     1      -1.844  11.568  23.164  0.00  0.00    +0.000 C 
ATOM     15  C   UNL     1      -1.101  12.738  22.533  0.00  0.00    +0.000 C 
ENDBRANCH  13  15
ENDBRANCH  12  13
ENDBRANCH   6  12
ENDBRANCH   1   9
BRANCH   4  16
ATOM     16  N   UNL     1       4.816   5.440  17.218  0.00  0.00    +0.000 N 
ATOM     17  C   UNL     1       5.828   6.417  16.806  0.00  0.00    +0.000 C 
ATOM     18  C   UNL     1       7.171   5.700  16.503  0.00  0.00    +0.000 C 
ATOM     19  N   UNL     1       7.083   4.537  15.581  0.00  0.00    +0.000 NA
ATOM     20  C   UNL     1       6.049   3.614  16.109  0.00  0.00    +0.000 C 
ATOM     21  C   UNL     1       4.672   4.261  16.359  0.00  0.00    +0.000 C 
BRANCH  19  22
ATOM     22  C   UNL     1       6.830   4.992  14.206  0.00  0.00    +0.000 C 
ATOM     23  C   UNL     1       6.402   3.881  13.253  0.00  0.00    +0.000 C 
ENDBRANCH  19  22
ENDBRANCH   4  16
BRANCH   3  24
ATOM     24  C   UNL     1       3.803   3.562  19.663  0.00  0.00    +0.000 C 
ATOM     25  N   UNL     1       4.054   2.458  19.937  0.00  0.00    +0.000 NA
ENDBRANCH   3  24
TORSDOF 7
ENDMDL
MODEL 3
REMARK VINA RESULT:      -6.7      3.006      8.561
REMARK  Name = 
REMARK  9 active torsions:
REMARK  status: ('A' for Active; 'I' for Inactive)
REMARK    1  A    between atoms: C_1  and  C_2
REMARK    2  A    between atoms: C_2  and  C_3
REMARK    3  A    between atoms: C_3  and  O_4
REMARK    4  A    between atoms: O_4  and  C_5
REMARK    5  A    between atoms: C_8  and  C_9
REMARK    6  A    between atoms: C_11  and  C_12
REMARK    7  A    between atoms: C_14  and  N_15
REMARK    8  A    between atoms: N_18  and  C_19
REMARK    9  A    between atoms: C_19  and  C_20
REMARK                            x       y       z     vdW  Elec       q    Type
REMARK                         _______ _______ _______ _____ _____    ______ ____
ROOT
ATOM      1  C   UNL     1       2.695   6.805  19.330  0.00  0.00    +0.000 A 
ATOM      2  N   UNL     1       2.811   5.686  20.020  0.00  0.00    +0.000 NA
ATOM      3  C   UNL     1       3.696   4.940  19.276  0.00  0.00    +0.000 A 
ATOM      4  C   UNL     1       4.103   5.639  18.158  0.00  0.00    +0.000 A 
ATOM      5  O   UNL     1       3.472   6.857  18.206  0.00  0.00    +0.000 OA
ENDROOT
BRANCH   1   9
ATOM      6  C   UNL     1       0.259  10.265  20.050  0.00  0.00    +0.000 A 
ATOM      7  C   UNL     1       0.916  10.064  18.834  0.00  0.00    +0.000 A 
ATOM      8  C   UNL     1       1.697   8.930  18.626  0.00  0.00    +0.000 A 
ATOM      9  C   UNL     1       1.850   7.960  19.622  0.00  0.00    +0.000 A 
ATOM     10  C   UNL     1       1.197   8.162  20.847  0.00  0.00    +0.000 A 
ATOM     11  C   UNL     1       0.409   9.308  21.057  0.00  0.00    +0.000 A 
BRANCH   6  12
ATOM     12  O   UNL     1      -0.536  11.347  20.339  0.00  0.00    +0.000 OA
BRANCH  12  13
ATOM     13  C   UNL     1      -1.055  12.033  19.194  0.00  0.00    +0.000 C 
BRANCH  13  15
ATOM     14  C   UNL     1      -2.378  11.299  17.204  0.00  0.00    +0.000 C 
ATOM     15  C   UNL     1      -2.364  11.411  18.723  0.00  0.00    +0.000 C 
ENDBRANCH  13  15
ENDBRANCH  12  13
ENDBRANCH   6  12
ENDBRANCH   1   9
BRANCH   4  16
ATOM     16  N   UNL     1       4.888   5.400  17.084  0.00  0.00    +0.000 N 
ATOM     17  C   UNL     1       5.960   6.309  16.670  0.00  0.00    +0.000 C 
ATOM     18  C   UNL     1       7.235   5.502  16.303  0.00  0.00    +0.000 C 
ATOM     19  N   UNL     1       7.029   4.380  15.349  0.00  0.00    +0.000 NA
ATOM     20  C   UNL     1       5.942   3.522  15.881  0.00  0.00    +0.000 C 
ATOM     21  C   UNL     1       4.628   4.264  16.195  0.00  0.00    +0.000 C 
BRANCH  19  22
ATOM     22  C   UNL     1       6.772   4.898  13.997  0.00  0.00    +0.000 C 
ATOM     23  C   UNL     1       6.462   3.817  12.967  0.00  0.00    +0.000 C 
ENDBRANCH  19  22
ENDBRANCH   4  16
BRANCH   3  24
ATOM     24  C   UNL     1       4.120   3.649  19.705  0.00  0.00    +0.000 C 
ATOM     25  N   UNL     1       4.495   2.599  20.045  0.00  0.00    +0.000 NA
ENDBRANCH   3  24
TORSDOF 7
ENDMDL
MODEL 4
REMARK VINA RESULT:      -6.7      0.635      1.107
REMARK  Name = 
REMARK  9 active torsions:
REMARK  status: ('A' for Active; 'I' for Inactive)
REMARK    1  A    between atoms: C_1  and  C_2
REMARK    2  A    between atoms: C_2  and  C_3
REMARK    3  A    between atoms: C_3  and  O_4
REMARK    4  A    between atoms: O_4  and  C_5
REMARK    5  A    between atoms: C_8  and  C_9
REMARK    6  A    between atoms: C_11  and  C_12
REMARK    7  A    between atoms: C_14  and  N_15
REMARK    8  A    between atoms: N_18  and  C_19
REMARK    9  A    between atoms: C_19  and  C_20
REMARK                            x       y       z     vdW  Elec       q    Type
REMARK                         _______ _______ _______ _____ _____    ______ ____
ROOT
ATOM      1  C   UNL     1       1.974   7.839  19.581  0.00  0.00    +0.000 A 
ATOM      2  N   UNL     1       1.712   7.777  20.873  0.00  0.00    +0.000 NA
ATOM      3  C   UNL     1       1.105   8.982  21.137  0.00  0.00    +0.000 A 
ATOM      4  C   UNL     1       1.002   9.739  19.988  0.00  0.00    +0.000 A 
ATOM      5  O   UNL     1       1.544   8.987  18.974  0.00  0.00    +0.000 OA
ENDROOT
BRANCH   1   9
ATOM      6  C   UNL     1       4.052   5.050  17.068  0.00  0.00    +0.000 A 
ATOM      7  C   UNL     1       4.385   6.406  17.099  0.00  0.00    +0.000 A 
ATOM      8  C   UNL     1       3.696   7.289  17.927  0.00  0.00    +0.000 A 
ATOM      9  C   UNL     1       2.654   6.850  18.750  0.00  0.00    +0.000 A 
ATOM     10  C   UNL     1       2.313   5.490  18.716  0.00  0.00    +0.000 A 
ATOM     11  C   UNL     1       3.008   4.599  17.878  0.00  0.00    +0.000 A 
BRANCH   6  12
ATOM     12  O   UNL     1       4.683   4.109  16.290  0.00  0.00    +0.000 OA
BRANCH  12  13
ATOM     13  C   UNL     1       6.111   4.201  16.274  0.00  0.00    +0.000 C 
BRANCH  13  15
ATOM     14  C   UNL     1       5.993   3.839  13.804  0.00  0.00    +0.000 C 
ATOM     15  C   UNL     1       6.621   4.668  14.916  0.00  0.00    +0.000 C 
ENDBRANCH  13  15
ENDBRANCH  12  13
ENDBRANCH   6  12
ENDBRANCH   1   9
BRANCH   4  16
ATOM     16  N   UNL     1       0.563  10.976  19.663  0.00  0.00    +0.000 N 
ATOM     17  C   UNL     1      -0.474  11.207  18.654  0.00  0.00    +0.000 C 
ATOM     18  C   UNL     1      -1.491  12.263  19.164  0.00  0.00    +0.000 C 
ATOM     19  N   UNL     1      -0.898  13.524  19.682  0.00  0.00    +0.000 NA
ATOM     20  C   UNL     1       0.115  13.166  20.704  0.00  0.00    +0.000 C 
ATOM     21  C   UNL     1       1.193  12.173  20.225  0.00  0.00    +0.000 C 
BRANCH  19  22
ATOM     22  C   UNL     1      -0.368  14.333  18.574  0.00  0.00    +0.000 C 
ATOM     23  C   UNL     1       0.255  15.654  19.014  0.00  0.00    +0.000 C 
ENDBRANCH  19  22
ENDBRANCH   4  16
BRANCH   3  24
ATOM     24  C   UNL     1       0.629   9.302  22.442  0.00  0.00    +0.000 C 
ATOM     25  N   UNL     1       0.236   9.533  23.515  0.00  0.00    +0.000 NA
ENDBRANCH   3  24
TORSDOF 7
ENDMDL
MODEL 5
REMARK VINA RESULT:      -6.7      3.289      8.950
REMARK  Name = 
REMARK  9 active torsions:
REMARK  status: ('A' for Active; 'I' for Inactive)
REMARK    1  A    between atoms: C_1  and  C_2
REMARK    2  A    between atoms: C_2  and  C_3
REMARK    3  A    between atoms: C_3  and  O_4
REMARK    4  A    between atoms: O_4  and  C_5
REMARK    5  A    between atoms: C_8  and  C_9
REMARK    6  A    between atoms: C_11  and  C_12
REMARK    7  A    between atoms: C_14  and  N_15
REMARK    8  A    between atoms: N_18  and  C_19
REMARK    9  A    between atoms: C_19  and  C_20
REMARK                            x       y       z     vdW  Elec       q    Type
REMARK                         _______ _______ _______ _____ _____    ______ ____
ROOT
ATOM      1  C   UNL     1       2.544   6.636  19.615  0.00  0.00    +0.000 A 
ATOM      2  N   UNL     1       2.590   5.454  20.200  0.00  0.00    +0.000 NA
ATOM      3  C   UNL     1       3.448   4.733  19.403  0.00  0.00    +0.000 A 
ATOM      4  C   UNL     1       3.912   5.508  18.360  0.00  0.00    +0.000 A 
ATOM      5  O   UNL     1       3.345   6.749  18.512  0.00  0.00    +0.000 OA
ENDROOT
BRANCH   1   9
ATOM      6  C   UNL     1       0.181   9.987  20.880  0.00  0.00    +0.000 A 
ATOM      7  C   UNL     1       0.388   8.878  21.702  0.00  0.00    +0.000 A 
ATOM      8  C   UNL     1       1.164   7.805  21.268  0.00  0.00    +0.000 A 
ATOM      9  C   UNL     1       1.756   7.802  20.000  0.00  0.00    +0.000 A 
ATOM     10  C   UNL     1       1.543   8.912  19.170  0.00  0.00    +0.000 A 
ATOM     11  C   UNL     1       0.759   9.995  19.608  0.00  0.00    +0.000 A 
BRANCH   6  12
ATOM     12  O   UNL     1      -0.561  11.090  21.229  0.00  0.00    +0.000 OA
BRANCH  12  13
ATOM     13  C   UNL     1      -0.821  11.219  22.631  0.00  0.00    +0.000 C 
BRANCH  13  15
ATOM     14  C   UNL     1      -1.382  13.558  23.311  0.00  0.00    +0.000 C 
ATOM     15  C   UNL     1      -1.950  12.208  22.895  0.00  0.00    +0.000 C 
ENDBRANCH  13  15
ENDBRANCH  12  13
ENDBRANCH   6  12
ENDBRANCH   1   9
BRANCH   4  16
ATOM     16  N   UNL     1       4.705   5.326  17.280  0.00  0.00    +0.000 N 
ATOM     17  C   UNL     1       5.671   6.332  16.830  0.00  0.00    +0.000 C 
ATOM     18  C   UNL     1       7.018   5.653  16.462  0.00  0.00    +0.000 C 
ATOM     19  N   UNL     1       6.918   4.493  15.537  0.00  0.00    +0.000 NA
ATOM     20  C   UNL     1       5.933   3.540  16.104  0.00  0.00    +0.000 C 
ATOM     21  C   UNL     1       4.552   4.149  16.421  0.00  0.00    +0.000 C 
BRANCH  19  22
ATOM     22  C   UNL     1       6.591   4.949  14.177  0.00  0.00    +0.000 C 
ATOM     23  C   UNL     1       6.279   3.819  13.202  0.00  0.00    +0.000 C 
ENDBRANCH  19  22
ENDBRANCH   4  16
BRANCH   3  24
ATOM     24  C   UNL     1       3.796   3.387  19.718  0.00  0.00    +0.000 C 
ATOM     25  N   UNL     1       4.104   2.297  19.992  0.00  0.00    +0.000 NA
ENDBRANCH   3  24
TORSDOF 7
ENDMDL
MODEL 6
REMARK VINA RESULT:      -6.6      0.740      1.533
REMARK  Name = 
REMARK  9 active torsions:
REMARK  status: ('A' for Active; 'I' for Inactive)
REMARK    1  A    between atoms: C_1  and  C_2
REMARK    2  A    between atoms: C_2  and  C_3
REMARK    3  A    between atoms: C_3  and  O_4
REMARK    4  A    between atoms: O_4  and  C_5
REMARK    5  A    between atoms: C_8  and  C_9
REMARK    6  A    between atoms: C_11  and  C_12
REMARK    7  A    between atoms: C_14  and  N_15
REMARK    8  A    between atoms: N_18  and  C_19
REMARK    9  A    between atoms: C_19  and  C_20
REMARK                            x       y       z     vdW  Elec       q    Type
REMARK                         _______ _______ _______ _____ _____    ______ ____
ROOT
ATOM      1  C   UNL     1       1.876   7.868  19.825  0.00  0.00    +0.000 A 
ATOM      2  N   UNL     1       1.586   7.830  21.112  0.00  0.00    +0.000 NA
ATOM      3  C   UNL     1       1.015   9.059  21.349  0.00  0.00    +0.000 A 
ATOM      4  C   UNL     1       0.963   9.804  20.189  0.00  0.00    +0.000 A 
ATOM      5  O   UNL     1       1.499   9.022  19.196  0.00  0.00    +0.000 OA
ENDROOT
BRANCH   1   9
ATOM      6  C   UNL     1       3.769   4.751  17.562  0.00  0.00    +0.000 A 
ATOM      7  C   UNL     1       2.908   4.472  18.625  0.00  0.00    +0.000 A 
ATOM      8  C   UNL     1       2.304   5.504  19.341  0.00  0.00    +0.000 A 
ATOM      9  C   UNL     1       2.538   6.845  19.020  0.00  0.00    +0.000 A 
ATOM     10  C   UNL     1       3.408   7.128  17.957  0.00  0.00    +0.000 A 
ATOM     11  C   UNL     1       4.019   6.086  17.235  0.00  0.00    +0.000 A 
BRANCH   6  12
ATOM     12  O   UNL     1       4.399   3.799  16.798  0.00  0.00    +0.000 OA
BRANCH  12  13
ATOM     13  C   UNL     1       5.720   4.149  16.371  0.00  0.00    +0.000 C 
BRANCH  13  15
ATOM     14  C   UNL     1       6.959   4.884  14.328  0.00  0.00    +0.000 C 
ATOM     15  C   UNL     1       5.888   3.945  14.870  0.00  0.00    +0.000 C 
ENDBRANCH  13  15
ENDBRANCH  12  13
ENDBRANCH   6  12
ENDBRANCH   1   9
BRANCH   4  16
ATOM     16  N   UNL     1       0.573  11.051  19.841  0.00  0.00    +0.000 N 
ATOM     17  C   UNL     1      -0.458  11.304  18.831  0.00  0.00    +0.000 C 
ATOM     18  C   UNL     1      -1.429  12.412  19.323  0.00  0.00    +0.000 C 
ATOM     19  N   UNL     1      -0.782  13.658  19.813  0.00  0.00    +0.000 NA
ATOM     20  C   UNL     1       0.221  13.279  20.839  0.00  0.00    +0.000 C 
ATOM     21  C   UNL     1       1.255  12.233  20.376  0.00  0.00    +0.000 C 
BRANCH  19  22
ATOM     22  C   UNL     1      -0.224  14.422  18.687  0.00  0.00    +0.000 C 
ATOM     23  C   UNL     1       0.478  15.711  19.100  0.00  0.00    +0.000 C 
ENDBRANCH  19  22
ENDBRANCH   4  16
BRANCH   3  24
ATOM     24  C   UNL     1       0.524   9.411  22.640  0.00  0.00    +0.000 C 
ATOM     25  N   UNL     1       0.135   9.672  23.707  0.00  0.00    +0.000 NA
ENDBRANCH   3  24
TORSDOF 7
ENDMDL
MODEL 7
REMARK VINA RESULT:      -6.6      3.038      8.774
REMARK  Name = 
REMARK  9 active torsions:
REMARK  status: ('A' for Active; 'I' for Inactive)
REMARK    1  A    between atoms: C_1  and  C_2
REMARK    2  A    between atoms: C_2  and  C_3
REMARK    3  A    between atoms: C_3  and  O_4
REMARK    4  A    between atoms: O_4  and  C_5
REMARK    5  A    between atoms: C_8  and  C_9
REMARK    6  A    between atoms: C_11  and  C_12
REMARK    7  A    between atoms: C_14  and  N_15
REMARK    8  A    between atoms: N_18  and  C_19
REMARK    9  A    between atoms: C_19  and  C_20
REMARK                            x       y       z     vdW  Elec       q    Type
REMARK                         _______ _______ _______ _____ _____    ______ ____
ROOT
ATOM      1  C   UNL     1       1.813   7.154  20.341  0.00  0.00    +0.000 A 
ATOM      2  N   UNL     1       1.553   5.966  20.853  0.00  0.00    +0.000 NA
ATOM      3  C   UNL     1       2.496   5.151  20.272  0.00  0.00    +0.000 A 
ATOM      4  C   UNL     1       3.314   5.875  19.429  0.00  0.00    +0.000 A 
ATOM      5  O   UNL     1       2.886   7.179  19.494  0.00  0.00    +0.000 OA
ENDROOT
BRANCH   1   9
ATOM      6  C   UNL     1      -0.315  10.790  21.156  0.00  0.00    +0.000 A 
ATOM      7  C   UNL     1      -0.095   9.827  22.143  0.00  0.00    +0.000 A 
ATOM      8  C   UNL     1       0.603   8.657  21.851  0.00  0.00    +0.000 A 
ATOM      9  C   UNL     1       1.102   8.409  20.569  0.00  0.00    +0.000 A 
ATOM     10  C   UNL     1       0.877   9.371  19.574  0.00  0.00    +0.000 A 
ATOM     11  C   UNL     1       0.171  10.552  19.869  0.00  0.00    +0.000 A 
BRANCH   6  12
ATOM     12  O   UNL     1      -0.984  11.974  21.357  0.00  0.00    +0.000 OA
BRANCH  12  13
ATOM     13  C   UNL     1      -0.760  12.582  22.633  0.00  0.00    +0.000 C 
BRANCH  13  15
ATOM     14  C   UNL     1      -3.091  12.211  23.455  0.00  0.00    +0.000 C 
ATOM     15  C   UNL     1      -2.024  13.255  23.155  0.00  0.00    +0.000 C 
ENDBRANCH  13  15
ENDBRANCH  12  13
ENDBRANCH   6  12
ENDBRANCH   1   9
BRANCH   4  16
ATOM     16  N   UNL     1       4.336   5.609  18.586  0.00  0.00    +0.000 N 
ATOM     17  C   UNL     1       4.190   5.652  17.128  0.00  0.00    +0.000 C 
ATOM     18  C   UNL     1       5.406   6.377  16.490  0.00  0.00    +0.000 C 
ATOM     19  N   UNL     1       6.741   5.888  16.922  0.00  0.00    +0.000 NA
ATOM     20  C   UNL     1       6.777   5.908  18.405  0.00  0.00    +0.000 C 
ATOM     21  C   UNL     1       5.629   5.140  19.090  0.00  0.00    +0.000 C 
BRANCH  19  22
ATOM     22  C   UNL     1       7.017   4.567  16.337  0.00  0.00    +0.000 C 
ATOM     23  C   UNL     1       6.844   4.511  14.823  0.00  0.00    +0.000 C 
ENDBRANCH  19  22
ENDBRANCH   4  16
BRANCH   3  24
ATOM     24  C   UNL     1       2.577   3.765  20.594  0.00  0.00    +0.000 C 
ATOM     25  N   UNL     1       2.615   2.633  20.869  0.00  0.00    +0.000 NA
ENDBRANCH   3  24
TORSDOF 7
ENDMDL
MODEL 8
REMARK VINA RESULT:      -6.6      2.854      8.403
REMARK  Name = 
REMARK  9 active torsions:
REMARK  status: ('A' for Active; 'I' for Inactive)
REMARK    1  A    between atoms: C_1  and  C_2
REMARK    2  A    between atoms: C_2  and  C_3
REMARK    3  A    between atoms: C_3  and  O_4
REMARK    4  A    between atoms: O_4  and  C_5
REMARK    5  A    between atoms: C_8  and  C_9
REMARK    6  A    between atoms: C_11  and  C_12
REMARK    7  A    between atoms: C_14  and  N_15
REMARK    8  A    between atoms: N_18  and  C_19
REMARK    9  A    between atoms: C_19  and  C_20
REMARK                            x       y       z     vdW  Elec       q    Type
REMARK                         _______ _______ _______ _____ _____    ______ ____
ROOT
ATOM      1  C   UNL     1       1.840   7.131  20.396  0.00  0.00    +0.000 A 
ATOM      2  N   UNL     1       1.592   5.944  20.915  0.00  0.00    +0.000 NA
ATOM      3  C   UNL     1       2.528   5.130  20.321  0.00  0.00    +0.000 A 
ATOM      4  C   UNL     1       3.330   5.855  19.463  0.00  0.00    +0.000 A 
ATOM      5  O   UNL     1       2.899   7.157  19.531  0.00  0.00    +0.000 OA
ENDROOT
BRANCH   1   9
ATOM      6  C   UNL     1      -0.194  10.870  20.948  0.00  0.00    +0.000 A 
ATOM      7  C   UNL     1       0.463  10.556  19.757  0.00  0.00    +0.000 A 
ATOM      8  C   UNL     1       1.112   9.333  19.603  0.00  0.00    +0.000 A 
ATOM      9  C   UNL     1       1.128   8.384  20.631  0.00  0.00    +0.000 A 
ATOM     10  C   UNL     1       0.476   8.700  21.831  0.00  0.00    +0.000 A 
ATOM     11  C   UNL     1      -0.179   9.936  21.987  0.00  0.00    +0.000 A 
BRANCH   6  12
ATOM     12  O   UNL     1      -0.865  12.046  21.183  0.00  0.00    +0.000 OA
BRANCH  12  13
ATOM     13  C   UNL     1      -1.339  12.712  20.008  0.00  0.00    +0.000 C 
BRANCH  13  15
ATOM     14  C   UNL     1      -2.957  11.593  18.466  0.00  0.00    +0.000 C 
ATOM     15  C   UNL     1      -2.807  12.399  19.749  0.00  0.00    +0.000 C 
ENDBRANCH  13  15
ENDBRANCH  12  13
ENDBRANCH   6  12
ENDBRANCH   1   9
BRANCH   4  16
ATOM     16  N   UNL     1       4.339   5.590  18.604  0.00  0.00    +0.000 N 
ATOM     17  C   UNL     1       4.182   5.675  17.149  0.00  0.00    +0.000 C 
ATOM     18  C   UNL     1       5.408   6.391  16.520  0.00  0.00    +0.000 C 
ATOM     19  N   UNL     1       6.736   5.862  16.928  0.00  0.00    +0.000 NA
ATOM     20  C   UNL     1       6.785   5.842  18.410  0.00  0.00    +0.000 C 
ATOM     21  C   UNL     1       5.626   5.080  19.085  0.00  0.00    +0.000 C 
BRANCH  19  22
ATOM     22  C   UNL     1       6.979   4.552  16.306  0.00  0.00    +0.000 C 
ATOM     23  C   UNL     1       6.850   4.553  14.786  0.00  0.00    +0.000 C 
ENDBRANCH  19  22
ENDBRANCH   4  16
BRANCH   3  24
ATOM     24  C   UNL     1       2.619   3.746  20.646  0.00  0.00    +0.000 C 
ATOM     25  N   UNL     1       2.678   2.618  20.937  0.00  0.00    +0.000 NA
ENDBRANCH   3  24
TORSDOF 7
ENDMDL
MODEL 9
REMARK VINA RESULT:      -6.6      3.172      8.695
REMARK  Name = 
REMARK  9 active torsions:
REMARK  status: ('A' for Active; 'I' for Inactive)
REMARK    1  A    between atoms: C_1  and  C_2
REMARK    2  A    between atoms: C_2  and  C_3
REMARK    3  A    between atoms: C_3  and  O_4
REMARK    4  A    between atoms: O_4  and  C_5
REMARK    5  A    between atoms: C_8  and  C_9
REMARK    6  A    between atoms: C_11  and  C_12
REMARK    7  A    between atoms: C_14  and  N_15
REMARK    8  A    between atoms: N_18  and  C_19
REMARK    9  A    between atoms: C_19  and  C_20
REMARK                            x       y       z     vdW  Elec       q    Type
REMARK                         _______ _______ _______ _____ _____    ______ ____
ROOT
ATOM      1  C   UNL     1       2.010   7.009  20.312  0.00  0.00    +0.000 A 
ATOM      2  N   UNL     1       1.813   5.789  20.777  0.00  0.00    +0.000 NA
ATOM      3  C   UNL     1       2.740   5.033  20.099  0.00  0.00    +0.000 A 
ATOM      4  C   UNL     1       3.486   5.823  19.248  0.00  0.00    +0.000 A 
ATOM      5  O   UNL     1       3.028   7.108  19.405  0.00  0.00    +0.000 OA
ENDROOT
BRANCH   1   9
ATOM      6  C   UNL     1      -0.090  10.657  21.150  0.00  0.00    +0.000 A 
ATOM      7  C   UNL     1       0.468  10.397  19.896  0.00  0.00    +0.000 A 
ATOM      8  C   UNL     1       1.141   9.203  19.651  0.00  0.00    +0.000 A 
ATOM      9  C   UNL     1       1.281   8.229  20.645  0.00  0.00    +0.000 A 
ATOM     10  C   UNL     1       0.727   8.490  21.907  0.00  0.00    +0.000 A 
ATOM     11  C   UNL     1       0.049   9.697  22.155  0.00  0.00    +0.000 A 
BRANCH   6  12
ATOM     12  O   UNL     1      -0.776  11.801  21.477  0.00  0.00    +0.000 OA
BRANCH  12  13
ATOM     13  C   UNL     1      -1.144  11.908  22.856  0.00  0.00    +0.000 C 
BRANCH  13  15
ATOM     14  C   UNL     1      -3.388  12.671  22.063  0.00  0.00    +0.000 C 
ATOM     15  C   UNL     1      -2.261  12.926  23.054  0.00  0.00    +0.000 C 
ENDBRANCH  13  15
ENDBRANCH  12  13
ENDBRANCH   6  12
ENDBRANCH   1   9
BRANCH   4  16
ATOM     16  N   UNL     1       4.462   5.629  18.333  0.00  0.00    +0.000 N 
ATOM     17  C   UNL     1       4.188   5.506  16.898  0.00  0.00    +0.000 C 
ATOM     18  C   UNL     1       5.216   6.337  16.084  0.00  0.00    +0.000 C 
ATOM     19  N   UNL     1       6.644   6.097  16.422  0.00  0.00    +0.000 NA
ATOM     20  C   UNL     1       6.802   6.268  17.887  0.00  0.00    +0.000 C 
ATOM     21  C   UNL     1       5.851   5.410  18.744  0.00  0.00    +0.000 C 
BRANCH  19  22
ATOM     22  C   UNL     1       7.072   4.780  15.926  0.00  0.00    +0.000 C 
ATOM     23  C   UNL     1       6.743   4.533  14.457  0.00  0.00    +0.000 C 
ENDBRANCH  19  22
ENDBRANCH   4  16
BRANCH   3  24
ATOM     24  C   UNL     1       2.878   3.636  20.344  0.00  0.00    +0.000 C 
ATOM     25  N   UNL     1       2.999   2.499  20.573  0.00  0.00    +0.000 NA
ENDBRANCH   3  24
TORSDOF 7
ENDMDL
