MODEL 1
REMARK VINA RESULT:      -6.5      0.000      0.000
REMARK  Name = 
REMARK  2 active torsions:
REMARK  status: ('A' for Active; 'I' for Inactive)
REMARK    1  A    between atoms: C_5  and  N_6
REMARK    2  A    between atoms: C_9  and  C_10
REMARK                            x       y       z     vdW  Elec       q    Type
REMARK                         _______ _______ _______ _____ _____    ______ ____
ROOT
ATOM      1  N   UNL     1       5.176   3.630  16.979  0.00  0.00    +0.000 N 
ATOM      2  C   UNL     1       4.089   3.250  17.698  0.00  0.00    +0.000 A 
ATOM      3  N   UNL     1       3.290   4.032  18.386  0.00  0.00    +0.000 NA
ATOM      4  C   UNL     1       2.375   3.300  19.102  0.00  0.00    +0.000 A 
ATOM      5  C   UNL     1       2.444   1.937  18.932  0.00  0.00    +0.000 A 
ATOM      6  S   UNL     1       3.680   1.570  17.800  0.00  0.00    +0.000 S 
ATOM      7  H   UNL     1       5.702   2.878  16.553  0.00  0.00    +0.000 HD
ENDROOT
BRANCH   1  12
ATOM      8 CL   UNL     1       8.270   8.582  18.110  0.00  0.00    +0.000 Cl
ATOM      9  C   UNL     1       7.396   7.149  17.738  0.00  0.00    +0.000 A 
ATOM     10  C   UNL     1       7.715   5.955  18.378  0.00  0.00    +0.000 A 
ATOM     11  C   UNL     1       6.986   4.794  18.090  0.00  0.00    +0.000 A 
ATOM     12  C   UNL     1       5.924   4.812  17.172  0.00  0.00    +0.000 A 
ATOM     13  C   UNL     1       5.650   6.022  16.516  0.00  0.00    +0.000 A 
ATOM     14  C   UNL     1       6.373   7.186  16.801  0.00  0.00    +0.000 A 
ENDBRANCH   1  12
BRANCH   4  15
ATOM     15  C   UNL     1       1.379   3.983  20.027  0.00  0.00    +0.000 C 
ATOM     16  C   UNL     1       1.747   4.109  21.494  0.00  0.00    +0.000 C 
ATOM     17  C   UNL     1       1.773   5.319  20.625  0.00  0.00    +0.000 C 
ENDBRANCH   4  15
TORSDOF 2
ENDMDL
MODEL 2
REMARK VINA RESULT:      -6.5      0.206      1.219
REMARK  Name = 
REMARK  2 active torsions:
REMARK  status: ('A' for Active; 'I' for Inactive)
REMARK    1  A    between atoms: C_5  and  N_6
REMARK    2  A    between atoms: C_9  and  C_10
REMARK                            x       y       z     vdW  Elec       q    Type
REMARK                         _______ _______ _______ _____ _____    ______ ____
ROOT
ATOM      1  N   UNL     1       5.276   3.690  17.118  0.00  0.00    +0.000 N 
ATOM      2  C   UNL     1       4.156   3.255  17.749  0.00  0.00    +0.000 A 
ATOM      3  N   UNL     1       3.302   3.986  18.427  0.00  0.00    +0.000 NA
ATOM      4  C   UNL     1       2.361   3.202  19.048  0.00  0.00    +0.000 A 
ATOM      5  C   UNL     1       2.466   1.851  18.811  0.00  0.00    +0.000 A 
ATOM      6  S   UNL     1       3.775   1.565  17.739  0.00  0.00    +0.000 S 
ATOM      7  H   UNL     1       5.841   2.971  16.687  0.00  0.00    +0.000 HD
ENDROOT
BRANCH   1  12
ATOM      8 CL   UNL     1       8.329   8.707  18.060  0.00  0.00    +0.000 Cl
ATOM      9  C   UNL     1       7.427   7.261  17.833  0.00  0.00    +0.000 A 
ATOM     10  C   UNL     1       6.356   7.242  16.947  0.00  0.00    +0.000 A 
ATOM     11  C   UNL     1       5.637   6.056  16.748  0.00  0.00    +0.000 A 
ATOM     12  C   UNL     1       5.988   4.873  17.417  0.00  0.00    +0.000 A 
ATOM     13  C   UNL     1       7.049   4.932  18.332  0.00  0.00    +0.000 A 
ATOM     14  C   UNL     1       7.773   6.113  18.535  0.00  0.00    +0.000 A 
ENDBRANCH   1  12
BRANCH   4  15
ATOM     15  C   UNL     1       1.298   3.818  19.944  0.00  0.00    +0.000 C 
ATOM     16  C   UNL     1       1.536   3.796  21.443  0.00  0.00    +0.000 C 
ATOM     17  C   UNL     1       1.659   5.082  20.701  0.00  0.00    +0.000 C 
ENDBRANCH   4  15
TORSDOF 2
ENDMDL
MODEL 3
REMARK VINA RESULT:      -6.2      3.737      4.986
REMARK  Name = 
REMARK  2 active torsions:
REMARK  status: ('A' for Active; 'I' for Inactive)
REMARK    1  A    between atoms: C_5  and  N_6
REMARK    2  A    between atoms: C_9  and  C_10
REMARK                            x       y       z     vdW  Elec       q    Type
REMARK                         _______ _______ _______ _____ _____    ______ ____
ROOT
ATOM      1  N   UNL     1       3.393   6.924  18.146  0.00  0.00    +0.000 N 
ATOM      2  C   UNL     1       3.555   5.630  18.522  0.00  0.00    +0.000 A 
ATOM      3  N   UNL     1       2.646   4.849  19.057  0.00  0.00    +0.000 NA
ATOM      4  C   UNL     1       3.189   3.646  19.439  0.00  0.00    +0.000 A 
ATOM      5  C   UNL     1       4.525   3.483  19.156  0.00  0.00    +0.000 A 
ATOM      6  S   UNL     1       5.106   4.880  18.347  0.00  0.00    +0.000 S 
ATOM      7  H   UNL     1       4.223   7.384  17.796  0.00  0.00    +0.000 HD
ENDROOT
BRANCH   1  12
ATOM      8 CL   UNL     1      -0.556  10.914  20.113  0.00  0.00    +0.000 Cl
ATOM      9  C   UNL     1       0.552   9.725  19.550  0.00  0.00    +0.000 A 
ATOM     10  C   UNL     1       0.928   9.704  18.211  0.00  0.00    +0.000 A 
ATOM     11  C   UNL     1       1.848   8.749  17.761  0.00  0.00    +0.000 A 
ATOM     12  C   UNL     1       2.414   7.814  18.642  0.00  0.00    +0.000 A 
ATOM     13  C   UNL     1       1.988   7.836  19.978  0.00  0.00    +0.000 A 
ATOM     14  C   UNL     1       1.071   8.789  20.435  0.00  0.00    +0.000 A 
ENDBRANCH   1  12
BRANCH   4  15
ATOM     15  C   UNL     1       2.343   2.594  20.141  0.00  0.00    +0.000 C 
ATOM     16  C   UNL     1       2.140   2.734  21.638  0.00  0.00    +0.000 C 
ATOM     17  C   UNL     1       1.009   3.030  20.716  0.00  0.00    +0.000 C 
ENDBRANCH   4  15
TORSDOF 2
ENDMDL
MODEL 4
REMARK VINA RESULT:      -6.1      3.655      5.050
REMARK  Name = 
REMARK  2 active torsions:
REMARK  status: ('A' for Active; 'I' for Inactive)
REMARK    1  A    between atoms: C_5  and  N_6
REMARK    2  A    between atoms: C_9  and  C_10
REMARK                            x       y       z     vdW  Elec       q    Type
REMARK                         _______ _______ _______ _____ _____    ______ ____
ROOT
ATOM      1  N   UNL     1       3.459   7.101  17.764  0.00  0.00    +0.000 N 
ATOM      2  C   UNL     1       3.525   5.749  17.665  0.00  0.00    +0.000 A 
ATOM      3  N   UNL     1       2.543   4.899  17.855  0.00  0.00    +0.000 NA
ATOM      4  C   UNL     1       2.994   3.602  17.809  0.00  0.00    +0.000 A 
ATOM      5  C   UNL     1       4.334   3.451  17.539  0.00  0.00    +0.000 A 
ATOM      6  S   UNL     1       5.040   4.995  17.297  0.00  0.00    +0.000 S 
ATOM      7  H   UNL     1       4.333   7.592  17.631  0.00  0.00    +0.000 HD
ENDROOT
BRANCH   1  12
ATOM      8 CL   UNL     1      -0.415  10.445  20.796  0.00  0.00    +0.000 Cl
ATOM      9  C   UNL     1       0.672   9.441  19.921  0.00  0.00    +0.000 A 
ATOM     10  C   UNL     1       0.938   9.707  18.581  0.00  0.00    +0.000 A 
ATOM     11  C   UNL     1       1.842   8.900  17.877  0.00  0.00    +0.000 A 
ATOM     12  C   UNL     1       2.501   7.831  18.503  0.00  0.00    +0.000 A 
ATOM     13  C   UNL     1       2.185   7.565  19.844  0.00  0.00    +0.000 A 
ATOM     14  C   UNL     1       1.285   8.368  20.554  0.00  0.00    +0.000 A 
ENDBRANCH   1  12
BRANCH   4  15
ATOM     15  C   UNL     1       2.050   2.437  18.063  0.00  0.00    +0.000 C 
ATOM     16  C   UNL     1       1.797   2.032  19.503  0.00  0.00    +0.000 C 
ATOM     17  C   UNL     1       0.728   2.735  18.743  0.00  0.00    +0.000 C 
ENDBRANCH   4  15
TORSDOF 2
ENDMDL
MODEL 5
REMARK VINA RESULT:      -6.1      4.435      5.679
REMARK  Name = 
REMARK  2 active torsions:
REMARK  status: ('A' for Active; 'I' for Inactive)
REMARK    1  A    between atoms: C_5  and  N_6
REMARK    2  A    between atoms: C_9  and  C_10
REMARK                            x       y       z     vdW  Elec       q    Type
REMARK                         _______ _______ _______ _____ _____    ______ ____
ROOT
ATOM      1  N   UNL     1       2.997   7.303  18.060  0.00  0.00    +0.000 N 
ATOM      2  C   UNL     1       2.202   8.133  18.783  0.00  0.00    +0.000 A 
ATOM      3  N   UNL     1       1.694   7.896  19.969  0.00  0.00    +0.000 NA
ATOM      4  C   UNL     1       0.827   8.893  20.345  0.00  0.00    +0.000 A 
ATOM      5  C   UNL     1       0.697   9.932  19.453  0.00  0.00    +0.000 A 
ATOM      6  S   UNL     1       1.734   9.660  18.113  0.00  0.00    +0.000 S 
ATOM      7  H   UNL     1       3.254   7.636  17.141  0.00  0.00    +0.000 HD
ENDROOT
BRANCH   1  12
ATOM      8 CL   UNL     1       3.592   1.400  18.481  0.00  0.00    +0.000 Cl
ATOM      9  C   UNL     1       3.387   3.105  18.396  0.00  0.00    +0.000 A 
ATOM     10  C   UNL     1       4.417   3.949  18.799  0.00  0.00    +0.000 A 
ATOM     11  C   UNL     1       4.255   5.337  18.707  0.00  0.00    +0.000 A 
ATOM     12  C   UNL     1       3.073   5.900  18.201  0.00  0.00    +0.000 A 
ATOM     13  C   UNL     1       2.039   5.024  17.837  0.00  0.00    +0.000 A 
ATOM     14  C   UNL     1       2.194   3.636  17.924  0.00  0.00    +0.000 A 
ENDBRANCH   1  12
BRANCH   4  15
ATOM     15  C   UNL     1       0.063   8.812  21.658  0.00  0.00    +0.000 C 
ATOM     16  C   UNL     1       0.724   9.388  22.897  0.00  0.00    +0.000 C 
ATOM     17  C   UNL     1      -0.420  10.110  22.275  0.00  0.00    +0.000 C 
ENDBRANCH   4  15
TORSDOF 2
ENDMDL
MODEL 6
REMARK VINA RESULT:      -6.1      3.635      4.725
REMARK  Name = 
REMARK  2 active torsions:
REMARK  status: ('A' for Active; 'I' for Inactive)
REMARK    1  A    between atoms: C_5  and  N_6
REMARK    2  A    between atoms: C_9  and  C_10
REMARK                            x       y       z     vdW  Elec       q    Type
REMARK                         _______ _______ _______ _____ _____    ______ ____
ROOT
ATOM      1  N   UNL     1       3.401   6.775  17.936  0.00  0.00    +0.000 N 
ATOM      2  C   UNL     1       3.503   5.479  18.324  0.00  0.00    +0.000 A 
ATOM      3  N   UNL     1       2.587   4.769  18.939  0.00  0.00    +0.000 NA
ATOM      4  C   UNL     1       3.075   3.538  19.305  0.00  0.00    +0.000 A 
ATOM      5  C   UNL     1       4.373   3.281  18.930  0.00  0.00    +0.000 A 
ATOM      6  S   UNL     1       4.985   4.623  18.054  0.00  0.00    +0.000 S 
ATOM      7  H   UNL     1       4.232   7.172  17.518  0.00  0.00    +0.000 HD
ENDROOT
BRANCH   1  12
ATOM      8 CL   UNL     1      -0.489  10.577  20.342  0.00  0.00    +0.000 Cl
ATOM      9  C   UNL     1       0.669   9.515  19.644  0.00  0.00    +0.000 A 
ATOM     10  C   UNL     1       1.242   8.509  20.414  0.00  0.00    +0.000 A 
ATOM     11  C   UNL     1       2.168   7.631  19.836  0.00  0.00    +0.000 A 
ATOM     12  C   UNL     1       2.522   7.736  18.482  0.00  0.00    +0.000 A 
ATOM     13  C   UNL     1       1.955   8.783  17.740  0.00  0.00    +0.000 A 
ATOM     14  C   UNL     1       1.028   9.663  18.310  0.00  0.00    +0.000 A 
ENDBRANCH   1  12
BRANCH   4  15
ATOM     15  C   UNL     1       2.215   2.557  20.087  0.00  0.00    +0.000 C 
ATOM     16  C   UNL     1       2.124   2.739  21.591  0.00  0.00    +0.000 C 
ATOM     17  C   UNL     1       0.954   3.089  20.740  0.00  0.00    +0.000 C 
ENDBRANCH   4  15
TORSDOF 2
ENDMDL
MODEL 7
REMARK VINA RESULT:      -6.0      3.586      5.708
REMARK  Name = 
REMARK  2 active torsions:
REMARK  status: ('A' for Active; 'I' for Inactive)
REMARK    1  A    between atoms: C_5  and  N_6
REMARK    2  A    between atoms: C_9  and  C_10
REMARK                            x       y       z     vdW  Elec       q    Type
REMARK                         _______ _______ _______ _____ _____    ______ ____
ROOT
ATOM      1  N   UNL     1       2.921   6.263  19.794  0.00  0.00    +0.000 N 
ATOM      2  C   UNL     1       3.625   5.514  18.908  0.00  0.00    +0.000 A 
ATOM      3  N   UNL     1       4.174   5.930  17.791  0.00  0.00    +0.000 NA
ATOM      4  C   UNL     1       4.691   4.880  17.071  0.00  0.00    +0.000 A 
ATOM      5  C   UNL     1       4.574   3.643  17.662  0.00  0.00    +0.000 A 
ATOM      6  S   UNL     1       3.821   3.817  19.194  0.00  0.00    +0.000 S 
ATOM      7  H   UNL     1       2.529   5.758  20.578  0.00  0.00    +0.000 HD
ENDROOT
BRANCH   1  12
ATOM      8 CL   UNL     1      -0.137  11.250  18.718  0.00  0.00    +0.000 Cl
ATOM      9  C   UNL     1       0.789   9.834  19.023  0.00  0.00    +0.000 A 
ATOM     10  C   UNL     1       0.828   9.292  20.303  0.00  0.00    +0.000 A 
ATOM     11  C   UNL     1       1.565   8.125  20.543  0.00  0.00    +0.000 A 
ATOM     12  C   UNL     1       2.259   7.478  19.509  0.00  0.00    +0.000 A 
ATOM     13  C   UNL     1       2.231   8.068  18.237  0.00  0.00    +0.000 A 
ATOM     14  C   UNL     1       1.495   9.233  17.989  0.00  0.00    +0.000 A 
ENDBRANCH   1  12
BRANCH   4  15
ATOM     15  C   UNL     1       5.326   5.104  15.707  0.00  0.00    +0.000 C 
ATOM     16  C   UNL     1       6.841   5.087  15.621  0.00  0.00    +0.000 C 
ATOM     17  C   UNL     1       6.064   3.941  15.073  0.00  0.00    +0.000 C 
ENDBRANCH   4  15
TORSDOF 2
ENDMDL
MODEL 8
REMARK VINA RESULT:      -5.9      3.080      5.988
REMARK  Name = 
REMARK  2 active torsions:
REMARK  status: ('A' for Active; 'I' for Inactive)
REMARK    1  A    between atoms: C_5  and  N_6
REMARK    2  A    between atoms: C_9  and  C_10
REMARK                            x       y       z     vdW  Elec       q    Type
REMARK                         _______ _______ _______ _____ _____    ______ ____
ROOT
ATOM      1  N   UNL     1       4.477   2.881  17.246  0.00  0.00    +0.000 N 
ATOM      2  C   UNL     1       5.179   3.992  16.907  0.00  0.00    +0.000 A 
ATOM      3  N   UNL     1       5.601   4.932  17.719  0.00  0.00    +0.000 NA
ATOM      4  C   UNL     1       6.157   5.977  17.022  0.00  0.00    +0.000 A 
ATOM      5  C   UNL     1       6.201   5.820  15.657  0.00  0.00    +0.000 A 
ATOM      6  S   UNL     1       5.553   4.287  15.242  0.00  0.00    +0.000 S 
ATOM      7  H   UNL     1       4.194   2.290  16.476  0.00  0.00    +0.000 HD
ENDROOT
BRANCH   1  12
ATOM      8 CL   UNL     1       1.000   2.504  22.058  0.00  0.00    +0.000 Cl
ATOM      9  C   UNL     1       2.015   2.565  20.671  0.00  0.00    +0.000 A 
ATOM     10  C   UNL     1       1.458   2.749  19.410  0.00  0.00    +0.000 A 
ATOM     11  C   UNL     1       2.290   2.820  18.285  0.00  0.00    +0.000 A 
ATOM     12  C   UNL     1       3.685   2.724  18.406  0.00  0.00    +0.000 A 
ATOM     13  C   UNL     1       4.215   2.502  19.685  0.00  0.00    +0.000 A 
ATOM     14  C   UNL     1       3.390   2.432  20.814  0.00  0.00    +0.000 A 
ENDBRANCH   1  12
BRANCH   4  15
ATOM     15  C   UNL     1       6.664   7.217  17.744  0.00  0.00    +0.000 C 
ATOM     16  C   UNL     1       8.004   7.126  18.449  0.00  0.00    +0.000 C 
ATOM     17  C   UNL     1       7.893   7.905  17.184  0.00  0.00    +0.000 C 
ENDBRANCH   4  15
TORSDOF 2
ENDMDL
MODEL 9
REMARK VINA RESULT:      -5.9      4.444      5.748
REMARK  Name = 
REMARK  2 active torsions:
REMARK  status: ('A' for Active; 'I' for Inactive)
REMARK    1  A    between atoms: C_5  and  N_6
REMARK    2  A    between atoms: C_9  and  C_10
REMARK                            x       y       z     vdW  Elec       q    Type
REMARK                         _______ _______ _______ _____ _____    ______ ____
ROOT
ATOM      1  N   UNL     1       3.015   7.424  17.987  0.00  0.00    +0.000 N 
ATOM      2  C   UNL     1       2.205   8.201  18.751  0.00  0.00    +0.000 A 
ATOM      3  N   UNL     1       1.756   7.923  19.952  0.00  0.00    +0.000 NA
ATOM      4  C   UNL     1       0.852   8.867  20.374  0.00  0.00    +0.000 A 
ATOM      5  C   UNL     1       0.632   9.908  19.503  0.00  0.00    +0.000 A 
ATOM      6  S   UNL     1       1.629   9.708  18.121  0.00  0.00    +0.000 S 
ATOM      7  H   UNL     1       3.218   7.782  17.063  0.00  0.00    +0.000 HD
ENDROOT
BRANCH   1  12
ATOM      8 CL   UNL     1       3.412   1.529  18.674  0.00  0.00    +0.000 Cl
ATOM      9  C   UNL     1       3.328   3.231  18.436  0.00  0.00    +0.000 A 
ATOM     10  C   UNL     1       2.151   3.810  17.974  0.00  0.00    +0.000 A 
ATOM     11  C   UNL     1       2.079   5.198  17.803  0.00  0.00    +0.000 A 
ATOM     12  C   UNL     1       3.172   6.026  18.105  0.00  0.00    +0.000 A 
ATOM     13  C   UNL     1       4.356   5.409  18.535  0.00  0.00    +0.000 A 
ATOM     14  C   UNL     1       4.435   4.023  18.710  0.00  0.00    +0.000 A 
ENDBRANCH   1  12
BRANCH   4  15
ATOM     15  C   UNL     1       0.145   8.728  21.715  0.00  0.00    +0.000 C 
ATOM     16  C   UNL     1       0.788   9.383  22.923  0.00  0.00    +0.000 C 
ATOM     17  C   UNL     1      -0.443   9.981  22.335  0.00  0.00    +0.000 C 
ENDBRANCH   4  15
TORSDOF 2
ENDMDL
