MODEL 1
REMARK VINA RESULT:      -7.2      0.000      0.000
REMARK  Name = 
REMARK  7 active torsions:
REMARK  status: ('A' for Active; 'I' for Inactive)
REMARK    1  A    between atoms: C_1  and  O_2
REMARK    2  A    between atoms: O_2  and  C_3
REMARK    3  A    between atoms: C_6  and  N_7
REMARK    4  A    between atoms: C_8  and  C_10
REMARK    5  A    between atoms: C_10  and  C_11
REMARK    6  A    between atoms: C_17  and  O_18
REMARK    7  A    between atoms: O_18  and  C_19
REMARK                            x       y       z     vdW  Elec       q    Type
REMARK                         _______ _______ _______ _____ _____    ______ ____
ROOT
ATOM      1  C   UNL     1       7.281   6.554  17.199  0.00  0.00    +0.000 A 
ATOM      2  C   UNL     1       6.677   6.477  18.459  0.00  0.00    +0.000 A 
ATOM      3  C   UNL     1       5.879   5.387  18.813  0.00  0.00    +0.000 A 
ATOM      4  C   UNL     1       5.634   4.365  17.902  0.00  0.00    +0.000 A 
ATOM      5  C   UNL     1       6.171   4.481  16.614  0.00  0.00    +0.000 A 
ATOM      6  C   UNL     1       6.988   5.567  16.246  0.00  0.00    +0.000 A 
ENDROOT
BRANCH   4   7
ATOM      7  N   UNL     1       4.893   3.204  18.213  0.00  0.00    +0.000 N 
ATOM      8  C   UNL     1       3.666   2.839  17.690  0.00  0.00    +0.000 C 
ATOM      9  O   UNL     1       3.056   3.409  16.787  0.00  0.00    +0.000 OA
ATOM     10  H   UNL     1       5.287   2.607  18.928  0.00  0.00    +0.000 HD
BRANCH   8  11
ATOM     11  C   UNL     1       3.065   1.610  18.345  0.00  0.00    +0.000 C 
BRANCH  11  12
ATOM     12  C   UNL     1       2.180   1.945  19.543  0.00  0.00    +0.000 C 
ATOM     13  C   UNL     1       2.934   2.534  20.735  0.00  0.00    +0.000 C 
ATOM     14  C   UNL     1       1.824   3.138  21.587  0.00  0.00    +0.000 C 
ATOM     15  C   UNL     1       0.730   3.559  20.605  0.00  0.00    +0.000 C 
ATOM     16  C   UNL     1       1.166   3.046  19.235  0.00  0.00    +0.000 C 
ENDBRANCH  11  12
ENDBRANCH   8  11
ENDBRANCH   4   7
BRANCH   1  18
ATOM     17  C   UNL     1       8.035   8.741  17.709  0.00  0.00    +0.000 C 
ATOM     18  O   UNL     1       8.131   7.581  16.883  0.00  0.00    +0.000 OA
ENDBRANCH   1  18
BRANCH   6  19
ATOM     19  O   UNL     1       7.414   5.477  14.946  0.00  0.00    +0.000 OA
ATOM     20  C   UNL     1       6.743   4.593  14.061  0.00  0.00    +0.000 C 
ENDBRANCH   6  19
TORSDOF 5
ENDMDL
MODEL 2
REMARK VINA RESULT:      -7.2      1.651      3.205
REMARK  Name = 
REMARK  7 active torsions:
REMARK  status: ('A' for Active; 'I' for Inactive)
REMARK    1  A    between atoms: C_1  and  O_2
REMARK    2  A    between atoms: O_2  and  C_3
REMARK    3  A    between atoms: C_6  and  N_7
REMARK    4  A    between atoms: C_8  and  C_10
REMARK    5  A    between atoms: C_10  and  C_11
REMARK    6  A    between atoms: C_17  and  O_18
REMARK    7  A    between atoms: O_18  and  C_19
REMARK                            x       y       z     vdW  Elec       q    Type
REMARK                         _______ _______ _______ _____ _____    ______ ____
ROOT
ATOM      1  C   UNL     1       6.860   4.900  15.746  0.00  0.00    +0.000 A 
ATOM      2  C   UNL     1       5.891   3.911  15.953  0.00  0.00    +0.000 A 
ATOM      3  C   UNL     1       4.953   4.022  16.982  0.00  0.00    +0.000 A 
ATOM      4  C   UNL     1       4.984   5.105  17.853  0.00  0.00    +0.000 A 
ATOM      5  C   UNL     1       6.003   6.053  17.698  0.00  0.00    +0.000 A 
ATOM      6  C   UNL     1       6.948   5.963  16.658  0.00  0.00    +0.000 A 
ENDROOT
BRANCH   4   7
ATOM      7  N   UNL     1       4.029   5.314  18.872  0.00  0.00    +0.000 N 
ATOM      8  C   UNL     1       2.959   6.190  18.839  0.00  0.00    +0.000 C 
ATOM      9  O   UNL     1       2.593   6.862  17.877  0.00  0.00    +0.000 OA
ATOM     10  H   UNL     1       4.179   4.799  19.730  0.00  0.00    +0.000 HD
BRANCH   8  11
ATOM     11  C   UNL     1       2.211   6.288  20.155  0.00  0.00    +0.000 C 
BRANCH  11  12
ATOM     12  C   UNL     1       1.491   4.995  20.530  0.00  0.00    +0.000 C 
ATOM     13  C   UNL     1       1.305   4.021  19.367  0.00  0.00    +0.000 C 
ATOM     14  C   UNL     1       0.959   2.709  20.061  0.00  0.00    +0.000 C 
ATOM     15  C   UNL     1       1.676   2.753  21.411  0.00  0.00    +0.000 C 
ATOM     16  C   UNL     1       2.283   4.149  21.526  0.00  0.00    +0.000 C 
ENDBRANCH  11  12
ENDBRANCH   8  11
ENDBRANCH   4   7
BRANCH   1  18
ATOM     17  C   UNL     1       7.137   4.989  13.396  0.00  0.00    +0.000 C 
ATOM     18  O   UNL     1       7.725   4.833  14.687  0.00  0.00    +0.000 OA
ENDBRANCH   1  18
BRANCH   6  19
ATOM     19  O   UNL     1       7.847   6.997  16.684  0.00  0.00    +0.000 OA
ATOM     20  C   UNL     1       7.675   8.035  17.638  0.00  0.00    +0.000 C 
ENDBRANCH   6  19
TORSDOF 5
ENDMDL
MODEL 3
REMARK VINA RESULT:      -6.8      2.298      6.992
REMARK  Name = 
REMARK  7 active torsions:
REMARK  status: ('A' for Active; 'I' for Inactive)
REMARK    1  A    between atoms: C_1  and  O_2
REMARK    2  A    between atoms: O_2  and  C_3
REMARK    3  A    between atoms: C_6  and  N_7
REMARK    4  A    between atoms: C_8  and  C_10
REMARK    5  A    between atoms: C_10  and  C_11
REMARK    6  A    between atoms: C_17  and  O_18
REMARK    7  A    between atoms: O_18  and  C_19
REMARK                            x       y       z     vdW  Elec       q    Type
REMARK                         _______ _______ _______ _____ _____    ______ ____
ROOT
ATOM      1  C   UNL     1       1.762   3.459  19.598  0.00  0.00    +0.000 A 
ATOM      2  C   UNL     1       2.070   2.566  18.564  0.00  0.00    +0.000 A 
ATOM      3  C   UNL     1       2.924   2.933  17.522  0.00  0.00    +0.000 A 
ATOM      4  C   UNL     1       3.463   4.214  17.467  0.00  0.00    +0.000 A 
ATOM      5  C   UNL     1       3.091   5.134  18.455  0.00  0.00    +0.000 A 
ATOM      6  C   UNL     1       2.241   4.776  19.520  0.00  0.00    +0.000 A 
ENDROOT
BRANCH   4   7
ATOM      7  N   UNL     1       4.383   4.631  16.481  0.00  0.00    +0.000 N 
ATOM      8  C   UNL     1       5.760   4.679  16.599  0.00  0.00    +0.000 C 
ATOM      9  O   UNL     1       6.429   4.267  17.546  0.00  0.00    +0.000 OA
ATOM     10  H   UNL     1       3.981   4.974  15.619  0.00  0.00    +0.000 HD
BRANCH   8  11
ATOM     11  C   UNL     1       6.452   5.320  15.411  0.00  0.00    +0.000 C 
BRANCH  11  12
ATOM     12  C   UNL     1       6.676   4.349  14.255  0.00  0.00    +0.000 C 
ATOM     13  C   UNL     1       5.398   3.936  13.527  0.00  0.00    +0.000 C 
ATOM     14  C   UNL     1       5.916   3.333  12.226  0.00  0.00    +0.000 C 
ATOM     15  C   UNL     1       7.219   4.070  11.917  0.00  0.00    +0.000 C 
ATOM     16  C   UNL     1       7.500   4.963  13.124  0.00  0.00    +0.000 C 
ENDBRANCH  11  12
ENDBRANCH   8  11
ENDBRANCH   4   7
BRANCH   1  18
ATOM     17  C   UNL     1       1.706   2.710  21.844  0.00  0.00    +0.000 C 
ATOM     18  O   UNL     1       0.993   3.072  20.662  0.00  0.00    +0.000 OA
ENDBRANCH   1  18
BRANCH   6  19
ATOM     19  O   UNL     1       2.017   5.821  20.377  0.00  0.00    +0.000 OA
ATOM     20  C   UNL     1       2.094   7.149  19.879  0.00  0.00    +0.000 C 
ENDBRANCH   6  19
TORSDOF 5
ENDMDL
MODEL 4
REMARK VINA RESULT:      -6.8      1.816      3.147
REMARK  Name = 
REMARK  7 active torsions:
REMARK  status: ('A' for Active; 'I' for Inactive)
REMARK    1  A    between atoms: C_1  and  O_2
REMARK    2  A    between atoms: O_2  and  C_3
REMARK    3  A    between atoms: C_6  and  N_7
REMARK    4  A    between atoms: C_8  and  C_10
REMARK    5  A    between atoms: C_10  and  C_11
REMARK    6  A    between atoms: C_17  and  O_18
REMARK    7  A    between atoms: O_18  and  C_19
REMARK                            x       y       z     vdW  Elec       q    Type
REMARK                         _______ _______ _______ _____ _____    ______ ____
ROOT
ATOM      1  C   UNL     1       6.974   5.232  14.956  0.00  0.00    +0.000 A 
ATOM      2  C   UNL     1       5.989   4.259  14.749  0.00  0.00    +0.000 A 
ATOM      3  C   UNL     1       4.881   4.160  15.593  0.00  0.00    +0.000 A 
ATOM      4  C   UNL     1       4.750   5.006  16.688  0.00  0.00    +0.000 A 
ATOM      5  C   UNL     1       5.775   5.925  16.945  0.00  0.00    +0.000 A 
ATOM      6  C   UNL     1       6.891   6.046  16.096  0.00  0.00    +0.000 A 
ENDROOT
BRANCH   4   7
ATOM      7  N   UNL     1       3.627   5.005  17.544  0.00  0.00    +0.000 N 
ATOM      8  C   UNL     1       3.001   6.110  18.092  0.00  0.00    +0.000 C 
ATOM      9  O   UNL     1       3.249   7.289  17.847  0.00  0.00    +0.000 OA
ATOM     10  H   UNL     1       3.280   4.095  17.816  0.00  0.00    +0.000 HD
BRANCH   8  11
ATOM     11  C   UNL     1       1.915   5.762  19.093  0.00  0.00    +0.000 C 
BRANCH  11  12
ATOM     12  C   UNL     1       2.156   4.427  19.794  0.00  0.00    +0.000 C 
ATOM     13  C   UNL     1       2.425   4.546  21.293  0.00  0.00    +0.000 C 
ATOM     14  C   UNL     1       2.223   3.123  21.799  0.00  0.00    +0.000 C 
ATOM     15  C   UNL     1       1.180   2.498  20.872  0.00  0.00    +0.000 C 
ATOM     16  C   UNL     1       0.927   3.519  19.765  0.00  0.00    +0.000 C 
ENDBRANCH  11  12
ENDBRANCH   8  11
ENDBRANCH   4   7
BRANCH   1  18
ATOM     17  C   UNL     1       7.696   5.205  12.701  0.00  0.00    +0.000 C 
ATOM     18  O   UNL     1       8.016   5.383  14.080  0.00  0.00    +0.000 OA
ENDBRANCH   1  18
BRANCH   6  19
ATOM     19  O   UNL     1       7.766   7.011  16.525  0.00  0.00    +0.000 OA
ATOM     20  C   UNL     1       7.669   7.483  17.861  0.00  0.00    +0.000 C 
ENDBRANCH   6  19
TORSDOF 5
ENDMDL
MODEL 5
REMARK VINA RESULT:      -6.8      2.235      6.640
REMARK  Name = 
REMARK  7 active torsions:
REMARK  status: ('A' for Active; 'I' for Inactive)
REMARK    1  A    between atoms: C_1  and  O_2
REMARK    2  A    between atoms: O_2  and  C_3
REMARK    3  A    between atoms: C_6  and  N_7
REMARK    4  A    between atoms: C_8  and  C_10
REMARK    5  A    between atoms: C_10  and  C_11
REMARK    6  A    between atoms: C_17  and  O_18
REMARK    7  A    between atoms: O_18  and  C_19
REMARK                            x       y       z     vdW  Elec       q    Type
REMARK                         _______ _______ _______ _____ _____    ______ ____
ROOT
ATOM      1  C   UNL     1       3.229   4.332  19.386  0.00  0.00    +0.000 A 
ATOM      2  C   UNL     1       4.607   4.572  19.441  0.00  0.00    +0.000 A 
ATOM      3  C   UNL     1       5.407   4.459  18.302  0.00  0.00    +0.000 A 
ATOM      4  C   UNL     1       4.856   4.066  17.088  0.00  0.00    +0.000 A 
ATOM      5  C   UNL     1       3.494   3.746  17.049  0.00  0.00    +0.000 A 
ATOM      6  C   UNL     1       2.671   3.868  18.185  0.00  0.00    +0.000 A 
ENDROOT
BRANCH   4   7
ATOM      7  N   UNL     1       5.592   3.994  15.885  0.00  0.00    +0.000 N 
ATOM      8  C   UNL     1       6.017   5.057  15.108  0.00  0.00    +0.000 C 
ATOM      9  O   UNL     1       5.920   6.251  15.384  0.00  0.00    +0.000 OA
ATOM     10  H   UNL     1       5.781   3.063  15.538  0.00  0.00    +0.000 HD
BRANCH   8  11
ATOM     11  C   UNL     1       6.652   4.637  13.796  0.00  0.00    +0.000 C 
BRANCH  11  12
ATOM     12  C   UNL     1       5.900   3.501  13.106  0.00  0.00    +0.000 C 
ATOM     13  C   UNL     1       4.728   3.961  12.240  0.00  0.00    +0.000 C 
ATOM     14  C   UNL     1       4.430   2.740  11.378  0.00  0.00    +0.000 C 
ATOM     15  C   UNL     1       5.767   2.020  11.201  0.00  0.00    +0.000 C 
ATOM     16  C   UNL     1       6.767   2.754  12.093  0.00  0.00    +0.000 C 
ENDBRANCH  11  12
ENDBRANCH   8  11
ENDBRANCH   4   7
BRANCH   1  18
ATOM     17  C   UNL     1       2.416   3.459  21.432  0.00  0.00    +0.000 C 
ATOM     18  O   UNL     1       2.432   4.525  20.483  0.00  0.00    +0.000 OA
ENDBRANCH   1  18
BRANCH   6  19
ATOM     19  O   UNL     1       1.372   3.514  17.924  0.00  0.00    +0.000 OA
ATOM     20  C   UNL     1       0.835   2.356  18.548  0.00  0.00    +0.000 C 
ENDBRANCH   6  19
TORSDOF 5
ENDMDL
MODEL 6
REMARK VINA RESULT:      -6.7      1.418      2.728
REMARK  Name = 
REMARK  7 active torsions:
REMARK  status: ('A' for Active; 'I' for Inactive)
REMARK    1  A    between atoms: C_1  and  O_2
REMARK    2  A    between atoms: O_2  and  C_3
REMARK    3  A    between atoms: C_6  and  N_7
REMARK    4  A    between atoms: C_8  and  C_10
REMARK    5  A    between atoms: C_10  and  C_11
REMARK    6  A    between atoms: C_17  and  O_18
REMARK    7  A    between atoms: O_18  and  C_19
REMARK                            x       y       z     vdW  Elec       q    Type
REMARK                         _______ _______ _______ _____ _____    ______ ____
ROOT
ATOM      1  C   UNL     1       6.864   4.992  15.136  0.00  0.00    +0.000 A 
ATOM      2  C   UNL     1       5.880   4.287  14.434  0.00  0.00    +0.000 A 
ATOM      3  C   UNL     1       4.718   3.843  15.068  0.00  0.00    +0.000 A 
ATOM      4  C   UNL     1       4.528   4.059  16.428  0.00  0.00    +0.000 A 
ATOM      5  C   UNL     1       5.548   4.692  17.149  0.00  0.00    +0.000 A 
ATOM      6  C   UNL     1       6.720   5.158  16.522  0.00  0.00    +0.000 A 
ENDROOT
BRANCH   4   7
ATOM      7  N   UNL     1       3.351   3.696  17.119  0.00  0.00    +0.000 N 
ATOM      8  C   UNL     1       3.094   2.488  17.741  0.00  0.00    +0.000 C 
ATOM      9  O   UNL     1       3.885   1.559  17.891  0.00  0.00    +0.000 OA
ATOM     10  H   UNL     1       2.606   4.380  17.112  0.00  0.00    +0.000 HD
BRANCH   8  11
ATOM     11  C   UNL     1       1.675   2.360  18.261  0.00  0.00    +0.000 C 
BRANCH  11  12
ATOM     12  C   UNL     1       1.455   3.095  19.581  0.00  0.00    +0.000 C 
ATOM     13  C   UNL     1       2.364   2.629  20.717  0.00  0.00    +0.000 C 
ATOM     14  C   UNL     1       2.241   3.747  21.745  0.00  0.00    +0.000 C 
ATOM     15  C   UNL     1       1.978   5.022  20.941  0.00  0.00    +0.000 C 
ATOM     16  C   UNL     1       1.799   4.581  19.490  0.00  0.00    +0.000 C 
ENDBRANCH  11  12
ENDBRANCH   8  11
ENDBRANCH   4   7
BRANCH   1  18
ATOM     17  C   UNL     1       8.008   5.298  13.085  0.00  0.00    +0.000 C 
ATOM     18  O   UNL     1       7.963   5.501  14.497  0.00  0.00    +0.000 OA
ENDBRANCH   1  18
BRANCH   6  19
ATOM     19  O   UNL     1       7.579   5.754  17.408  0.00  0.00    +0.000 OA
ATOM     20  C   UNL     1       7.500   7.159  17.605  0.00  0.00    +0.000 C 
ENDBRANCH   6  19
TORSDOF 5
ENDMDL
MODEL 7
REMARK VINA RESULT:      -6.7      2.746      7.830
REMARK  Name = 
REMARK  7 active torsions:
REMARK  status: ('A' for Active; 'I' for Inactive)
REMARK    1  A    between atoms: C_1  and  O_2
REMARK    2  A    between atoms: O_2  and  C_3
REMARK    3  A    between atoms: C_6  and  N_7
REMARK    4  A    between atoms: C_8  and  C_10
REMARK    5  A    between atoms: C_10  and  C_11
REMARK    6  A    between atoms: C_17  and  O_18
REMARK    7  A    between atoms: O_18  and  C_19
REMARK                            x       y       z     vdW  Elec       q    Type
REMARK                         _______ _______ _______ _____ _____    ______ ____
ROOT
ATOM      1  C   UNL     1       5.080   4.340  17.137  0.00  0.00    +0.000 A 
ATOM      2  C   UNL     1       6.421   4.407  16.740  0.00  0.00    +0.000 A 
ATOM      3  C   UNL     1       7.109   5.622  16.721  0.00  0.00    +0.000 A 
ATOM      4  C   UNL     1       6.464   6.805  17.062  0.00  0.00    +0.000 A 
ATOM      5  C   UNL     1       5.101   6.751  17.379  0.00  0.00    +0.000 A 
ATOM      6  C   UNL     1       4.396   5.532  17.416  0.00  0.00    +0.000 A 
ENDROOT
BRANCH   4   7
ATOM      7  N   UNL     1       7.113   8.057  17.128  0.00  0.00    +0.000 N 
ATOM      8  C   UNL     1       8.077   8.444  18.041  0.00  0.00    +0.000 C 
ATOM      9  O   UNL     1       8.610   7.732  18.890  0.00  0.00    +0.000 OA
ATOM     10  H   UNL     1       6.801   8.752  16.462  0.00  0.00    +0.000 HD
BRANCH   8  11
ATOM     11  C   UNL     1       8.463   9.908  17.936  0.00  0.00    +0.000 C 
BRANCH  11  12
ATOM     12  C   UNL     1       9.655  10.275  18.818  0.00  0.00    +0.000 C 
ATOM     13  C   UNL     1      10.628  11.262  18.176  0.00  0.00    +0.000 C 
ATOM     14  C   UNL     1      11.452  11.760  19.358  0.00  0.00    +0.000 C 
ATOM     15  C   UNL     1      10.519  11.698  20.568  0.00  0.00    +0.000 C 
ATOM     16  C   UNL     1       9.239  11.020  20.085  0.00  0.00    +0.000 C 
ENDBRANCH  11  12
ENDBRANCH   8  11
ENDBRANCH   4   7
BRANCH   1  18
ATOM     17  C   UNL     1       3.983   2.782  18.543  0.00  0.00    +0.000 C 
ATOM     18  O   UNL     1       4.430   3.138  17.236  0.00  0.00    +0.000 OA
ENDBRANCH   1  18
BRANCH   6  19
ATOM     19  O   UNL     1       3.080   5.705  17.760  0.00  0.00    +0.000 OA
ATOM     20  C   UNL     1       2.758   6.570  18.840  0.00  0.00    +0.000 C 
ENDBRANCH   6  19
TORSDOF 5
ENDMDL
MODEL 8
REMARK VINA RESULT:      -6.7      2.487      6.551
REMARK  Name = 
REMARK  7 active torsions:
REMARK  status: ('A' for Active; 'I' for Inactive)
REMARK    1  A    between atoms: C_1  and  O_2
REMARK    2  A    between atoms: O_2  and  C_3
REMARK    3  A    between atoms: C_6  and  N_7
REMARK    4  A    between atoms: C_8  and  C_10
REMARK    5  A    between atoms: C_10  and  C_11
REMARK    6  A    between atoms: C_17  and  O_18
REMARK    7  A    between atoms: O_18  and  C_19
REMARK                            x       y       z     vdW  Elec       q    Type
REMARK                         _______ _______ _______ _____ _____    ______ ____
ROOT
ATOM      1  C   UNL     1       3.295   5.076  19.319  0.00  0.00    +0.000 A 
ATOM      2  C   UNL     1       3.605   6.194  18.536  0.00  0.00    +0.000 A 
ATOM      3  C   UNL     1       4.233   6.058  17.296  0.00  0.00    +0.000 A 
ATOM      4  C   UNL     1       4.602   4.803  16.825  0.00  0.00    +0.000 A 
ATOM      5  C   UNL     1       4.368   3.691  17.643  0.00  0.00    +0.000 A 
ATOM      6  C   UNL     1       3.723   3.810  18.889  0.00  0.00    +0.000 A 
ENDROOT
BRANCH   4   7
ATOM      7  N   UNL     1       5.180   4.586  15.556  0.00  0.00    +0.000 N 
ATOM      8  C   UNL     1       6.520   4.687  15.226  0.00  0.00    +0.000 C 
ATOM      9  O   UNL     1       7.452   4.880  16.003  0.00  0.00    +0.000 OA
ATOM     10  H   UNL     1       4.533   4.382  14.805  0.00  0.00    +0.000 HD
BRANCH   8  11
ATOM     11  C   UNL     1       6.795   4.541  13.741  0.00  0.00    +0.000 C 
BRANCH  11  12
ATOM     12  C   UNL     1       5.947   3.456  13.081  0.00  0.00    +0.000 C 
ATOM     13  C   UNL     1       4.846   3.991  12.166  0.00  0.00    +0.000 C 
ATOM     14  C   UNL     1       4.445   2.768  11.350  0.00  0.00    +0.000 C 
ATOM     15  C   UNL     1       5.706   1.912  11.239  0.00  0.00    +0.000 C 
ATOM     16  C   UNL     1       6.755   2.581  12.124  0.00  0.00    +0.000 C 
ENDBRANCH  11  12
ENDBRANCH   8  11
ENDBRANCH   4   7
BRANCH   1  18
ATOM     17  C   UNL     1       1.278   4.676  20.493  0.00  0.00    +0.000 C 
ATOM     18  O   UNL     1       2.604   5.203  20.494  0.00  0.00    +0.000 OA
ENDBRANCH   1  18
BRANCH   6  19
ATOM     19  O   UNL     1       3.585   2.600  19.518  0.00  0.00    +0.000 OA
ATOM     20  C   UNL     1       4.715   2.024  20.158  0.00  0.00    +0.000 C 
ENDBRANCH   6  19
TORSDOF 5
ENDMDL
MODEL 9
REMARK VINA RESULT:      -6.5      1.403      2.824
REMARK  Name = 
REMARK  7 active torsions:
REMARK  status: ('A' for Active; 'I' for Inactive)
REMARK    1  A    between atoms: C_1  and  O_2
REMARK    2  A    between atoms: O_2  and  C_3
REMARK    3  A    between atoms: C_6  and  N_7
REMARK    4  A    between atoms: C_8  and  C_10
REMARK    5  A    between atoms: C_10  and  C_11
REMARK    6  A    between atoms: C_17  and  O_18
REMARK    7  A    between atoms: O_18  and  C_19
REMARK                            x       y       z     vdW  Elec       q    Type
REMARK                         _______ _______ _______ _____ _____    ______ ____
ROOT
ATOM      1  C   UNL     1       6.787   5.212  15.347  0.00  0.00    +0.000 A 
ATOM      2  C   UNL     1       5.833   4.278  14.925  0.00  0.00    +0.000 A 
ATOM      3  C   UNL     1       4.641   4.094  15.628  0.00  0.00    +0.000 A 
ATOM      4  C   UNL     1       4.389   4.813  16.792  0.00  0.00    +0.000 A 
ATOM      5  C   UNL     1       5.377   5.687  17.260  0.00  0.00    +0.000 A 
ATOM      6  C   UNL     1       6.578   5.894  16.555  0.00  0.00    +0.000 A 
ENDROOT
BRANCH   4   7
ATOM      7  N   UNL     1       3.180   4.726  17.516  0.00  0.00    +0.000 N 
ATOM      8  C   UNL     1       2.304   3.655  17.542  0.00  0.00    +0.000 C 
ATOM      9  O   UNL     1       2.477   2.555  17.023  0.00  0.00    +0.000 OA
ATOM     10  H   UNL     1       2.911   5.556  18.028  0.00  0.00    +0.000 HD
BRANCH   8  11
ATOM     11  C   UNL     1       1.019   3.938  18.297  0.00  0.00    +0.000 C 
BRANCH  11  12
ATOM     12  C   UNL     1       1.125   3.638  19.790  0.00  0.00    +0.000 C 
ATOM     13  C   UNL     1       1.876   2.348  20.118  0.00  0.00    +0.000 C 
ATOM     14  C   UNL     1       2.190   2.494  21.602  0.00  0.00    +0.000 C 
ATOM     15  C   UNL     1       2.338   3.996  21.848  0.00  0.00    +0.000 C 
ATOM     16  C   UNL     1       1.949   4.683  20.541  0.00  0.00    +0.000 C 
ENDBRANCH  11  12
ENDBRANCH   8  11
ENDBRANCH   4   7
BRANCH   1  18
ATOM     17  C   UNL     1       7.825   5.150  13.219  0.00  0.00    +0.000 C 
ATOM     18  O   UNL     1       7.917   5.452  14.611  0.00  0.00    +0.000 OA
ENDBRANCH   1  18
BRANCH   6  19
ATOM     19  O   UNL     1       7.398   6.796  17.182  0.00  0.00    +0.000 OA
ATOM     20  C   UNL     1       7.800   6.547  18.521  0.00  0.00    +0.000 C 
ENDBRANCH   6  19
TORSDOF 5
ENDMDL
