MODEL 1
REMARK VINA RESULT:      -8.0      0.000      0.000
REMARK  Name = 
REMARK  4 active torsions:
REMARK  status: ('A' for Active; 'I' for Inactive)
REMARK    1  A    between atoms: C_2  and  O_16
REMARK    2  A    between atoms: N_3  and  C_4
REMARK    3  A    between atoms: C_9  and  C_10
REMARK    4  A    between atoms: O_16  and  C_17
REMARK                            x       y       z     vdW  Elec       q    Type
REMARK                         _______ _______ _______ _____ _____    ______ ____
ROOT
ATOM      1  O   UNL     1       2.062   8.956  17.185  0.00  0.00    +0.000 OA
ATOM      2  C   UNL     1       2.162   8.476  18.303  0.00  0.00    +0.000 C 
ATOM      3  N   UNL     1       2.840   7.341  18.668  0.00  0.00    +0.000 N 
ATOM      4  H   UNL     1       2.921   7.220  19.667  0.00  0.00    +0.000 HD
ENDROOT
BRANCH   3   5
ATOM      5  C   UNL     1       3.623   6.503  17.836  0.00  0.00    +0.000 A 
ATOM      6  C   UNL     1       4.457   7.082  16.864  0.00  0.00    +0.000 A 
ATOM      7  C   UNL     1       5.179   6.288  15.971  0.00  0.00    +0.000 A 
ATOM      8  C   UNL     1       5.129   4.906  16.078  0.00  0.00    +0.000 A 
ATOM      9  C   UNL     1       4.325   4.324  17.058  0.00  0.00    +0.000 A 
ATOM     10  C   UNL     1       3.517   5.093  17.932  0.00  0.00    +0.000 A 
BRANCH  10  11
ATOM     11  C   UNL     1       2.618   4.380  18.882  0.00  0.00    +0.000 A 
ATOM     12  C   UNL     1       1.467   3.693  18.472  0.00  0.00    +0.000 A 
ATOM     13  C   UNL     1       0.681   2.964  19.377  0.00  0.00    +0.000 A 
ATOM     14  C   UNL     1       0.978   2.982  20.734  0.00  0.00    +0.000 A 
ATOM     15  C   UNL     1       2.060   3.722  21.188  0.00  0.00    +0.000 A 
ATOM     16  C   UNL     1       2.874   4.402  20.269  0.00  0.00    +0.000 A 
ENDBRANCH  10  11
ENDBRANCH   3   5
BRANCH   2  17
ATOM     17  O   UNL     1       1.635   9.039  19.428  0.00  0.00    +0.000 OA
BRANCH  17  18
ATOM     18  C   UNL     1       0.411   9.799  19.302  0.00  0.00    +0.000 C 
ATOM     19  C   UNL     1       0.658  11.299  19.115  0.00  0.00    +0.000 C 
ATOM     20  C   UNL     1       1.279  11.960  20.347  0.00  0.00    +0.000 C 
ATOM     21  N   UNL     1       0.634  11.638  21.621  0.00  0.00    +0.000 NA
ATOM     22  C   UNL     1       0.335  10.217  21.786  0.00  0.00    +0.000 C 
ATOM     23  C   UNL     1      -0.390   9.606  20.588  0.00  0.00    +0.000 C 
ATOM     24  H   UNL     1      -0.212  12.193  21.743  0.00  0.00    +0.000 HD
ENDBRANCH  17  18
ENDBRANCH   2  17
TORSDOF 4
ENDMDL
MODEL 2
REMARK VINA RESULT:      -7.9      0.090      1.025
REMARK  Name = 
REMARK  4 active torsions:
REMARK  status: ('A' for Active; 'I' for Inactive)
REMARK    1  A    between atoms: C_2  and  O_16
REMARK    2  A    between atoms: N_3  and  C_4
REMARK    3  A    between atoms: C_9  and  C_10
REMARK    4  A    between atoms: O_16  and  C_17
REMARK                            x       y       z     vdW  Elec       q    Type
REMARK                         _______ _______ _______ _____ _____    ______ ____
ROOT
ATOM      1  O   UNL     1       2.168   8.965  17.171  0.00  0.00    +0.000 OA
ATOM      2  C   UNL     1       2.212   8.462  18.282  0.00  0.00    +0.000 C 
ATOM      3  N   UNL     1       2.848   7.306  18.653  0.00  0.00    +0.000 N 
ATOM      4  H   UNL     1       2.886   7.166  19.652  0.00  0.00    +0.000 HD
ENDROOT
BRANCH   3   5
ATOM      5  C   UNL     1       3.644   6.464  17.837  0.00  0.00    +0.000 A 
ATOM      6  C   UNL     1       4.459   7.035  16.845  0.00  0.00    +0.000 A 
ATOM      7  C   UNL     1       5.193   6.235  15.968  0.00  0.00    +0.000 A 
ATOM      8  C   UNL     1       5.174   4.856  16.110  0.00  0.00    +0.000 A 
ATOM      9  C   UNL     1       4.389   4.282  17.110  0.00  0.00    +0.000 A 
ATOM     10  C   UNL     1       3.570   5.055  17.969  0.00  0.00    +0.000 A 
BRANCH  10  11
ATOM     11  C   UNL     1       2.692   4.347  18.944  0.00  0.00    +0.000 A 
ATOM     12  C   UNL     1       2.940   4.333  20.323  0.00  0.00    +0.000 A 
ATOM     13  C   UNL     1       2.054   3.726  21.225  0.00  0.00    +0.000 A 
ATOM     14  C   UNL     1       0.943   3.036  20.759  0.00  0.00    +0.000 A 
ATOM     15  C   UNL     1       0.712   2.955  19.394  0.00  0.00    +0.000 A 
ATOM     16  C   UNL     1       1.571   3.613  18.501  0.00  0.00    +0.000 A 
ENDBRANCH  10  11
ENDBRANCH   3   5
BRANCH   2  17
ATOM     17  O   UNL     1       1.654   9.019  19.395  0.00  0.00    +0.000 OA
BRANCH  17  18
ATOM     18  C   UNL     1       0.466   9.828  19.232  0.00  0.00    +0.000 C 
ATOM     19  C   UNL     1       0.782  11.315  19.040  0.00  0.00    +0.000 C 
ATOM     20  C   UNL     1       1.398  11.960  20.283  0.00  0.00    +0.000 C 
ATOM     21  N   UNL     1       0.709  11.677  21.542  0.00  0.00    +0.000 NA
ATOM     22  C   UNL     1       0.346  10.272  21.710  0.00  0.00    +0.000 C 
ATOM     23  C   UNL     1      -0.374   9.681  20.499  0.00  0.00    +0.000 C 
ATOM     24  H   UNL     1      -0.115  12.268  21.638  0.00  0.00    +0.000 HD
ENDBRANCH  17  18
ENDBRANCH   2  17
TORSDOF 4
ENDMDL
MODEL 3
REMARK VINA RESULT:      -7.8      3.929      6.020
REMARK  Name = 
REMARK  4 active torsions:
REMARK  status: ('A' for Active; 'I' for Inactive)
REMARK    1  A    between atoms: C_2  and  O_16
REMARK    2  A    between atoms: N_3  and  C_4
REMARK    3  A    between atoms: C_9  and  C_10
REMARK    4  A    between atoms: O_16  and  C_17
REMARK                            x       y       z     vdW  Elec       q    Type
REMARK                         _______ _______ _______ _____ _____    ______ ____
ROOT
ATOM      1  O   UNL     1       3.886   6.083  17.033  0.00  0.00    +0.000 OA
ATOM      2  C   UNL     1       3.971   4.884  17.248  0.00  0.00    +0.000 C 
ATOM      3  N   UNL     1       4.650   3.947  16.513  0.00  0.00    +0.000 N 
ATOM      4  H   UNL     1       4.714   3.046  16.963  0.00  0.00    +0.000 HD
ENDROOT
BRANCH   3   5
ATOM      5  C   UNL     1       5.455   4.172  15.368  0.00  0.00    +0.000 A 
ATOM      6  C   UNL     1       5.082   3.598  14.140  0.00  0.00    +0.000 A 
ATOM      7  C   UNL     1       5.892   3.728  13.011  0.00  0.00    +0.000 A 
ATOM      8  C   UNL     1       7.052   4.485  13.075  0.00  0.00    +0.000 A 
ATOM      9  C   UNL     1       7.414   5.082  14.283  0.00  0.00    +0.000 A 
ATOM     10  C   UNL     1       6.660   4.909  15.470  0.00  0.00    +0.000 A 
BRANCH  10  11
ATOM     11  C   UNL     1       7.178   5.504  16.735  0.00  0.00    +0.000 A 
ATOM     12  C   UNL     1       7.557   4.732  17.841  0.00  0.00    +0.000 A 
ATOM     13  C   UNL     1       8.115   5.313  18.989  0.00  0.00    +0.000 A 
ATOM     14  C   UNL     1       8.221   6.694  19.094  0.00  0.00    +0.000 A 
ATOM     15  C   UNL     1       7.776   7.495  18.054  0.00  0.00    +0.000 A 
ATOM     16  C   UNL     1       7.272   6.904  16.885  0.00  0.00    +0.000 A 
ENDBRANCH  10  11
ENDBRANCH   3   5
BRANCH   2  17
ATOM     17  O   UNL     1       3.419   4.261  18.329  0.00  0.00    +0.000 OA
BRANCH  17  18
ATOM     18  C   UNL     1       2.043   4.561  18.662  0.00  0.00    +0.000 C 
ATOM     19  C   UNL     1       1.877   5.068  20.098  0.00  0.00    +0.000 C 
ATOM     20  C   UNL     1       2.199   4.003  21.148  0.00  0.00    +0.000 C 
ATOM     21  N   UNL     1       1.581   2.696  20.924  0.00  0.00    +0.000 NA
ATOM     22  C   UNL     1       1.677   2.229  19.544  0.00  0.00    +0.000 C 
ATOM     23  C   UNL     1       1.238   3.271  18.517  0.00  0.00    +0.000 C 
ATOM     24  H   UNL     1       0.607   2.707  21.226  0.00  0.00    +0.000 HD
ENDBRANCH  17  18
ENDBRANCH   2  17
TORSDOF 4
ENDMDL
MODEL 4
REMARK VINA RESULT:      -7.7      3.910      5.978
REMARK  Name = 
REMARK  4 active torsions:
REMARK  status: ('A' for Active; 'I' for Inactive)
REMARK    1  A    between atoms: C_2  and  O_16
REMARK    2  A    between atoms: N_3  and  C_4
REMARK    3  A    between atoms: C_9  and  C_10
REMARK    4  A    between atoms: O_16  and  C_17
REMARK                            x       y       z     vdW  Elec       q    Type
REMARK                         _______ _______ _______ _____ _____    ______ ____
ROOT
ATOM      1  O   UNL     1       3.752   6.257  17.130  0.00  0.00    +0.000 OA
ATOM      2  C   UNL     1       3.917   5.096  17.469  0.00  0.00    +0.000 C 
ATOM      3  N   UNL     1       4.631   4.127  16.813  0.00  0.00    +0.000 N 
ATOM      4  H   UNL     1       4.765   3.285  17.354  0.00  0.00    +0.000 HD
ENDROOT
BRANCH   3   5
ATOM      5  C   UNL     1       5.385   4.272  15.622  0.00  0.00    +0.000 A 
ATOM      6  C   UNL     1       4.948   3.636  14.448  0.00  0.00    +0.000 A 
ATOM      7  C   UNL     1       5.706   3.687  13.277  0.00  0.00    +0.000 A 
ATOM      8  C   UNL     1       6.878   4.427  13.244  0.00  0.00    +0.000 A 
ATOM      9  C   UNL     1       7.305   5.085  14.398  0.00  0.00    +0.000 A 
ATOM     10  C   UNL     1       6.604   4.993  15.626  0.00  0.00    +0.000 A 
BRANCH  10  11
ATOM     11  C   UNL     1       7.188   5.651  16.829  0.00  0.00    +0.000 A 
ATOM     12  C   UNL     1       7.396   7.034  16.917  0.00  0.00    +0.000 A 
ATOM     13  C   UNL     1       7.873   7.635  18.091  0.00  0.00    +0.000 A 
ATOM     14  C   UNL     1       8.243   6.853  19.178  0.00  0.00    +0.000 A 
ATOM     15  C   UNL     1       8.132   5.473  19.097  0.00  0.00    +0.000 A 
ATOM     16  C   UNL     1       7.600   4.883  17.940  0.00  0.00    +0.000 A 
ENDBRANCH  10  11
ENDBRANCH   3   5
BRANCH   2  17
ATOM     17  O   UNL     1       3.439   4.563  18.629  0.00  0.00    +0.000 OA
BRANCH  17  18
ATOM     18  C   UNL     1       2.038   4.749  18.941  0.00  0.00    +0.000 C 
ATOM     19  C   UNL     1       1.789   5.005  20.431  0.00  0.00    +0.000 C 
ATOM     20  C   UNL     1       2.118   3.796  21.307  0.00  0.00    +0.000 C 
ATOM     21  N   UNL     1       1.571   2.520  20.844  0.00  0.00    +0.000 NA
ATOM     22  C   UNL     1       1.746   2.291  19.412  0.00  0.00    +0.000 C 
ATOM     23  C   UNL     1       1.301   3.470  18.549  0.00  0.00    +0.000 C 
ATOM     24  H   UNL     1       0.587   2.442  21.096  0.00  0.00    +0.000 HD
ENDBRANCH  17  18
ENDBRANCH   2  17
TORSDOF 4
ENDMDL
MODEL 5
REMARK VINA RESULT:      -7.7      4.531      6.422
REMARK  Name = 
REMARK  4 active torsions:
REMARK  status: ('A' for Active; 'I' for Inactive)
REMARK    1  A    between atoms: C_2  and  O_16
REMARK    2  A    between atoms: N_3  and  C_4
REMARK    3  A    between atoms: C_9  and  C_10
REMARK    4  A    between atoms: O_16  and  C_17
REMARK                            x       y       z     vdW  Elec       q    Type
REMARK                         _______ _______ _______ _____ _____    ______ ____
ROOT
ATOM      1  O   UNL     1       3.890   6.157  17.002  0.00  0.00    +0.000 OA
ATOM      2  C   UNL     1       3.980   4.963  17.241  0.00  0.00    +0.000 C 
ATOM      3  N   UNL     1       4.670   4.016  16.528  0.00  0.00    +0.000 N 
ATOM      4  H   UNL     1       4.737   3.125  16.996  0.00  0.00    +0.000 HD
ENDROOT
BRANCH   3   5
ATOM      5  C   UNL     1       5.479   4.224  15.383  0.00  0.00    +0.000 A 
ATOM      6  C   UNL     1       5.109   3.635  14.162  0.00  0.00    +0.000 A 
ATOM      7  C   UNL     1       5.923   3.747  13.034  0.00  0.00    +0.000 A 
ATOM      8  C   UNL     1       7.085   4.502  13.091  0.00  0.00    +0.000 A 
ATOM      9  C   UNL     1       7.444   5.114  14.293  0.00  0.00    +0.000 A 
ATOM     10  C   UNL     1       6.686   4.959  15.479  0.00  0.00    +0.000 A 
BRANCH  10  11
ATOM     11  C   UNL     1       7.201   5.570  16.738  0.00  0.00    +0.000 A 
ATOM     12  C   UNL     1       7.552   4.813  17.864  0.00  0.00    +0.000 A 
ATOM     13  C   UNL     1       8.109   5.407  19.007  0.00  0.00    +0.000 A 
ATOM     14  C   UNL     1       8.240   6.787  19.085  0.00  0.00    +0.000 A 
ATOM     15  C   UNL     1       7.823   7.576  18.023  0.00  0.00    +0.000 A 
ATOM     16  C   UNL     1       7.321   6.971  16.861  0.00  0.00    +0.000 A 
ENDBRANCH  10  11
ENDBRANCH   3   5
BRANCH   2  17
ATOM     17  O   UNL     1       3.427   4.358  18.331  0.00  0.00    +0.000 OA
BRANCH  17  18
ATOM     18  C   UNL     1       3.390   2.912  18.364  0.00  0.00    +0.000 C 
ATOM     19  C   UNL     1       1.986   2.347  18.126  0.00  0.00    +0.000 C 
ATOM     20  C   UNL     1       1.008   2.684  19.252  0.00  0.00    +0.000 C 
ATOM     21  N   UNL     1       1.504   2.437  20.606  0.00  0.00    +0.000 NA
ATOM     22  C   UNL     1       2.866   2.914  20.829  0.00  0.00    +0.000 C 
ATOM     23  C   UNL     1       3.851   2.467  19.751  0.00  0.00    +0.000 C 
ATOM     24  H   UNL     1       1.435   1.446  20.835  0.00  0.00    +0.000 HD
ENDBRANCH  17  18
ENDBRANCH   2  17
TORSDOF 4
ENDMDL
MODEL 6
REMARK VINA RESULT:      -7.7      4.345      6.261
REMARK  Name = 
REMARK  4 active torsions:
REMARK  status: ('A' for Active; 'I' for Inactive)
REMARK    1  A    between atoms: C_2  and  O_16
REMARK    2  A    between atoms: N_3  and  C_4
REMARK    3  A    between atoms: C_9  and  C_10
REMARK    4  A    between atoms: O_16  and  C_17
REMARK                            x       y       z     vdW  Elec       q    Type
REMARK                         _______ _______ _______ _____ _____    ______ ____
ROOT
ATOM      1  O   UNL     1       3.895   6.207  17.026  0.00  0.00    +0.000 OA
ATOM      2  C   UNL     1       3.968   5.015  17.277  0.00  0.00    +0.000 C 
ATOM      3  N   UNL     1       4.629   4.048  16.563  0.00  0.00    +0.000 N 
ATOM      4  H   UNL     1       4.688   3.161  17.040  0.00  0.00    +0.000 HD
ENDROOT
BRANCH   3   5
ATOM      5  C   UNL     1       5.423   4.229  15.403  0.00  0.00    +0.000 A 
ATOM      6  C   UNL     1       5.019   3.640  14.193  0.00  0.00    +0.000 A 
ATOM      7  C   UNL     1       5.817   3.726  13.050  0.00  0.00    +0.000 A 
ATOM      8  C   UNL     1       6.996   4.454  13.083  0.00  0.00    +0.000 A 
ATOM      9  C   UNL     1       7.391   5.065  14.273  0.00  0.00    +0.000 A 
ATOM     10  C   UNL     1       6.649   4.936  15.474  0.00  0.00    +0.000 A 
BRANCH  10  11
ATOM     11  C   UNL     1       7.199   5.543  16.719  0.00  0.00    +0.000 A 
ATOM     12  C   UNL     1       7.378   6.924  16.879  0.00  0.00    +0.000 A 
ATOM     13  C   UNL     1       7.823   7.474  18.090  0.00  0.00    +0.000 A 
ATOM     14  C   UNL     1       8.189   6.646  19.143  0.00  0.00    +0.000 A 
ATOM     15  C   UNL     1       8.108   5.269  18.991  0.00  0.00    +0.000 A 
ATOM     16  C   UNL     1       7.607   4.729  17.797  0.00  0.00    +0.000 A 
ENDBRANCH  10  11
ENDBRANCH   3   5
BRANCH   2  17
ATOM     17  O   UNL     1       3.422   4.431  18.382  0.00  0.00    +0.000 OA
BRANCH  17  18
ATOM     18  C   UNL     1       2.826   3.121  18.238  0.00  0.00    +0.000 C 
ATOM     19  C   UNL     1       1.306   3.135  18.423  0.00  0.00    +0.000 C 
ATOM     20  C   UNL     1       0.880   3.488  19.849  0.00  0.00    +0.000 C 
ATOM     21  N   UNL     1       1.581   2.761  20.908  0.00  0.00    +0.000 NA
ATOM     22  C   UNL     1       3.026   2.685  20.713  0.00  0.00    +0.000 C 
ATOM     23  C   UNL     1       3.427   2.218  19.314  0.00  0.00    +0.000 C 
ATOM     24  H   UNL     1       1.190   1.826  21.017  0.00  0.00    +0.000 HD
ENDBRANCH  17  18
ENDBRANCH   2  17
TORSDOF 4
ENDMDL
MODEL 7
REMARK VINA RESULT:      -7.6      1.941      3.871
REMARK  Name = 
REMARK  4 active torsions:
REMARK  status: ('A' for Active; 'I' for Inactive)
REMARK    1  A    between atoms: C_2  and  O_16
REMARK    2  A    between atoms: N_3  and  C_4
REMARK    3  A    between atoms: C_9  and  C_10
REMARK    4  A    between atoms: O_16  and  C_17
REMARK                            x       y       z     vdW  Elec       q    Type
REMARK                         _______ _______ _______ _____ _____    ______ ____
ROOT
ATOM      1  O   UNL     1       1.720   6.900  20.416  0.00  0.00    +0.000 OA
ATOM      2  C   UNL     1       2.197   7.485  19.457  0.00  0.00    +0.000 C 
ATOM      3  N   UNL     1       2.756   6.934  18.333  0.00  0.00    +0.000 N 
ATOM      4  H   UNL     1       2.941   7.603  17.601  0.00  0.00    +0.000 HD
ENDROOT
BRANCH   3   5
ATOM      5  C   UNL     1       2.853   5.557  18.009  0.00  0.00    +0.000 A 
ATOM      6  C   UNL     1       1.682   4.784  17.932  0.00  0.00    +0.000 A 
ATOM      7  C   UNL     1       1.743   3.409  17.698  0.00  0.00    +0.000 A 
ATOM      8  C   UNL     1       2.969   2.799  17.474  0.00  0.00    +0.000 A 
ATOM      9  C   UNL     1       4.133   3.566  17.521  0.00  0.00    +0.000 A 
ATOM     10  C   UNL     1       4.120   4.948  17.833  0.00  0.00    +0.000 A 
BRANCH  10  11
ATOM     11  C   UNL     1       5.421   5.663  17.957  0.00  0.00    +0.000 A 
ATOM     12  C   UNL     1       5.808   6.697  17.094  0.00  0.00    +0.000 A 
ATOM     13  C   UNL     1       7.004   7.406  17.281  0.00  0.00    +0.000 A 
ATOM     14  C   UNL     1       7.888   7.034  18.286  0.00  0.00    +0.000 A 
ATOM     15  C   UNL     1       7.579   5.959  19.106  0.00  0.00    +0.000 A 
ATOM     16  C   UNL     1       6.354   5.292  18.949  0.00  0.00    +0.000 A 
ENDBRANCH  10  11
ENDBRANCH   3   5
BRANCH   2  17
ATOM     17  O   UNL     1       2.209   8.842  19.319  0.00  0.00    +0.000 OA
BRANCH  17  18
ATOM     18  C   UNL     1       1.780   9.404  18.056  0.00  0.00    +0.000 C 
ATOM     19  C   UNL     1       2.268  10.841  17.848  0.00  0.00    +0.000 C 
ATOM     20  C   UNL     1       1.642  11.833  18.829  0.00  0.00    +0.000 C 
ATOM     21  N   UNL     1       0.189  11.735  18.975  0.00  0.00    +0.000 NA
ATOM     22  C   UNL     1      -0.297  10.364  19.112  0.00  0.00    +0.000 C 
ATOM     23  C   UNL     1       0.253   9.415  18.048  0.00  0.00    +0.000 C 
ATOM     24  H   UNL     1      -0.279  12.199  18.198  0.00  0.00    +0.000 HD
ENDBRANCH  17  18
ENDBRANCH   2  17
TORSDOF 4
ENDMDL
MODEL 8
REMARK VINA RESULT:      -7.5      1.934      3.881
REMARK  Name = 
REMARK  4 active torsions:
REMARK  status: ('A' for Active; 'I' for Inactive)
REMARK    1  A    between atoms: C_2  and  O_16
REMARK    2  A    between atoms: N_3  and  C_4
REMARK    3  A    between atoms: C_9  and  C_10
REMARK    4  A    between atoms: O_16  and  C_17
REMARK                            x       y       z     vdW  Elec       q    Type
REMARK                         _______ _______ _______ _____ _____    ______ ____
ROOT
ATOM      1  O   UNL     1       1.792   6.479  20.748  0.00  0.00    +0.000 OA
ATOM      2  C   UNL     1       2.164   7.115  19.776  0.00  0.00    +0.000 C 
ATOM      3  N   UNL     1       2.663   6.626  18.596  0.00  0.00    +0.000 N 
ATOM      4  H   UNL     1       2.757   7.325  17.874  0.00  0.00    +0.000 HD
ENDROOT
BRANCH   3   5
ATOM      5  C   UNL     1       2.804   5.266  18.221  0.00  0.00    +0.000 A 
ATOM      6  C   UNL     1       1.664   4.449  18.149  0.00  0.00    +0.000 A 
ATOM      7  C   UNL     1       1.772   3.086  17.866  0.00  0.00    +0.000 A 
ATOM      8  C   UNL     1       3.013   2.534  17.587  0.00  0.00    +0.000 A 
ATOM      9  C   UNL     1       4.148   3.345  17.630  0.00  0.00    +0.000 A 
ATOM     10  C   UNL     1       4.089   4.714  17.990  0.00  0.00    +0.000 A 
BRANCH  10  11
ATOM     11  C   UNL     1       5.364   5.476  18.102  0.00  0.00    +0.000 A 
ATOM     12  C   UNL     1       6.297   5.254  19.124  0.00  0.00    +0.000 A 
ATOM     13  C   UNL     1       7.526   5.930  19.161  0.00  0.00    +0.000 A 
ATOM     14  C   UNL     1       7.811   6.915  18.225  0.00  0.00    +0.000 A 
ATOM     15  C   UNL     1       6.875   7.224  17.249  0.00  0.00    +0.000 A 
ATOM     16  C   UNL     1       5.672   6.503  17.185  0.00  0.00    +0.000 A 
ENDBRANCH  10  11
ENDBRANCH   3   5
BRANCH   2  17
ATOM     17  O   UNL     1       2.097   8.474  19.680  0.00  0.00    +0.000 OA
BRANCH  17  18
ATOM     18  C   UNL     1       0.949   9.056  19.020  0.00  0.00    +0.000 C 
ATOM     19  C   UNL     1       1.335  10.050  17.920  0.00  0.00    +0.000 C 
ATOM     20  C   UNL     1       2.020  11.305  18.463  0.00  0.00    +0.000 C 
ATOM     21  N   UNL     1       1.353  11.939  19.601  0.00  0.00    +0.000 NA
ATOM     22  C   UNL     1       0.923  10.995  20.630  0.00  0.00    +0.000 C 
ATOM     23  C   UNL     1       0.139   9.807  20.075  0.00  0.00    +0.000 C 
ATOM     24  H   UNL     1       0.564  12.500  19.284  0.00  0.00    +0.000 HD
ENDBRANCH  17  18
ENDBRANCH   2  17
TORSDOF 4
ENDMDL
MODEL 9
REMARK VINA RESULT:      -7.3      5.024      8.000
REMARK  Name = 
REMARK  4 active torsions:
REMARK  status: ('A' for Active; 'I' for Inactive)
REMARK    1  A    between atoms: C_2  and  O_16
REMARK    2  A    between atoms: N_3  and  C_4
REMARK    3  A    between atoms: C_9  and  C_10
REMARK    4  A    between atoms: O_16  and  C_17
REMARK                            x       y       z     vdW  Elec       q    Type
REMARK                         _______ _______ _______ _____ _____    ______ ____
ROOT
ATOM      1  O   UNL     1       6.579   5.489  14.400  0.00  0.00    +0.000 OA
ATOM      2  C   UNL     1       6.221   4.359  14.689  0.00  0.00    +0.000 C 
ATOM      3  N   UNL     1       6.150   3.797  15.938  0.00  0.00    +0.000 N 
ATOM      4  H   UNL     1       5.677   2.906  15.956  0.00  0.00    +0.000 HD
ENDROOT
BRANCH   3   5
ATOM      5  C   UNL     1       6.423   4.425  17.179  0.00  0.00    +0.000 A 
ATOM      6  C   UNL     1       7.724   4.884  17.447  0.00  0.00    +0.000 A 
ATOM      7  C   UNL     1       8.052   5.431  18.689  0.00  0.00    +0.000 A 
ATOM      8  C   UNL     1       7.072   5.586  19.657  0.00  0.00    +0.000 A 
ATOM      9  C   UNL     1       5.771   5.158  19.388  0.00  0.00    +0.000 A 
ATOM     10  C   UNL     1       5.417   4.527  18.171  0.00  0.00    +0.000 A 
BRANCH  10  11
ATOM     11  C   UNL     1       4.026   4.015  18.012  0.00  0.00    +0.000 A 
ATOM     12  C   UNL     1       3.712   2.649  18.007  0.00  0.00    +0.000 A 
ATOM     13  C   UNL     1       2.386   2.197  17.936  0.00  0.00    +0.000 A 
ATOM     14  C   UNL     1       1.346   3.103  17.775  0.00  0.00    +0.000 A 
ATOM     15  C   UNL     1       1.625   4.458  17.689  0.00  0.00    +0.000 A 
ATOM     16  C   UNL     1       2.949   4.906  17.819  0.00  0.00    +0.000 A 
ENDBRANCH  10  11
ENDBRANCH   3   5
BRANCH   2  17
ATOM     17  O   UNL     1       5.767   3.446  13.784  0.00  0.00    +0.000 OA
BRANCH  17  18
ATOM     18  C   UNL     1       5.630   3.861  12.404  0.00  0.00    +0.000 C 
ATOM     19  C   UNL     1       4.779   2.894  11.574  0.00  0.00    +0.000 C 
ATOM     20  C   UNL     1       5.435   1.524  11.396  0.00  0.00    +0.000 C 
ATOM     21  N   UNL     1       6.839   1.551  10.986  0.00  0.00    +0.000 NA
ATOM     22  C   UNL     1       7.650   2.514  11.727  0.00  0.00    +0.000 C 
ATOM     23  C   UNL     1       7.029   3.909  11.793  0.00  0.00    +0.000 C 
ATOM     24  H   UNL     1       6.915   1.724   9.984  0.00  0.00    +0.000 HD
ENDBRANCH  17  18
ENDBRANCH   2  17
TORSDOF 4
ENDMDL
