MODEL 1
REMARK VINA RESULT:      -8.6      0.000      0.000
REMARK  Name = 
REMARK  6 active torsions:
REMARK  status: ('A' for Active; 'I' for Inactive)
REMARK    1  A    between atoms: C_1  and  C_2
REMARK    2  A    between atoms: C_6  and  N_7
REMARK    3  A    between atoms: C_8  and  C_10
REMARK    4  A    between atoms: C_11  and  N_12
REMARK    5  A    between atoms: N_12  and  O_13
REMARK    6  A    between atoms: C_15  and  C_16
REMARK                            x       y       z     vdW  Elec       q    Type
REMARK                         _______ _______ _______ _____ _____    ______ ____
ROOT
ATOM      1  C   UNL     1       6.768   6.337  18.112  0.00  0.00    +0.000 A 
ATOM      2  C   UNL     1       7.872   6.458  18.890  0.00  0.00    +0.000 A 
ATOM      3  C   UNL     1       8.572   7.722  18.901  0.00  0.00    +0.000 A 
ATOM      4  C   UNL     1       8.163   8.747  18.149  0.00  0.00    +0.000 A 
ATOM      5  O   UNL     1       7.055   8.626  17.292  0.00  0.00    +0.000 OA
ATOM      6  C   UNL     1       6.368   7.445  17.216  0.00  0.00    +0.000 A 
ATOM      7  O   UNL     1       5.447   7.303  16.413  0.00  0.00    +0.000 OA
ENDROOT
BRANCH   4   8
ATOM      8  C   UNL     1       8.805  10.076  18.204  0.00  0.00    +0.000 A 
ATOM      9  C   UNL     1       8.244  11.186  17.548  0.00  0.00    +0.000 A 
ATOM     10  C   UNL     1       8.875  12.431  17.571  0.00  0.00    +0.000 A 
ATOM     11  C   UNL     1      10.073  12.590  18.262  0.00  0.00    +0.000 A 
ATOM     12  C   UNL     1      10.636  11.504  18.931  0.00  0.00    +0.000 A 
ATOM     13  C   UNL     1      10.007  10.256  18.904  0.00  0.00    +0.000 A 
ENDBRANCH   4   8
BRANCH   1  15
ATOM     14  N   UNL     1       4.657   5.152  18.533  0.00  0.00    +0.000 N 
ATOM     15  C   UNL     1       5.992   5.054  18.194  0.00  0.00    +0.000 C 
ATOM     16  O   UNL     1       6.583   3.990  17.992  0.00  0.00    +0.000 OA
ATOM     17  H   UNL     1       4.317   6.062  18.846  0.00  0.00    +0.000 HD
BRANCH  14  23
ATOM     18  C   UNL     1       1.499   2.534  21.295  0.00  0.00    +0.000 C 
ATOM     19  C   UNL     1       2.183   2.780  19.982  0.00  0.00    +0.000 A 
ATOM     20  C   UNL     1       1.967   1.911  18.908  0.00  0.00    +0.000 A 
ATOM     21  C   UNL     1       2.609   2.130  17.695  0.00  0.00    +0.000 A 
ATOM     22  C   UNL     1       3.485   3.206  17.552  0.00  0.00    +0.000 A 
ATOM     23  C   UNL     1       3.743   4.072  18.617  0.00  0.00    +0.000 A 
ATOM     24  C   UNL     1       3.066   3.866  19.830  0.00  0.00    +0.000 A 
ENDBRANCH  14  23
ENDBRANCH   1  15
BRANCH   2  25
ATOM     25  N   UNL     1       8.389   5.450  19.698  0.00  0.00    +0.000 N 
ATOM     26  H   UNL     1       8.427   4.529  19.231  0.00  0.00    +0.000 HD
BRANCH  25  27
ATOM     27  O   UNL     1       8.134   5.403  21.063  0.00  0.00    +0.000 OA
ATOM     28  H   UNL     1       8.000   4.449  21.224  0.00  0.00    +0.000 HD
ENDBRANCH  25  27
ENDBRANCH   2  25
TORSDOF 5
ENDMDL
MODEL 2
REMARK VINA RESULT:      -8.4      5.326      7.308
REMARK  Name = 
REMARK  6 active torsions:
REMARK  status: ('A' for Active; 'I' for Inactive)
REMARK    1  A    between atoms: C_1  and  C_2
REMARK    2  A    between atoms: C_6  and  N_7
REMARK    3  A    between atoms: C_8  and  C_10
REMARK    4  A    between atoms: C_11  and  N_12
REMARK    5  A    between atoms: N_12  and  O_13
REMARK    6  A    between atoms: C_15  and  C_16
REMARK                            x       y       z     vdW  Elec       q    Type
REMARK                         _______ _______ _______ _____ _____    ______ ____
ROOT
ATOM      1  C   UNL     1       2.370   7.397  18.991  0.00  0.00    +0.000 A 
ATOM      2  C   UNL     1       1.971   7.098  20.252  0.00  0.00    +0.000 A 
ATOM      3  C   UNL     1       1.128   8.041  20.949  0.00  0.00    +0.000 A 
ATOM      4  C   UNL     1       0.762   9.194  20.384  0.00  0.00    +0.000 A 
ATOM      5  O   UNL     1       1.211   9.551  19.100  0.00  0.00    +0.000 OA
ATOM      6  C   UNL     1       2.036   8.712  18.400  0.00  0.00    +0.000 A 
ATOM      7  O   UNL     1       2.498   9.048  17.311  0.00  0.00    +0.000 OA
ENDROOT
BRANCH   4   8
ATOM      8  C   UNL     1      -0.168  10.137  21.037  0.00  0.00    +0.000 A 
ATOM      9  C   UNL     1      -0.862  11.110  20.296  0.00  0.00    +0.000 A 
ATOM     10  C   UNL     1      -1.710  12.025  20.923  0.00  0.00    +0.000 A 
ATOM     11  C   UNL     1      -1.888  11.973  22.303  0.00  0.00    +0.000 A 
ATOM     12  C   UNL     1      -1.219  11.006  23.052  0.00  0.00    +0.000 A 
ATOM     13  C   UNL     1      -0.366  10.094  22.424  0.00  0.00    +0.000 A 
ENDBRANCH   4   8
BRANCH   1  15
ATOM     14  N   UNL     1       4.419   6.721  17.814  0.00  0.00    +0.000 N 
ATOM     15  C   UNL     1       3.156   6.360  18.242  0.00  0.00    +0.000 C 
ATOM     16  O   UNL     1       2.632   5.266  18.019  0.00  0.00    +0.000 OA
ATOM     17  H   UNL     1       4.682   7.703  17.902  0.00  0.00    +0.000 HD
BRANCH  14  23
ATOM     18  C   UNL     1       5.552   4.193  13.717  0.00  0.00    +0.000 C 
ATOM     19  C   UNL     1       5.895   4.631  15.112  0.00  0.00    +0.000 A 
ATOM     20  C   UNL     1       7.051   4.148  15.732  0.00  0.00    +0.000 A 
ATOM     21  C   UNL     1       7.363   4.543  17.028  0.00  0.00    +0.000 A 
ATOM     22  C   UNL     1       6.513   5.406  17.719  0.00  0.00    +0.000 A 
ATOM     23  C   UNL     1       5.335   5.878  17.136  0.00  0.00    +0.000 A 
ATOM     24  C   UNL     1       5.042   5.503  15.815  0.00  0.00    +0.000 A 
ENDBRANCH  14  23
ENDBRANCH   1  15
BRANCH   2  25
ATOM     25  N   UNL     1       2.306   5.933  20.936  0.00  0.00    +0.000 N 
ATOM     26  H   UNL     1       3.326   5.787  21.023  0.00  0.00    +0.000 HD
BRANCH  25  27
ATOM     27  O   UNL     1       1.558   4.769  20.810  0.00  0.00    +0.000 OA
ATOM     28  H   UNL     1       2.197   4.074  21.057  0.00  0.00    +0.000 HD
ENDBRANCH  25  27
ENDBRANCH   2  25
TORSDOF 5
ENDMDL
MODEL 3
REMARK VINA RESULT:      -8.0      5.609      7.549
REMARK  Name = 
REMARK  6 active torsions:
REMARK  status: ('A' for Active; 'I' for Inactive)
REMARK    1  A    between atoms: C_1  and  C_2
REMARK    2  A    between atoms: C_6  and  N_7
REMARK    3  A    between atoms: C_8  and  C_10
REMARK    4  A    between atoms: C_11  and  N_12
REMARK    5  A    between atoms: N_12  and  O_13
REMARK    6  A    between atoms: C_15  and  C_16
REMARK                            x       y       z     vdW  Elec       q    Type
REMARK                         _______ _______ _______ _____ _____    ______ ____
ROOT
ATOM      1  C   UNL     1       2.080   7.882  19.003  0.00  0.00    +0.000 A 
ATOM      2  C   UNL     1       1.724   7.561  20.272  0.00  0.00    +0.000 A 
ATOM      3  C   UNL     1       0.885   8.481  21.004  0.00  0.00    +0.000 A 
ATOM      4  C   UNL     1       0.482   9.634  20.463  0.00  0.00    +0.000 A 
ATOM      5  O   UNL     1       0.887  10.013  19.171  0.00  0.00    +0.000 OA
ATOM      6  C   UNL     1       1.705   9.197  18.438  0.00  0.00    +0.000 A 
ATOM      7  O   UNL     1       2.128   9.553  17.339  0.00  0.00    +0.000 OA
ENDROOT
BRANCH   4   8
ATOM      8  C   UNL     1      -0.445  10.553  21.154  0.00  0.00    +0.000 A 
ATOM      9  C   UNL     1      -0.657  10.469  22.542  0.00  0.00    +0.000 A 
ATOM     10  C   UNL     1      -1.564  11.315  23.184  0.00  0.00    +0.000 A 
ATOM     11  C   UNL     1      -2.264  12.268  22.450  0.00  0.00    +0.000 A 
ATOM     12  C   UNL     1      -2.056  12.375  21.076  0.00  0.00    +0.000 A 
ATOM     13  C   UNL     1      -1.152  11.525  20.432  0.00  0.00    +0.000 A 
ENDBRANCH   4   8
BRANCH   1  15
ATOM     14  N   UNL     1       4.098   7.261  17.745  0.00  0.00    +0.000 N 
ATOM     15  C   UNL     1       2.862   6.867  18.219  0.00  0.00    +0.000 C 
ATOM     16  O   UNL     1       2.356   5.761  18.012  0.00  0.00    +0.000 OA
ATOM     17  H   UNL     1       4.340   8.249  17.827  0.00  0.00    +0.000 HD
BRANCH  14  23
ATOM     18  C   UNL     1       8.108   4.369  17.837  0.00  0.00    +0.000 C 
ATOM     19  C   UNL     1       6.988   5.015  17.075  0.00  0.00    +0.000 A 
ATOM     20  C   UNL     1       6.908   4.863  15.688  0.00  0.00    +0.000 A 
ATOM     21  C   UNL     1       5.878   5.470  14.978  0.00  0.00    +0.000 A 
ATOM     22  C   UNL     1       4.934   6.249  15.647  0.00  0.00    +0.000 A 
ATOM     23  C   UNL     1       5.008   6.444  17.028  0.00  0.00    +0.000 A 
ATOM     24  C   UNL     1       6.030   5.801  17.744  0.00  0.00    +0.000 A 
ENDBRANCH  14  23
ENDBRANCH   1  15
BRANCH   2  25
ATOM     25  N   UNL     1       2.100   6.396  20.932  0.00  0.00    +0.000 N 
ATOM     26  H   UNL     1       3.124   6.280  21.010  0.00  0.00    +0.000 HD
BRANCH  25  27
ATOM     27  O   UNL     1       1.387   5.212  20.791  0.00  0.00    +0.000 OA
ATOM     28  H   UNL     1       2.016   4.637  20.313  0.00  0.00    +0.000 HD
ENDBRANCH  25  27
ENDBRANCH   2  25
TORSDOF 5
ENDMDL
MODEL 4
REMARK VINA RESULT:      -7.7      7.323      9.286
REMARK  Name = 
REMARK  6 active torsions:
REMARK  status: ('A' for Active; 'I' for Inactive)
REMARK    1  A    between atoms: C_1  and  C_2
REMARK    2  A    between atoms: C_6  and  N_7
REMARK    3  A    between atoms: C_8  and  C_10
REMARK    4  A    between atoms: C_11  and  N_12
REMARK    5  A    between atoms: N_12  and  O_13
REMARK    6  A    between atoms: C_15  and  C_16
REMARK                            x       y       z     vdW  Elec       q    Type
REMARK                         _______ _______ _______ _____ _____    ______ ____
ROOT
ATOM      1  C   UNL     1       0.831   9.818  19.792  0.00  0.00    +0.000 A 
ATOM      2  C   UNL     1       1.460  10.055  18.615  0.00  0.00    +0.000 A 
ATOM      3  C   UNL     1       2.263   9.001  18.040  0.00  0.00    +0.000 A 
ATOM      4  C   UNL     1       2.407   7.825  18.654  0.00  0.00    +0.000 A 
ATOM      5  O   UNL     1       1.810   7.577  19.903  0.00  0.00    +0.000 OA
ATOM      6  C   UNL     1       1.061   8.547  20.513  0.00  0.00    +0.000 A 
ATOM      7  O   UNL     1       0.600   8.371  21.640  0.00  0.00    +0.000 OA
ENDROOT
BRANCH   4   8
ATOM      8  C   UNL     1       3.149   6.700  18.050  0.00  0.00    +0.000 A 
ATOM      9  C   UNL     1       4.317   6.916  17.298  0.00  0.00    +0.000 A 
ATOM     10  C   UNL     1       4.994   5.853  16.696  0.00  0.00    +0.000 A 
ATOM     11  C   UNL     1       4.519   4.553  16.848  0.00  0.00    +0.000 A 
ATOM     12  C   UNL     1       3.370   4.319  17.602  0.00  0.00    +0.000 A 
ATOM     13  C   UNL     1       2.690   5.383  18.200  0.00  0.00    +0.000 A 
ENDBRANCH   4   8
BRANCH   1  15
ATOM     14  N   UNL     1       0.022  11.188  21.666  0.00  0.00    +0.000 N 
ATOM     15  C   UNL     1      -0.085  10.884  20.322  0.00  0.00    +0.000 C 
ATOM     16  O   UNL     1      -0.897  11.404  19.553  0.00  0.00    +0.000 OA
ATOM     17  H   UNL     1       0.603  10.578  22.241  0.00  0.00    +0.000 HD
BRANCH  14  23
ATOM     18  C   UNL     1      -4.003  12.397  24.272  0.00  0.00    +0.000 C 
ATOM     19  C   UNL     1      -2.700  12.786  23.636  0.00  0.00    +0.000 A 
ATOM     20  C   UNL     1      -2.280  14.119  23.663  0.00  0.00    +0.000 A 
ATOM     21  C   UNL     1      -1.080  14.484  23.064  0.00  0.00    +0.000 A 
ATOM     22  C   UNL     1      -0.302  13.523  22.418  0.00  0.00    +0.000 A 
ATOM     23  C   UNL     1      -0.713  12.190  22.348  0.00  0.00    +0.000 A 
ATOM     24  C   UNL     1      -1.909  11.821  22.984  0.00  0.00    +0.000 A 
ENDBRANCH  14  23
ENDBRANCH   1  15
BRANCH   2  25
ATOM     25  N   UNL     1       1.387  11.247  17.901  0.00  0.00    +0.000 N 
ATOM     26  H   UNL     1       0.609  11.270  17.220  0.00  0.00    +0.000 HD
BRANCH  25  27
ATOM     27  O   UNL     1       2.527  11.937  17.508  0.00  0.00    +0.000 OA
ATOM     28  H   UNL     1       2.540  11.800  16.542  0.00  0.00    +0.000 HD
ENDBRANCH  25  27
ENDBRANCH   2  25
TORSDOF 5
ENDMDL
MODEL 5
REMARK VINA RESULT:      -7.7      7.525      9.504
REMARK  Name = 
REMARK  6 active torsions:
REMARK  status: ('A' for Active; 'I' for Inactive)
REMARK    1  A    between atoms: C_1  and  C_2
REMARK    2  A    between atoms: C_6  and  N_7
REMARK    3  A    between atoms: C_8  and  C_10
REMARK    4  A    between atoms: C_11  and  N_12
REMARK    5  A    between atoms: N_12  and  O_13
REMARK    6  A    between atoms: C_15  and  C_16
REMARK                            x       y       z     vdW  Elec       q    Type
REMARK                         _______ _______ _______ _____ _____    ______ ____
ROOT
ATOM      1  C   UNL     1       0.498   9.703  19.978  0.00  0.00    +0.000 A 
ATOM      2  C   UNL     1       0.735   9.792  18.646  0.00  0.00    +0.000 A 
ATOM      3  C   UNL     1       1.588   8.801  18.031  0.00  0.00    +0.000 A 
ATOM      4  C   UNL     1       2.153   7.828  18.751  0.00  0.00    +0.000 A 
ATOM      5  O   UNL     1       1.967   7.751  20.143  0.00  0.00    +0.000 OA
ATOM      6  C   UNL     1       1.193   8.678  20.787  0.00  0.00    +0.000 A 
ATOM      7  O   UNL     1       1.087   8.666  22.013  0.00  0.00    +0.000 OA
ENDROOT
BRANCH   4   8
ATOM      8  C   UNL     1       2.957   6.753  18.138  0.00  0.00    +0.000 A 
ATOM      9  C   UNL     1       2.577   5.403  18.246  0.00  0.00    +0.000 A 
ATOM     10  C   UNL     1       3.362   4.387  17.697  0.00  0.00    +0.000 A 
ATOM     11  C   UNL     1       4.535   4.705  17.020  0.00  0.00    +0.000 A 
ATOM     12  C   UNL     1       4.921   6.039  16.891  0.00  0.00    +0.000 A 
ATOM     13  C   UNL     1       4.138   7.056  17.444  0.00  0.00    +0.000 A 
ENDBRANCH   4   8
BRANCH   1  15
ATOM     14  N   UNL     1      -0.121  11.245  21.788  0.00  0.00    +0.000 N 
ATOM     15  C   UNL     1      -0.474  10.675  20.581  0.00  0.00    +0.000 C 
ATOM     16  O   UNL     1      -1.539  10.888  19.996  0.00  0.00    +0.000 OA
ATOM     17  H   UNL     1       0.699  10.867  22.264  0.00  0.00    +0.000 HD
BRANCH  14  23
ATOM     18  C   UNL     1      -4.184  12.327  24.392  0.00  0.00    +0.000 C 
ATOM     19  C   UNL     1      -2.878  12.749  23.783  0.00  0.00    +0.000 A 
ATOM     20  C   UNL     1      -2.471  14.085  23.859  0.00  0.00    +0.000 A 
ATOM     21  C   UNL     1      -1.269  14.481  23.285  0.00  0.00    +0.000 A 
ATOM     22  C   UNL     1      -0.475  13.550  22.615  0.00  0.00    +0.000 A 
ATOM     23  C   UNL     1      -0.872  12.216  22.496  0.00  0.00    +0.000 A 
ATOM     24  C   UNL     1      -2.070  11.815  23.107  0.00  0.00    +0.000 A 
ENDBRANCH  14  23
ENDBRANCH   1  15
BRANCH   2  25
ATOM     25  N   UNL     1       0.209  10.770  17.808  0.00  0.00    +0.000 N 
ATOM     26  H   UNL     1       0.412  11.733  18.124  0.00  0.00    +0.000 HD
BRANCH  25  27
ATOM     27  O   UNL     1      -1.017  10.610  17.175  0.00  0.00    +0.000 OA
ATOM     28  H   UNL     1      -0.841   9.887  16.543  0.00  0.00    +0.000 HD
ENDBRANCH  25  27
ENDBRANCH   2  25
TORSDOF 5
ENDMDL
MODEL 6
REMARK VINA RESULT:      -7.7      7.029      9.089
REMARK  Name = 
REMARK  6 active torsions:
REMARK  status: ('A' for Active; 'I' for Inactive)
REMARK    1  A    between atoms: C_1  and  C_2
REMARK    2  A    between atoms: C_6  and  N_7
REMARK    3  A    between atoms: C_8  and  C_10
REMARK    4  A    between atoms: C_11  and  N_12
REMARK    5  A    between atoms: N_12  and  O_13
REMARK    6  A    between atoms: C_15  and  C_16
REMARK                            x       y       z     vdW  Elec       q    Type
REMARK                         _______ _______ _______ _____ _____    ______ ____
ROOT
ATOM      1  C   UNL     1       1.044   9.532  19.587  0.00  0.00    +0.000 A 
ATOM      2  C   UNL     1       1.642   9.715  18.384  0.00  0.00    +0.000 A 
ATOM      3  C   UNL     1       2.430   8.635  17.836  0.00  0.00    +0.000 A 
ATOM      4  C   UNL     1       2.592   7.488  18.501  0.00  0.00    +0.000 A 
ATOM      5  O   UNL     1       2.029   7.299  19.775  0.00  0.00    +0.000 OA
ATOM      6  C   UNL     1       1.295   8.296  20.359  0.00  0.00    +0.000 A 
ATOM      7  O   UNL     1       0.864   8.171  21.505  0.00  0.00    +0.000 OA
ENDROOT
BRANCH   4   8
ATOM      8  C   UNL     1       3.319   6.337  17.930  0.00  0.00    +0.000 A 
ATOM      9  C   UNL     1       2.834   5.024  18.069  0.00  0.00    +0.000 A 
ATOM     10  C   UNL     1       3.545   3.935  17.561  0.00  0.00    +0.000 A 
ATOM     11  C   UNL     1       4.748   4.143  16.893  0.00  0.00    +0.000 A 
ATOM     12  C   UNL     1       5.237   5.438  16.732  0.00  0.00    +0.000 A 
ATOM     13  C   UNL     1       4.528   6.528  17.245  0.00  0.00    +0.000 A 
ENDBRANCH   4   8
BRANCH   1  15
ATOM     14  N   UNL     1       0.295  10.998  21.412  0.00  0.00    +0.000 N 
ATOM     15  C   UNL     1       0.142  10.621  20.091  0.00  0.00    +0.000 C 
ATOM     16  O   UNL     1      -0.701  11.096  19.325  0.00  0.00    +0.000 OA
ATOM     17  H   UNL     1       0.900  10.423  21.997  0.00  0.00    +0.000 HD
BRANCH  14  23
ATOM     18  C   UNL     1      -3.675  12.343  24.038  0.00  0.00    +0.000 C 
ATOM     19  C   UNL     1      -2.381  12.696  23.363  0.00  0.00    +0.000 A 
ATOM     20  C   UNL     1      -1.952  14.026  23.327  0.00  0.00    +0.000 A 
ATOM     21  C   UNL     1      -0.760  14.357  22.691  0.00  0.00    +0.000 A 
ATOM     22  C   UNL     1      -0.000  13.365  22.072  0.00  0.00    +0.000 A 
ATOM     23  C   UNL     1      -0.421  12.033  22.065  0.00  0.00    +0.000 A 
ATOM     24  C   UNL     1      -1.608  11.699  22.737  0.00  0.00    +0.000 A 
ENDBRANCH  14  23
ENDBRANCH   1  15
BRANCH   2  25
ATOM     25  N   UNL     1       1.548  10.872  17.617  0.00  0.00    +0.000 N 
ATOM     26  H   UNL     1       1.113  10.717  16.692  0.00  0.00    +0.000 HD
BRANCH  25  27
ATOM     27  O   UNL     1       2.536  11.849  17.642  0.00  0.00    +0.000 OA
ATOM     28  H   UNL     1       3.069  11.597  18.421  0.00  0.00    +0.000 HD
ENDBRANCH  25  27
ENDBRANCH   2  25
TORSDOF 5
ENDMDL
MODEL 7
REMARK VINA RESULT:      -7.6      6.817      8.995
REMARK  Name = 
REMARK  6 active torsions:
REMARK  status: ('A' for Active; 'I' for Inactive)
REMARK    1  A    between atoms: C_1  and  C_2
REMARK    2  A    between atoms: C_6  and  N_7
REMARK    3  A    between atoms: C_8  and  C_10
REMARK    4  A    between atoms: C_11  and  N_12
REMARK    5  A    between atoms: N_12  and  O_13
REMARK    6  A    between atoms: C_15  and  C_16
REMARK                            x       y       z     vdW  Elec       q    Type
REMARK                         _______ _______ _______ _____ _____    ______ ____
ROOT
ATOM      1  C   UNL     1       1.104   9.252  19.551  0.00  0.00    +0.000 A 
ATOM      2  C   UNL     1       1.657   9.529  18.344  0.00  0.00    +0.000 A 
ATOM      3  C   UNL     1       2.519   8.540  17.739  0.00  0.00    +0.000 A 
ATOM      4  C   UNL     1       2.790   7.386  18.355  0.00  0.00    +0.000 A 
ATOM      5  O   UNL     1       2.274   7.103  19.632  0.00  0.00    +0.000 OA
ATOM      6  C   UNL     1       1.474   8.013  20.269  0.00  0.00    +0.000 A 
ATOM      7  O   UNL     1       1.082   7.810  21.417  0.00  0.00    +0.000 OA
ENDROOT
BRANCH   4   8
ATOM      8  C   UNL     1       3.596   6.322  17.725  0.00  0.00    +0.000 A 
ATOM      9  C   UNL     1       3.263   4.964  17.880  0.00  0.00    +0.000 A 
ATOM     10  C   UNL     1       4.051   3.960  17.314  0.00  0.00    +0.000 A 
ATOM     11  C   UNL     1       5.180   4.298  16.572  0.00  0.00    +0.000 A 
ATOM     12  C   UNL     1       5.517   5.639  16.396  0.00  0.00    +0.000 A 
ATOM     13  C   UNL     1       4.731   6.644  16.966  0.00  0.00    +0.000 A 
ENDBRANCH   4   8
BRANCH   1  15
ATOM     14  N   UNL     1       0.416  10.765  21.361  0.00  0.00    +0.000 N 
ATOM     15  C   UNL     1       0.127  10.243  20.116  0.00  0.00    +0.000 C 
ATOM     16  O   UNL     1      -0.886  10.512  19.466  0.00  0.00    +0.000 OA
ATOM     17  H   UNL     1       1.188  10.345  21.880  0.00  0.00    +0.000 HD
BRANCH  14  23
ATOM     18  C   UNL     1      -0.233  15.532  22.509  0.00  0.00    +0.000 C 
ATOM     19  C   UNL     1      -0.668  14.099  22.611  0.00  0.00    +0.000 A 
ATOM     20  C   UNL     1      -1.751  13.753  23.424  0.00  0.00    +0.000 A 
ATOM     21  C   UNL     1      -2.148  12.425  23.529  0.00  0.00    +0.000 A 
ATOM     22  C   UNL     1      -1.453  11.432  22.840  0.00  0.00    +0.000 A 
ATOM     23  C   UNL     1      -0.347  11.744  22.046  0.00  0.00    +0.000 A 
ATOM     24  C   UNL     1       0.028  13.091  21.916  0.00  0.00    +0.000 A 
ENDBRANCH  14  23
ENDBRANCH   1  15
BRANCH   2  25
ATOM     25  N   UNL     1       1.451  10.702  17.626  0.00  0.00    +0.000 N 
ATOM     26  H   UNL     1       0.716  10.617  16.903  0.00  0.00    +0.000 HD
BRANCH  25  27
ATOM     27  O   UNL     1       2.498  11.553  17.296  0.00  0.00    +0.000 OA
ATOM     28  H   UNL     1       3.078  11.496  18.079  0.00  0.00    +0.000 HD
ENDBRANCH  25  27
ENDBRANCH   2  25
TORSDOF 5
ENDMDL
MODEL 8
REMARK VINA RESULT:      -7.6      7.274      9.401
REMARK  Name = 
REMARK  6 active torsions:
REMARK  status: ('A' for Active; 'I' for Inactive)
REMARK    1  A    between atoms: C_1  and  C_2
REMARK    2  A    between atoms: C_6  and  N_7
REMARK    3  A    between atoms: C_8  and  C_10
REMARK    4  A    between atoms: C_11  and  N_12
REMARK    5  A    between atoms: N_12  and  O_13
REMARK    6  A    between atoms: C_15  and  C_16
REMARK                            x       y       z     vdW  Elec       q    Type
REMARK                         _______ _______ _______ _____ _____    ______ ____
ROOT
ATOM      1  C   UNL     1       1.243   9.724  19.860  0.00  0.00    +0.000 A 
ATOM      2  C   UNL     1       1.644   9.745  18.565  0.00  0.00    +0.000 A 
ATOM      3  C   UNL     1       2.194   8.536  17.996  0.00  0.00    +0.000 A 
ATOM      4  C   UNL     1       2.332   7.426  18.726  0.00  0.00    +0.000 A 
ATOM      5  O   UNL     1       1.976   7.399  20.086  0.00  0.00    +0.000 OA
ATOM      6  C   UNL     1       1.476   8.521  20.689  0.00  0.00    +0.000 A 
ATOM      7  O   UNL     1       1.235   8.533  21.896  0.00  0.00    +0.000 OA
ENDROOT
BRANCH   4   8
ATOM      8  C   UNL     1       2.810   6.153  18.150  0.00  0.00    +0.000 A 
ATOM      9  C   UNL     1       4.087   6.048  17.570  0.00  0.00    +0.000 A 
ATOM     10  C   UNL     1       4.519   4.853  16.992  0.00  0.00    +0.000 A 
ATOM     11  C   UNL     1       3.686   3.738  16.996  0.00  0.00    +0.000 A 
ATOM     12  C   UNL     1       2.422   3.820  17.579  0.00  0.00    +0.000 A 
ATOM     13  C   UNL     1       1.987   5.018  18.153  0.00  0.00    +0.000 A 
ENDBRANCH   4   8
BRANCH   1  15
ATOM     14  N   UNL     1      -0.656  10.782  21.006  0.00  0.00    +0.000 N 
ATOM     15  C   UNL     1       0.575  10.954  20.404  0.00  0.00    +0.000 C 
ATOM     16  O   UNL     1       1.133  12.045  20.259  0.00  0.00    +0.000 OA
ATOM     17  H   UNL     1      -1.099   9.867  20.917  0.00  0.00    +0.000 HD
BRANCH  14  23
ATOM     18  C   UNL     1      -4.389  14.007  20.660  0.00  0.00    +0.000 C 
ATOM     19  C   UNL     1      -3.270  13.392  21.451  0.00  0.00    +0.000 A 
ATOM     20  C   UNL     1      -2.966  13.878  22.726  0.00  0.00    +0.000 A 
ATOM     21  C   UNL     1      -1.923  13.318  23.454  0.00  0.00    +0.000 A 
ATOM     22  C   UNL     1      -1.165  12.284  22.906  0.00  0.00    +0.000 A 
ATOM     23  C   UNL     1      -1.426  11.800  21.622  0.00  0.00    +0.000 A 
ATOM     24  C   UNL     1      -2.502  12.346  20.904  0.00  0.00    +0.000 A 
ENDBRANCH  14  23
ENDBRANCH   1  15
BRANCH   2  25
ATOM     25  N   UNL     1       1.558  10.849  17.723  0.00  0.00    +0.000 N 
ATOM     26  H   UNL     1       1.023  10.665  16.858  0.00  0.00    +0.000 HD
BRANCH  25  27
ATOM     27  O   UNL     1       2.610  11.745  17.580  0.00  0.00    +0.000 OA
ATOM     28  H   UNL     1       2.337  12.276  16.808  0.00  0.00    +0.000 HD
ENDBRANCH  25  27
ENDBRANCH   2  25
TORSDOF 5
ENDMDL
MODEL 9
REMARK VINA RESULT:      -7.5      5.262      7.166
REMARK  Name = 
REMARK  6 active torsions:
REMARK  status: ('A' for Active; 'I' for Inactive)
REMARK    1  A    between atoms: C_1  and  C_2
REMARK    2  A    between atoms: C_6  and  N_7
REMARK    3  A    between atoms: C_8  and  C_10
REMARK    4  A    between atoms: C_11  and  N_12
REMARK    5  A    between atoms: N_12  and  O_13
REMARK    6  A    between atoms: C_15  and  C_16
REMARK                            x       y       z     vdW  Elec       q    Type
REMARK                         _______ _______ _______ _____ _____    ______ ____
ROOT
ATOM      1  C   UNL     1       2.258   7.181  18.925  0.00  0.00    +0.000 A 
ATOM      2  C   UNL     1       1.974   6.880  20.216  0.00  0.00    +0.000 A 
ATOM      3  C   UNL     1       1.339   7.887  21.034  0.00  0.00    +0.000 A 
ATOM      4  C   UNL     1       1.055   9.098  20.547  0.00  0.00    +0.000 A 
ATOM      5  O   UNL     1       1.393   9.451  19.228  0.00  0.00    +0.000 OA
ATOM      6  C   UNL     1       2.022   8.548  18.413  0.00  0.00    +0.000 A 
ATOM      7  O   UNL     1       2.392   8.871  17.286  0.00  0.00    +0.000 OA
ENDROOT
BRANCH   4   8
ATOM      8  C   UNL     1       0.330  10.118  21.331  0.00  0.00    +0.000 A 
ATOM      9  C   UNL     1      -0.411   9.769  22.474  0.00  0.00    +0.000 A 
ATOM     10  C   UNL     1      -1.127  10.731  23.190  0.00  0.00    +0.000 A 
ATOM     11  C   UNL     1      -1.102  12.062  22.781  0.00  0.00    +0.000 A 
ATOM     12  C   UNL     1      -0.361  12.428  21.658  0.00  0.00    +0.000 A 
ATOM     13  C   UNL     1       0.351  11.464  20.939  0.00  0.00    +0.000 A 
ENDBRANCH   4   8
BRANCH   1  15
ATOM     14  N   UNL     1       4.081   6.292  17.536  0.00  0.00    +0.000 N 
ATOM     15  C   UNL     1       2.819   6.089  18.060  0.00  0.00    +0.000 C 
ATOM     16  O   UNL     1       2.123   5.095  17.835  0.00  0.00    +0.000 OA
ATOM     17  H   UNL     1       4.491   7.219  17.645  0.00  0.00    +0.000 HD
BRANCH  14  23
ATOM     18  C   UNL     1       7.410   5.549  13.955  0.00  0.00    +0.000 C 
ATOM     19  C   UNL     1       6.449   5.003  14.971  0.00  0.00    +0.000 A 
ATOM     20  C   UNL     1       6.234   3.625  15.060  0.00  0.00    +0.000 A 
ATOM     21  C   UNL     1       5.336   3.118  15.992  0.00  0.00    +0.000 A 
ATOM     22  C   UNL     1       4.632   3.986  16.827  0.00  0.00    +0.000 A 
ATOM     23  C   UNL     1       4.804   5.369  16.739  0.00  0.00    +0.000 A 
ATOM     24  C   UNL     1       5.737   5.873  15.820  0.00  0.00    +0.000 A 
ENDBRANCH  14  23
ENDBRANCH   1  15
BRANCH   2  25
ATOM     25  N   UNL     1       2.240   5.657  20.824  0.00  0.00    +0.000 N 
ATOM     26  H   UNL     1       3.231   5.371  20.754  0.00  0.00    +0.000 HD
BRANCH  25  27
ATOM     27  O   UNL     1       1.327   4.611  20.796  0.00  0.00    +0.000 OA
ATOM     28  H   UNL     1       1.490   4.158  21.645  0.00  0.00    +0.000 HD
ENDBRANCH  25  27
ENDBRANCH   2  25
TORSDOF 5
ENDMDL
