MODEL 1
REMARK VINA RESULT:      -7.7      0.000      0.000
REMARK  Name = 
REMARK  5 active torsions:
REMARK  status: ('A' for Active; 'I' for Inactive)
REMARK    1  A    between atoms: C_1  and  C_2
REMARK    2  A    between atoms: C_7  and  C_8
REMARK    3  A    between atoms: C_10  and  C_11
REMARK    4  A    between atoms: C_14  and  C_15
REMARK    5  A    between atoms: N_17  and  C_18
REMARK                            x       y       z     vdW  Elec       q    Type
REMARK                         _______ _______ _______ _____ _____    ______ ____
ROOT
ATOM      1  C   UNL     1       0.565   8.816  21.303  0.00  0.00    +0.000 C 
ATOM      2  C   UNL     1       1.252   8.556  20.008  0.00  0.00    +0.000 A 
ATOM      3  N   UNL     1       2.224   7.567  19.982  0.00  0.00    +0.000 NA
ATOM      4  C   UNL     1       2.739   7.420  18.783  0.00  0.00    +0.000 A 
ATOM      5  N   UNL     1       3.594   6.419  18.454  0.00  0.00    +0.000 N 
ATOM      6  C   UNL     1       3.867   5.369  19.441  0.00  0.00    +0.000 C 
ATOM      7  C   UNL     1       4.045   4.039  18.680  0.00  0.00    +0.000 C 
ATOM      8  C   UNL     1       4.348   2.893  19.630  0.00  0.00    +0.000 C 
ATOM      9  O   UNL     1       5.128   4.142  17.733  0.00  0.00    +0.000 OA
ATOM     10  C   UNL     1       4.861   5.174  16.760  0.00  0.00    +0.000 C 
ATOM     11  C   UNL     1       6.043   5.218  15.802  0.00  0.00    +0.000 C 
ATOM     12  C   UNL     1       4.638   6.550  17.434  0.00  0.00    +0.000 C 
ATOM     13  S   UNL     1       2.113   8.537  17.627  0.00  0.00    +0.000 S 
ATOM     14  C   UNL     1       1.007   9.155  18.783  0.00  0.00    +0.000 A 
ENDROOT
BRANCH  14  15
ATOM     15  C   UNL     1      -0.002  10.148  18.440  0.00  0.00    +0.000 C 
ATOM     16  O   UNL     1       0.158  11.340  18.690  0.00  0.00    +0.000 OA
ATOM     17  N   UNL     1      -1.157   9.620  17.877  0.00  0.00    +0.000 N 
ATOM     18  H   UNL     1      -1.193   8.609  17.832  0.00  0.00    +0.000 HD
BRANCH  17  19
ATOM     19  C   UNL     1      -2.327  10.303  17.490  0.00  0.00    +0.000 A 
ATOM     20  C   UNL     1      -2.676  10.547  16.149  0.00  0.00    +0.000 A 
ATOM     21  C   UNL     1      -3.829  11.272  15.824  0.00  0.00    +0.000 A 
ATOM     22  C   UNL     1      -4.602  11.750  16.858  0.00  0.00    +0.000 A 
ATOM     23  C   UNL     1      -4.281  11.496  18.168  0.00  0.00    +0.000 A 
ATOM     24  C   UNL     1      -3.164  10.765  18.518  0.00  0.00    +0.000 A 
ATOM     25  O   UNL     1      -5.162  12.068  19.035  0.00  0.00    +0.000 OA
ATOM     26  C   UNL     1      -6.020  12.778  18.117  0.00  0.00    +0.000 C 
ATOM     27  O   UNL     1      -5.723  12.505  16.731  0.00  0.00    +0.000 OA
ENDBRANCH  17  19
ENDBRANCH  14  15
TORSDOF 2
ENDMDL
MODEL 2
REMARK VINA RESULT:      -7.4      3.238      9.448
REMARK  Name = 
REMARK  5 active torsions:
REMARK  status: ('A' for Active; 'I' for Inactive)
REMARK    1  A    between atoms: C_1  and  C_2
REMARK    2  A    between atoms: C_7  and  C_8
REMARK    3  A    between atoms: C_10  and  C_11
REMARK    4  A    between atoms: C_14  and  C_15
REMARK    5  A    between atoms: N_17  and  C_18
REMARK                            x       y       z     vdW  Elec       q    Type
REMARK                         _______ _______ _______ _____ _____    ______ ____
ROOT
ATOM      1  C   UNL     1      -1.560   9.983  17.290  0.00  0.00    +0.000 C 
ATOM      2  C   UNL     1      -0.953  10.640  18.480  0.00  0.00    +0.000 A 
ATOM      3  N   UNL     1      -1.767  11.458  19.248  0.00  0.00    +0.000 NA
ATOM      4  C   UNL     1      -1.122  11.961  20.276  0.00  0.00    +0.000 A 
ATOM      5  N   UNL     1      -1.726  12.665  21.266  0.00  0.00    +0.000 N 
ATOM      6  C   UNL     1      -3.190  12.771  21.268  0.00  0.00    +0.000 C 
ATOM      7  C   UNL     1      -3.662  12.763  22.736  0.00  0.00    +0.000 C 
ATOM      8  C   UNL     1      -5.174  12.885  22.832  0.00  0.00    +0.000 C 
ATOM      9  O   UNL     1      -3.072  13.861  23.462  0.00  0.00    +0.000 OA
ATOM     10  C   UNL     1      -1.632  13.758  23.462  0.00  0.00    +0.000 C 
ATOM     11  C   UNL     1      -1.089  14.945  24.244  0.00  0.00    +0.000 C 
ATOM     12  C   UNL     1      -1.062  13.730  22.023  0.00  0.00    +0.000 C 
ATOM     13  S   UNL     1       0.544  11.518  20.322  0.00  0.00    +0.000 S 
ATOM     14  C   UNL     1       0.339  10.500  18.957  0.00  0.00    +0.000 A 
ENDROOT
BRANCH  14  15
ATOM     15  C   UNL     1       1.410   9.650  18.454  0.00  0.00    +0.000 C 
ATOM     16  O   UNL     1       2.064   9.960  17.462  0.00  0.00    +0.000 OA
ATOM     17  N   UNL     1       1.571   8.459  19.150  0.00  0.00    +0.000 N 
ATOM     18  H   UNL     1       0.888   8.288  19.878  0.00  0.00    +0.000 HD
BRANCH  17  19
ATOM     19  C   UNL     1       2.472   7.409  18.881  0.00  0.00    +0.000 A 
ATOM     20  C   UNL     1       3.373   7.418  17.800  0.00  0.00    +0.000 A 
ATOM     21  C   UNL     1       4.215   6.326  17.554  0.00  0.00    +0.000 A 
ATOM     22  C   UNL     1       4.122   5.239  18.393  0.00  0.00    +0.000 A 
ATOM     23  C   UNL     1       3.263   5.233  19.464  0.00  0.00    +0.000 A 
ATOM     24  C   UNL     1       2.439   6.304  19.746  0.00  0.00    +0.000 A 
ATOM     25  O   UNL     1       3.313   4.063  20.159  0.00  0.00    +0.000 OA
ATOM     26  C   UNL     1       4.240   3.309  19.349  0.00  0.00    +0.000 C 
ATOM     27  O   UNL     1       4.824   4.083  18.280  0.00  0.00    +0.000 OA
ENDBRANCH  17  19
ENDBRANCH  14  15
TORSDOF 2
ENDMDL
MODEL 3
REMARK VINA RESULT:      -7.3      3.108      4.090
REMARK  Name = 
REMARK  5 active torsions:
REMARK  status: ('A' for Active; 'I' for Inactive)
REMARK    1  A    between atoms: C_1  and  C_2
REMARK    2  A    between atoms: C_7  and  C_8
REMARK    3  A    between atoms: C_10  and  C_11
REMARK    4  A    between atoms: C_14  and  C_15
REMARK    5  A    between atoms: N_17  and  C_18
REMARK                            x       y       z     vdW  Elec       q    Type
REMARK                         _______ _______ _______ _____ _____    ______ ____
ROOT
ATOM      1  C   UNL     1       0.785   8.379  21.405  0.00  0.00    +0.000 C 
ATOM      2  C   UNL     1       1.508   8.156  20.123  0.00  0.00    +0.000 A 
ATOM      3  N   UNL     1       2.209   6.968  19.979  0.00  0.00    +0.000 NA
ATOM      4  C   UNL     1       2.784   6.881  18.801  0.00  0.00    +0.000 A 
ATOM      5  N   UNL     1       3.398   5.759  18.350  0.00  0.00    +0.000 N 
ATOM      6  C   UNL     1       3.315   4.534  19.154  0.00  0.00    +0.000 C 
ATOM      7  C   UNL     1       3.237   3.337  18.186  0.00  0.00    +0.000 C 
ATOM      8  C   UNL     1       3.163   2.019  18.938  0.00  0.00    +0.000 C 
ATOM      9  O   UNL     1       4.397   3.305  17.329  0.00  0.00    +0.000 OA
ATOM     10  C   UNL     1       4.481   4.508  16.537  0.00  0.00    +0.000 C 
ATOM     11  C   UNL     1       5.723   4.397  15.665  0.00  0.00    +0.000 C 
ATOM     12  C   UNL     1       4.535   5.775  17.425  0.00  0.00    +0.000 C 
ATOM     13  S   UNL     1       2.560   8.285  17.824  0.00  0.00    +0.000 S 
ATOM     14  C   UNL     1       1.532   8.978  19.010  0.00  0.00    +0.000 A 
ENDROOT
BRANCH  14  15
ATOM     15  C   UNL     1       0.831  10.236  18.790  0.00  0.00    +0.000 C 
ATOM     16  O   UNL     1      -0.200  10.290  18.124  0.00  0.00    +0.000 OA
ATOM     17  N   UNL     1       1.461  11.346  19.338  0.00  0.00    +0.000 N 
ATOM     18  H   UNL     1       2.361  11.166  19.765  0.00  0.00    +0.000 HD
BRANCH  17  19
ATOM     19  C   UNL     1       1.071  12.698  19.253  0.00  0.00    +0.000 A 
ATOM     20  C   UNL     1      -0.229  13.151  19.548  0.00  0.00    +0.000 A 
ATOM     21  C   UNL     1      -0.573  14.500  19.403  0.00  0.00    +0.000 A 
ATOM     22  C   UNL     1       0.396  15.366  18.949  0.00  0.00    +0.000 A 
ATOM     23  C   UNL     1       1.672  14.937  18.683  0.00  0.00    +0.000 A 
ATOM     24  C   UNL     1       2.047  13.618  18.840  0.00  0.00    +0.000 A 
ATOM     25  O   UNL     1       2.472  15.943  18.233  0.00  0.00    +0.000 OA
ATOM     26  C   UNL     1       1.525  17.031  18.169  0.00  0.00    +0.000 C 
ATOM     27  O   UNL     1       0.230  16.692  18.708  0.00  0.00    +0.000 OA
ENDBRANCH  17  19
ENDBRANCH  14  15
TORSDOF 2
ENDMDL
MODEL 4
REMARK VINA RESULT:      -7.3      0.872      1.479
REMARK  Name = 
REMARK  5 active torsions:
REMARK  status: ('A' for Active; 'I' for Inactive)
REMARK    1  A    between atoms: C_1  and  C_2
REMARK    2  A    between atoms: C_7  and  C_8
REMARK    3  A    between atoms: C_10  and  C_11
REMARK    4  A    between atoms: C_14  and  C_15
REMARK    5  A    between atoms: N_17  and  C_18
REMARK                            x       y       z     vdW  Elec       q    Type
REMARK                         _______ _______ _______ _____ _____    ______ ____
ROOT
ATOM      1  C   UNL     1       0.832   8.866  21.688  0.00  0.00    +0.000 C 
ATOM      2  C   UNL     1       1.397   8.614  20.334  0.00  0.00    +0.000 A 
ATOM      3  N   UNL     1       2.259   7.539  20.187  0.00  0.00    +0.000 NA
ATOM      4  C   UNL     1       2.671   7.410  18.946  0.00  0.00    +0.000 A 
ATOM      5  N   UNL     1       3.395   6.351  18.505  0.00  0.00    +0.000 N 
ATOM      6  C   UNL     1       3.629   5.224  19.415  0.00  0.00    +0.000 C 
ATOM      7  C   UNL     1       3.618   3.929  18.578  0.00  0.00    +0.000 C 
ATOM      8  C   UNL     1       3.869   2.707  19.444  0.00  0.00    +0.000 C 
ATOM      9  O   UNL     1       4.637   3.979  17.558  0.00  0.00    +0.000 OA
ATOM     10  C   UNL     1       4.408   5.086  16.661  0.00  0.00    +0.000 C 
ATOM     11  C   UNL     1       5.518   5.069  15.620  0.00  0.00    +0.000 C 
ATOM     12  C   UNL     1       4.373   6.436  17.417  0.00  0.00    +0.000 C 
ATOM     13  S   UNL     1       2.083   8.646  17.897  0.00  0.00    +0.000 S 
ATOM     14  C   UNL     1       1.129   9.303  19.163  0.00  0.00    +0.000 A 
ENDROOT
BRANCH  14  15
ATOM     15  C   UNL     1       0.205  10.408  18.946  0.00  0.00    +0.000 C 
ATOM     16  O   UNL     1       0.605  11.541  18.691  0.00  0.00    +0.000 OA
ATOM     17  N   UNL     1      -1.134  10.076  19.114  0.00  0.00    +0.000 N 
ATOM     18  H   UNL     1      -1.308   9.130  19.432  0.00  0.00    +0.000 HD
BRANCH  17  19
ATOM     19  C   UNL     1      -2.257  10.923  19.031  0.00  0.00    +0.000 A 
ATOM     20  C   UNL     1      -2.577  11.886  20.006  0.00  0.00    +0.000 A 
ATOM     21  C   UNL     1      -3.732  12.669  19.895  0.00  0.00    +0.000 A 
ATOM     22  C   UNL     1      -4.552  12.458  18.809  0.00  0.00    +0.000 A 
ATOM     23  C   UNL     1      -4.234  11.537  17.841  0.00  0.00    +0.000 A 
ATOM     24  C   UNL     1      -3.090  10.768  17.912  0.00  0.00    +0.000 A 
ATOM     25  O   UNL     1      -5.178  11.471  16.863  0.00  0.00    +0.000 OA
ATOM     26  C   UNL     1      -6.162  12.395  17.375  0.00  0.00    +0.000 C 
ATOM     27  O   UNL     1      -5.728  13.090  18.563  0.00  0.00    +0.000 OA
ENDBRANCH  17  19
ENDBRANCH  14  15
TORSDOF 2
ENDMDL
MODEL 5
REMARK VINA RESULT:      -7.3      3.558      4.602
REMARK  Name = 
REMARK  5 active torsions:
REMARK  status: ('A' for Active; 'I' for Inactive)
REMARK    1  A    between atoms: C_1  and  C_2
REMARK    2  A    between atoms: C_7  and  C_8
REMARK    3  A    between atoms: C_10  and  C_11
REMARK    4  A    between atoms: C_14  and  C_15
REMARK    5  A    between atoms: N_17  and  C_18
REMARK                            x       y       z     vdW  Elec       q    Type
REMARK                         _______ _______ _______ _____ _____    ______ ____
ROOT
ATOM      1  C   UNL     1       0.104   9.597  22.278  0.00  0.00    +0.000 C 
ATOM      2  C   UNL     1       0.780   9.035  21.076  0.00  0.00    +0.000 A 
ATOM      3  N   UNL     1       1.288   7.749  21.167  0.00  0.00    +0.000 NA
ATOM      4  C   UNL     1       1.840   7.361  20.040  0.00  0.00    +0.000 A 
ATOM      5  N   UNL     1       2.271   6.095  19.815  0.00  0.00    +0.000 N 
ATOM      6  C   UNL     1       2.001   5.065  20.824  0.00  0.00    +0.000 C 
ATOM      7  C   UNL     1       1.736   3.737  20.086  0.00  0.00    +0.000 C 
ATOM      8  C   UNL     1       1.460   2.606  21.062  0.00  0.00    +0.000 C 
ATOM      9  O   UNL     1       2.875   3.372  19.280  0.00  0.00    +0.000 OA
ATOM     10  C   UNL     1       3.142   4.384  18.285  0.00  0.00    +0.000 C 
ATOM     11  C   UNL     1       4.350   3.927  17.480  0.00  0.00    +0.000 C 
ATOM     12  C   UNL     1       3.394   5.768  18.932  0.00  0.00    +0.000 C 
ATOM     13  S   UNL     1       1.833   8.580  18.820  0.00  0.00    +0.000 S 
ATOM     14  C   UNL     1       0.929   9.628  19.833  0.00  0.00    +0.000 A 
ENDROOT
BRANCH  14  15
ATOM     15  C   UNL     1       0.430  10.917  19.372  0.00  0.00    +0.000 C 
ATOM     16  O   UNL     1      -0.508  10.999  18.585  0.00  0.00    +0.000 OA
ATOM     17  N   UNL     1       1.144  12.010  19.847  0.00  0.00    +0.000 N 
ATOM     18  H   UNL     1       1.963  11.785  20.400  0.00  0.00    +0.000 HD
BRANCH  17  19
ATOM     19  C   UNL     1       0.951  13.372  19.545  0.00  0.00    +0.000 A 
ATOM     20  C   UNL     1      -0.248  14.063  19.804  0.00  0.00    +0.000 A 
ATOM     21  C   UNL     1      -0.400  15.406  19.440  0.00  0.00    +0.000 A 
ATOM     22  C   UNL     1       0.655  16.026  18.809  0.00  0.00    +0.000 A 
ATOM     23  C   UNL     1       1.837  15.367  18.575  0.00  0.00    +0.000 A 
ATOM     24  C   UNL     1       2.024  14.050  18.944  0.00  0.00    +0.000 A 
ATOM     25  O   UNL     1       2.745  16.149  17.930  0.00  0.00    +0.000 OA
ATOM     26  C   UNL     1       1.965  17.344  17.714  0.00  0.00    +0.000 C 
ATOM     27  O   UNL     1       0.670  17.303  18.350  0.00  0.00    +0.000 OA
ENDBRANCH  17  19
ENDBRANCH  14  15
TORSDOF 2
ENDMDL
MODEL 6
REMARK VINA RESULT:      -7.2      3.613      4.312
REMARK  Name = 
REMARK  5 active torsions:
REMARK  status: ('A' for Active; 'I' for Inactive)
REMARK    1  A    between atoms: C_1  and  C_2
REMARK    2  A    between atoms: C_7  and  C_8
REMARK    3  A    between atoms: C_10  and  C_11
REMARK    4  A    between atoms: C_14  and  C_15
REMARK    5  A    between atoms: N_17  and  C_18
REMARK                            x       y       z     vdW  Elec       q    Type
REMARK                         _______ _______ _______ _____ _____    ______ ____
ROOT
ATOM      1  C   UNL     1       0.201   9.877  21.999  0.00  0.00    +0.000 C 
ATOM      2  C   UNL     1       0.856   9.274  20.806  0.00  0.00    +0.000 A 
ATOM      3  N   UNL     1       1.303   7.965  20.910  0.00  0.00    +0.000 NA
ATOM      4  C   UNL     1       1.842   7.543  19.789  0.00  0.00    +0.000 A 
ATOM      5  N   UNL     1       2.214   6.256  19.577  0.00  0.00    +0.000 N 
ATOM      6  C   UNL     1       1.891   5.249  20.593  0.00  0.00    +0.000 C 
ATOM      7  C   UNL     1       1.568   3.928  19.865  0.00  0.00    +0.000 C 
ATOM      8  C   UNL     1       1.235   2.820  20.848  0.00  0.00    +0.000 C 
ATOM      9  O   UNL     1       2.693   3.504  19.068  0.00  0.00    +0.000 OA
ATOM     10  C   UNL     1       3.012   4.493  18.066  0.00  0.00    +0.000 C 
ATOM     11  C   UNL     1       4.201   3.973  17.272  0.00  0.00    +0.000 C 
ATOM     12  C   UNL     1       3.325   5.869  18.703  0.00  0.00    +0.000 C 
ATOM     13  S   UNL     1       1.898   8.751  18.559  0.00  0.00    +0.000 S 
ATOM     14  C   UNL     1       1.038   9.848  19.559  0.00  0.00    +0.000 A 
ENDROOT
BRANCH  14  15
ATOM     15  C   UNL     1       0.603  11.154  19.084  0.00  0.00    +0.000 C 
ATOM     16  O   UNL     1      -0.388  11.282  18.371  0.00  0.00    +0.000 OA
ATOM     17  N   UNL     1       1.434  12.204  19.455  0.00  0.00    +0.000 N 
ATOM     18  H   UNL     1       2.276  11.935  19.950  0.00  0.00    +0.000 HD
BRANCH  17  19
ATOM     19  C   UNL     1       1.321  13.566  19.111  0.00  0.00    +0.000 A 
ATOM     20  C   UNL     1       2.371  14.313  18.545  0.00  0.00    +0.000 A 
ATOM     21  C   UNL     1       2.217  15.677  18.266  0.00  0.00    +0.000 A 
ATOM     22  C   UNL     1       1.012  16.266  18.576  0.00  0.00    +0.000 A 
ATOM     23  C   UNL     1      -0.025  15.538  19.106  0.00  0.00    +0.000 A 
ATOM     24  C   UNL     1       0.090  14.188  19.369  0.00  0.00    +0.000 A 
ATOM     25  O   UNL     1      -1.121  16.307  19.353  0.00  0.00    +0.000 OA
ATOM     26  C   UNL     1      -0.620  17.612  18.995  0.00  0.00    +0.000 C 
ATOM     27  O   UNL     1       0.702  17.578  18.416  0.00  0.00    +0.000 OA
ENDBRANCH  17  19
ENDBRANCH  14  15
TORSDOF 2
ENDMDL
MODEL 7
REMARK VINA RESULT:      -7.2      4.063      5.095
REMARK  Name = 
REMARK  5 active torsions:
REMARK  status: ('A' for Active; 'I' for Inactive)
REMARK    1  A    between atoms: C_1  and  C_2
REMARK    2  A    between atoms: C_7  and  C_8
REMARK    3  A    between atoms: C_10  and  C_11
REMARK    4  A    between atoms: C_14  and  C_15
REMARK    5  A    between atoms: N_17  and  C_18
REMARK                            x       y       z     vdW  Elec       q    Type
REMARK                         _______ _______ _______ _____ _____    ______ ____
ROOT
ATOM      1  C   UNL     1       0.358  11.266  19.123  0.00  0.00    +0.000 C 
ATOM      2  C   UNL     1       0.784   9.983  19.747  0.00  0.00    +0.000 A 
ATOM      3  N   UNL     1       1.435   9.061  18.943  0.00  0.00    +0.000 NA
ATOM      4  C   UNL     1       1.776   7.984  19.613  0.00  0.00    +0.000 A 
ATOM      5  N   UNL     1       2.557   7.001  19.100  0.00  0.00    +0.000 N 
ATOM      6  C   UNL     1       3.163   7.195  17.778  0.00  0.00    +0.000 C 
ATOM      7  C   UNL     1       4.555   6.530  17.794  0.00  0.00    +0.000 C 
ATOM      8  C   UNL     1       5.252   6.672  16.451  0.00  0.00    +0.000 C 
ATOM      9  O   UNL     1       4.440   5.125  18.099  0.00  0.00    +0.000 OA
ATOM     10  C   UNL     1       3.845   4.932  19.400  0.00  0.00    +0.000 C 
ATOM     11  C   UNL     1       3.759   3.433  19.646  0.00  0.00    +0.000 C 
ATOM     12  C   UNL     1       2.448   5.593  19.492  0.00  0.00    +0.000 C 
ATOM     13  S   UNL     1       1.253   8.006  21.256  0.00  0.00    +0.000 S 
ATOM     14  C   UNL     1       0.653   9.602  21.072  0.00  0.00    +0.000 A 
ENDROOT
BRANCH  14  15
ATOM     15  C   UNL     1       0.113  10.363  22.191  0.00  0.00    +0.000 C 
ATOM     16  O   UNL     1       0.381  10.074  23.354  0.00  0.00    +0.000 OA
ATOM     17  N   UNL     1      -0.761  11.379  21.824  0.00  0.00    +0.000 N 
ATOM     18  H   UNL     1      -0.974  11.430  20.836  0.00  0.00    +0.000 HD
BRANCH  17  19
ATOM     19  C   UNL     1      -1.484  12.249  22.664  0.00  0.00    +0.000 A 
ATOM     20  C   UNL     1      -2.770  11.959  23.159  0.00  0.00    +0.000 A 
ATOM     21  C   UNL     1      -3.462  12.881  23.952  0.00  0.00    +0.000 A 
ATOM     22  C   UNL     1      -2.852  14.085  24.222  0.00  0.00    +0.000 A 
ATOM     23  C   UNL     1      -1.589  14.365  23.763  0.00  0.00    +0.000 A 
ATOM     24  C   UNL     1      -0.873  13.467  22.999  0.00  0.00    +0.000 A 
ATOM     25  O   UNL     1      -1.173  15.610  24.126  0.00  0.00    +0.000 OA
ATOM     26  C   UNL     1      -2.354  16.106  24.791  0.00  0.00    +0.000 C 
ATOM     27  O   UNL     1      -3.389  15.109  24.933  0.00  0.00    +0.000 OA
ENDBRANCH  17  19
ENDBRANCH  14  15
TORSDOF 2
ENDMDL
MODEL 8
REMARK VINA RESULT:      -7.1      2.935      3.280
REMARK  Name = 
REMARK  5 active torsions:
REMARK  status: ('A' for Active; 'I' for Inactive)
REMARK    1  A    between atoms: C_1  and  C_2
REMARK    2  A    between atoms: C_7  and  C_8
REMARK    3  A    between atoms: C_10  and  C_11
REMARK    4  A    between atoms: C_14  and  C_15
REMARK    5  A    between atoms: N_17  and  C_18
REMARK                            x       y       z     vdW  Elec       q    Type
REMARK                         _______ _______ _______ _____ _____    ______ ____
ROOT
ATOM      1  C   UNL     1       0.788   8.505  21.501  0.00  0.00    +0.000 C 
ATOM      2  C   UNL     1       1.463   8.279  20.193  0.00  0.00    +0.000 A 
ATOM      3  N   UNL     1       2.234   7.135  20.057  0.00  0.00    +0.000 NA
ATOM      4  C   UNL     1       2.757   7.040  18.855  0.00  0.00    +0.000 A 
ATOM      5  N   UNL     1       3.423   5.943  18.414  0.00  0.00    +0.000 N 
ATOM      6  C   UNL     1       3.459   4.748  19.264  0.00  0.00    +0.000 C 
ATOM      7  C   UNL     1       3.415   3.512  18.343  0.00  0.00    +0.000 C 
ATOM      8  C   UNL     1       3.463   2.222  19.144  0.00  0.00    +0.000 C 
ATOM      9  O   UNL     1       4.533   3.522  17.432  0.00  0.00    +0.000 OA
ATOM     10  C   UNL     1       4.499   4.697  16.594  0.00  0.00    +0.000 C 
ATOM     11  C   UNL     1       5.703   4.632  15.666  0.00  0.00    +0.000 C 
ATOM     12  C   UNL     1       4.511   5.997  17.434  0.00  0.00    +0.000 C 
ATOM     13  S   UNL     1       2.395   8.388  17.842  0.00  0.00    +0.000 S 
ATOM     14  C   UNL     1       1.380   9.059  19.052  0.00  0.00    +0.000 A 
ENDROOT
BRANCH  14  15
ATOM     15  C   UNL     1       0.587  10.259  18.823  0.00  0.00    +0.000 C 
ATOM     16  O   UNL     1      -0.354  10.268  18.034  0.00  0.00    +0.000 OA
ATOM     17  N   UNL     1       1.030  11.378  19.517  0.00  0.00    +0.000 N 
ATOM     18  H   UNL     1       1.885  11.250  20.044  0.00  0.00    +0.000 HD
BRANCH  17  19
ATOM     19  C   UNL     1       0.519  12.690  19.468  0.00  0.00    +0.000 A 
ATOM     20  C   UNL     1       1.114  13.729  18.727  0.00  0.00    +0.000 A 
ATOM     21  C   UNL     1       0.588  15.026  18.752  0.00  0.00    +0.000 A 
ATOM     22  C   UNL     1      -0.520  15.257  19.535  0.00  0.00    +0.000 A 
ATOM     23  C   UNL     1      -1.121  14.245  20.241  0.00  0.00    +0.000 A 
ATOM     24  C   UNL     1      -0.639  12.951  20.217  0.00  0.00    +0.000 A 
ATOM     25  O   UNL     1      -2.191  14.682  20.961  0.00  0.00    +0.000 OA
ATOM     26  C   UNL     1      -2.137  16.099  20.689  0.00  0.00    +0.000 C 
ATOM     27  O   UNL     1      -1.135  16.455  19.713  0.00  0.00    +0.000 OA
ENDBRANCH  17  19
ENDBRANCH  14  15
TORSDOF 2
ENDMDL
MODEL 9
REMARK VINA RESULT:      -7.1      3.283      4.333
REMARK  Name = 
REMARK  5 active torsions:
REMARK  status: ('A' for Active; 'I' for Inactive)
REMARK    1  A    between atoms: C_1  and  C_2
REMARK    2  A    between atoms: C_7  and  C_8
REMARK    3  A    between atoms: C_10  and  C_11
REMARK    4  A    between atoms: C_14  and  C_15
REMARK    5  A    between atoms: N_17  and  C_18
REMARK                            x       y       z     vdW  Elec       q    Type
REMARK                         _______ _______ _______ _____ _____    ______ ____
ROOT
ATOM      1  C   UNL     1       1.843  10.561  18.047  0.00  0.00    +0.000 C 
ATOM      2  C   UNL     1       1.601   9.514  19.077  0.00  0.00    +0.000 A 
ATOM      3  N   UNL     1       2.041   8.228  18.803  0.00  0.00    +0.000 NA
ATOM      4  C   UNL     1       1.788   7.404  19.794  0.00  0.00    +0.000 A 
ATOM      5  N   UNL     1       2.252   6.130  19.844  0.00  0.00    +0.000 N 
ATOM      6  C   UNL     1       3.188   5.676  18.810  0.00  0.00    +0.000 C 
ATOM      7  C   UNL     1       4.189   4.706  19.470  0.00  0.00    +0.000 C 
ATOM      8  C   UNL     1       5.192   4.173  18.461  0.00  0.00    +0.000 C 
ATOM      9  O   UNL     1       3.494   3.585  20.054  0.00  0.00    +0.000 OA
ATOM     10  C   UNL     1       2.573   4.030  21.073  0.00  0.00    +0.000 C 
ATOM     11  C   UNL     1       1.884   2.795  21.637  0.00  0.00    +0.000 C 
ATOM     12  C   UNL     1       1.540   5.035  20.509  0.00  0.00    +0.000 C 
ATOM     13  S   UNL     1       0.928   8.141  21.094  0.00  0.00    +0.000 S 
ATOM     14  C   UNL     1       1.021   9.671  20.325  0.00  0.00    +0.000 A 
ENDROOT
BRANCH  14  15
ATOM     15  C   UNL     1       0.546  10.892  20.962  0.00  0.00    +0.000 C 
ATOM     16  O   UNL     1       1.325  11.727  21.413  0.00  0.00    +0.000 OA
ATOM     17  N   UNL     1      -0.837  10.983  21.065  0.00  0.00    +0.000 N 
ATOM     18  H   UNL     1      -1.348  10.168  20.749  0.00  0.00    +0.000 HD
BRANCH  17  19
ATOM     19  C   UNL     1      -1.598  12.001  21.672  0.00  0.00    +0.000 A 
ATOM     20  C   UNL     1      -2.064  11.935  22.999  0.00  0.00    +0.000 A 
ATOM     21  C   UNL     1      -2.857  12.956  23.537  0.00  0.00    +0.000 A 
ATOM     22  C   UNL     1      -3.177  14.019  22.723  0.00  0.00    +0.000 A 
ATOM     23  C   UNL     1      -2.707  14.102  21.436  0.00  0.00    +0.000 A 
ATOM     24  C   UNL     1      -1.904  13.123  20.887  0.00  0.00    +0.000 A 
ATOM     25  O   UNL     1      -3.149  15.221  20.797  0.00  0.00    +0.000 OA
ATOM     26  C   UNL     1      -4.016  15.781  21.805  0.00  0.00    +0.000 C 
ATOM     27  O   UNL     1      -3.967  15.071  23.060  0.00  0.00    +0.000 OA
ENDBRANCH  17  19
ENDBRANCH  14  15
TORSDOF 2
ENDMDL
