MODEL 1
REMARK VINA RESULT:      -7.6      0.000      0.000
REMARK  Name = 
REMARK  5 active torsions:
REMARK  status: ('A' for Active; 'I' for Inactive)
REMARK    1  A    between atoms: C_1  and  C_2
REMARK    2  A    between atoms: C_5  and  C_6
REMARK    3  A    between atoms: C_6  and  N_7
REMARK    4  A    between atoms: C_10  and  C_11
REMARK    5  A    between atoms: N_21  and  C_22
REMARK                            x       y       z     vdW  Elec       q    Type
REMARK                         _______ _______ _______ _____ _____    ______ ____
ROOT
ATOM      1  N   UNL     1      -1.759  12.894  20.934  0.00  0.00    +0.000 N 
ATOM      2  C   UNL     1      -2.452  13.874  21.673  0.00  0.00    +0.000 C 
ATOM      3  O   UNL     1      -1.902  14.732  22.361  0.00  0.00    +0.000 OA
ATOM      4  C   UNL     1      -3.964  13.653  21.672  0.00  0.00    +0.000 C 
ATOM      5  C   UNL     1      -4.678  14.743  22.451  0.00  0.00    +0.000 C 
ATOM      6  N   UNL     1      -4.419  13.587  20.297  0.00  0.00    +0.000 N 
ATOM      7  C   UNL     1      -3.776  12.568  19.579  0.00  0.00    +0.000 A 
ATOM      8  N   UNL     1      -4.526  12.069  18.587  0.00  0.00    +0.000 NA
ATOM      9  C   UNL     1      -3.937  11.149  17.831  0.00  0.00    +0.000 A 
ATOM     10  N   UNL     1      -2.711  10.655  18.020  0.00  0.00    +0.000 NA
ATOM     11  C   UNL     1      -1.956  11.146  19.036  0.00  0.00    +0.000 A 
ATOM     12  N   UNL     1      -0.670  10.596  19.134  0.00  0.00    +0.000 N 
ATOM     13  C   UNL     1      -0.200   9.929  17.884  0.00  0.00    +0.000 C 
ATOM     14  C   UNL     1       1.315   9.632  17.985  0.00  0.00    +0.000 C 
ATOM     15  N   UNL     1       1.614   8.843  19.196  0.00  0.00    +0.000 N 
ATOM     16  C   UNL     1       1.037   9.394  20.441  0.00  0.00    +0.000 C 
ATOM     17  C   UNL     1      -0.481   9.655  20.267  0.00  0.00    +0.000 C 
ATOM     18  C   UNL     1      -2.447  12.170  19.873  0.00  0.00    +0.000 A 
ATOM     19  H   UNL     1      -5.416  13.541  20.114  0.00  0.00    +0.000 HD
ENDROOT
BRANCH  15  20
ATOM     20  C   UNL     1       2.228   7.608  19.129  0.00  0.00    +0.000 A 
ATOM     21  C   UNL     1       2.062   6.649  20.142  0.00  0.00    +0.000 A 
ATOM     22  C   UNL     1       2.680   5.395  20.098  0.00  0.00    +0.000 A 
ATOM     23  C   UNL     1       3.484   5.059  19.018  0.00  0.00    +0.000 A 
ATOM     24  C   UNL     1       3.662   5.975  17.990  0.00  0.00    +0.000 A 
ATOM     25  C   UNL     1       3.042   7.230  18.051  0.00  0.00    +0.000 A 
ENDBRANCH  15  20
BRANCH   1  26
ATOM     26  C   UNL     1      -0.382  12.726  21.346  0.00  0.00    +0.000 C 
BRANCH  26  31
ATOM     27  C   UNL     1       3.446  15.374  17.768  0.00  0.00    +0.000 C 
ATOM     28  C   UNL     1       2.446  14.681  18.646  0.00  0.00    +0.000 A 
ATOM     29  C   UNL     1       1.134  15.142  18.731  0.00  0.00    +0.000 A 
ATOM     30  C   UNL     1       0.227  14.529  19.600  0.00  0.00    +0.000 A 
ATOM     31  C   UNL     1       0.599  13.428  20.398  0.00  0.00    +0.000 A 
ATOM     32  C   UNL     1       1.915  12.962  20.290  0.00  0.00    +0.000 A 
ATOM     33  C   UNL     1       2.826  13.581  19.423  0.00  0.00    +0.000 A 
ENDBRANCH  26  31
ENDBRANCH   1  26
TORSDOF 3
ENDMDL
MODEL 2
REMARK VINA RESULT:      -7.5      1.029      1.096
REMARK  Name = 
REMARK  5 active torsions:
REMARK  status: ('A' for Active; 'I' for Inactive)
REMARK    1  A    between atoms: C_1  and  C_2
REMARK    2  A    between atoms: C_5  and  C_6
REMARK    3  A    between atoms: C_6  and  N_7
REMARK    4  A    between atoms: C_10  and  C_11
REMARK    5  A    between atoms: N_21  and  C_22
REMARK                            x       y       z     vdW  Elec       q    Type
REMARK                         _______ _______ _______ _____ _____    ______ ____
ROOT
ATOM      1  N   UNL     1      -0.777  12.611  20.800  0.00  0.00    +0.000 N 
ATOM      2  C   UNL     1      -1.319  13.715  21.489  0.00  0.00    +0.000 C 
ATOM      3  O   UNL     1      -0.644  14.552  22.085  0.00  0.00    +0.000 OA
ATOM      4  C   UNL     1      -2.845  13.670  21.567  0.00  0.00    +0.000 C 
ATOM      5  C   UNL     1      -3.392  14.887  22.289  0.00  0.00    +0.000 C 
ATOM      6  N   UNL     1      -3.373  13.557  20.222  0.00  0.00    +0.000 N 
ATOM      7  C   UNL     1      -2.883  12.422  19.559  0.00  0.00    +0.000 A 
ATOM      8  N   UNL     1      -3.732  11.942  18.640  0.00  0.00    +0.000 NA
ATOM      9  C   UNL     1      -3.288  10.909  17.934  0.00  0.00    +0.000 A 
ATOM     10  N   UNL     1      -2.117  10.293  18.109  0.00  0.00    +0.000 NA
ATOM     11  C   UNL     1      -1.262  10.765  19.052  0.00  0.00    +0.000 A 
ATOM     12  N   UNL     1      -0.041  10.080  19.139  0.00  0.00    +0.000 N 
ATOM     13  C   UNL     1       0.288   9.275  17.926  0.00  0.00    +0.000 C 
ATOM     14  C   UNL     1       1.765   8.815  17.986  0.00  0.00    +0.000 C 
ATOM     15  N   UNL     1       2.034   8.086  19.241  0.00  0.00    +0.000 N 
ATOM     16  C   UNL     1       1.584   8.787  20.462  0.00  0.00    +0.000 C 
ATOM     17  C   UNL     1       0.098   9.208  20.332  0.00  0.00    +0.000 C 
ATOM     18  C   UNL     1      -1.593  11.897  19.827  0.00  0.00    +0.000 A 
ATOM     19  H   UNL     1      -4.376  13.613  20.085  0.00  0.00    +0.000 HD
ENDROOT
BRANCH  15  20
ATOM     20  C   UNL     1       2.503   6.787  19.243  0.00  0.00    +0.000 A 
ATOM     21  C   UNL     1       2.131   5.874  20.245  0.00  0.00    +0.000 A 
ATOM     22  C   UNL     1       2.600   4.558  20.271  0.00  0.00    +0.000 A 
ATOM     23  C   UNL     1       3.456   4.109  19.276  0.00  0.00    +0.000 A 
ATOM     24  C   UNL     1       3.835   4.976  18.261  0.00  0.00    +0.000 A 
ATOM     25  C   UNL     1       3.363   6.296  18.251  0.00  0.00    +0.000 A 
ENDBRANCH  15  20
BRANCH   1  26
ATOM     26  C   UNL     1       0.592  12.317  21.165  0.00  0.00    +0.000 C 
BRANCH  26  31
ATOM     27  C   UNL     1       4.485  15.218  17.864  0.00  0.00    +0.000 C 
ATOM     28  C   UNL     1       3.508  14.438  18.695  0.00  0.00    +0.000 A 
ATOM     29  C   UNL     1       2.504  13.684  18.091  0.00  0.00    +0.000 A 
ATOM     30  C   UNL     1       1.561  13.012  18.875  0.00  0.00    +0.000 A 
ATOM     31  C   UNL     1       1.603  13.060  20.283  0.00  0.00    +0.000 A 
ATOM     32  C   UNL     1       2.629  13.805  20.878  0.00  0.00    +0.000 A 
ATOM     33  C   UNL     1       3.571  14.484  20.092  0.00  0.00    +0.000 A 
ENDBRANCH  26  31
ENDBRANCH   1  26
TORSDOF 3
ENDMDL
MODEL 3
REMARK VINA RESULT:      -7.4      8.602     11.191
REMARK  Name = 
REMARK  5 active torsions:
REMARK  status: ('A' for Active; 'I' for Inactive)
REMARK    1  A    between atoms: C_1  and  C_2
REMARK    2  A    between atoms: C_5  and  C_6
REMARK    3  A    between atoms: C_6  and  N_7
REMARK    4  A    between atoms: C_10  and  C_11
REMARK    5  A    between atoms: N_21  and  C_22
REMARK                            x       y       z     vdW  Elec       q    Type
REMARK                         _______ _______ _______ _____ _____    ______ ____
ROOT
ATOM      1  N   UNL     1      10.175  15.500  19.651  0.00  0.00    +0.000 N 
ATOM      2  C   UNL     1      11.077  16.106  18.753  0.00  0.00    +0.000 C 
ATOM      3  O   UNL     1      12.080  15.551  18.307  0.00  0.00    +0.000 OA
ATOM      4  C   UNL     1      10.776  17.587  18.525  0.00  0.00    +0.000 C 
ATOM      5  C   UNL     1      11.748  18.197  17.532  0.00  0.00    +0.000 C 
ATOM      6  N   UNL     1       9.401  17.716  18.083  0.00  0.00    +0.000 N 
ATOM      7  C   UNL     1       8.499  17.171  19.008  0.00  0.00    +0.000 A 
ATOM      8  N   UNL     1       7.297  17.763  18.985  0.00  0.00    +0.000 NA
ATOM      9  C   UNL     1       6.384  17.239  19.792  0.00  0.00    +0.000 A 
ATOM     10  N   UNL     1       6.586  16.233  20.646  0.00  0.00    +0.000 NA
ATOM     11  C   UNL     1       7.807  15.642  20.686  0.00  0.00    +0.000 A 
ATOM     12  N   UNL     1       7.916  14.570  21.584  0.00  0.00    +0.000 N 
ATOM     13  C   UNL     1       6.603  13.988  21.992  0.00  0.00    +0.000 C 
ATOM     14  C   UNL     1       6.831  12.643  22.723  0.00  0.00    +0.000 C 
ATOM     15  N   UNL     1       7.753  12.817  23.863  0.00  0.00    +0.000 N 
ATOM     16  C   UNL     1       9.006  13.527  23.530  0.00  0.00    +0.000 C 
ATOM     17  C   UNL     1       8.699  14.865  22.811  0.00  0.00    +0.000 C 
ATOM     18  C   UNL     1       8.846  16.069  19.832  0.00  0.00    +0.000 A 
ATOM     19  H   UNL     1       9.065  18.627  17.792  0.00  0.00    +0.000 HD
ENDROOT
BRANCH  15  20
ATOM     20  C   UNL     1       7.384  12.498  25.155  0.00  0.00    +0.000 A 
ATOM     21  C   UNL     1       6.523  11.421  25.429  0.00  0.00    +0.000 A 
ATOM     22  C   UNL     1       6.131  11.086  26.728  0.00  0.00    +0.000 A 
ATOM     23  C   UNL     1       6.604  11.822  27.804  0.00  0.00    +0.000 A 
ATOM     24  C   UNL     1       7.468  12.885  27.576  0.00  0.00    +0.000 A 
ATOM     25  C   UNL     1       7.847  13.214  26.267  0.00  0.00    +0.000 A 
ENDBRANCH  15  20
BRANCH   1  26
ATOM     26  C   UNL     1      10.713  14.329  20.308  0.00  0.00    +0.000 C 
BRANCH  26  31
ATOM     27  C   UNL     1       8.507   9.294  18.250  0.00  0.00    +0.000 C 
ATOM     28  C   UNL     1       9.029  10.598  18.776  0.00  0.00    +0.000 A 
ATOM     29  C   UNL     1       9.070  11.728  17.961  0.00  0.00    +0.000 A 
ATOM     30  C   UNL     1       9.617  12.921  18.441  0.00  0.00    +0.000 A 
ATOM     31  C   UNL     1      10.124  13.026  19.752  0.00  0.00    +0.000 A 
ATOM     32  C   UNL     1      10.060  11.889  20.567  0.00  0.00    +0.000 A 
ATOM     33  C   UNL     1       9.517  10.690  20.084  0.00  0.00    +0.000 A 
ENDBRANCH  26  31
ENDBRANCH   1  26
TORSDOF 3
ENDMDL
MODEL 4
REMARK VINA RESULT:      -7.2      3.661      8.156
REMARK  Name = 
REMARK  5 active torsions:
REMARK  status: ('A' for Active; 'I' for Inactive)
REMARK    1  A    between atoms: C_1  and  C_2
REMARK    2  A    between atoms: C_5  and  C_6
REMARK    3  A    between atoms: C_6  and  N_7
REMARK    4  A    between atoms: C_10  and  C_11
REMARK    5  A    between atoms: N_21  and  C_22
REMARK                            x       y       z     vdW  Elec       q    Type
REMARK                         _______ _______ _______ _____ _____    ______ ____
ROOT
ATOM      1  N   UNL     1      -3.186  12.045  18.686  0.00  0.00    +0.000 N 
ATOM      2  C   UNL     1      -2.789  11.475  17.460  0.00  0.00    +0.000 C 
ATOM      3  O   UNL     1      -1.621  11.245  17.154  0.00  0.00    +0.000 OA
ATOM      4  C   UNL     1      -3.949  11.331  16.475  0.00  0.00    +0.000 C 
ATOM      5  C   UNL     1      -3.491  10.687  15.179  0.00  0.00    +0.000 C 
ATOM      6  N   UNL     1      -5.004  10.568  17.112  0.00  0.00    +0.000 N 
ATOM      7  C   UNL     1      -5.444  11.171  18.300  0.00  0.00    +0.000 A 
ATOM      8  N   UNL     1      -6.725  10.902  18.585  0.00  0.00    +0.000 NA
ATOM      9  C   UNL     1      -7.172  11.391  19.736  0.00  0.00    +0.000 A 
ATOM     10  N   UNL     1      -6.476  12.160  20.576  0.00  0.00    +0.000 NA
ATOM     11  C   UNL     1      -5.183  12.450  20.282  0.00  0.00    +0.000 A 
ATOM     12  N   UNL     1      -4.520  13.231  21.240  0.00  0.00    +0.000 N 
ATOM     13  C   UNL     1      -5.175  13.228  22.581  0.00  0.00    +0.000 C 
ATOM     14  C   UNL     1      -4.224  13.850  23.631  0.00  0.00    +0.000 C 
ATOM     15  N   UNL     1      -3.795  15.199  23.213  0.00  0.00    +0.000 N 
ATOM     16  C   UNL     1      -3.276  15.273  21.830  0.00  0.00    +0.000 C 
ATOM     17  C   UNL     1      -4.284  14.641  20.837  0.00  0.00    +0.000 C 
ATOM     18  C   UNL     1      -4.574  11.938  19.117  0.00  0.00    +0.000 A 
ATOM     19  H   UNL     1      -5.811  10.296  16.562  0.00  0.00    +0.000 HD
ENDROOT
BRANCH  15  20
ATOM     20  C   UNL     1      -4.030  16.314  23.993  0.00  0.00    +0.000 A 
ATOM     21  C   UNL     1      -2.983  16.994  24.638  0.00  0.00    +0.000 A 
ATOM     22  C   UNL     1      -3.199  18.120  25.438  0.00  0.00    +0.000 A 
ATOM     23  C   UNL     1      -4.486  18.609  25.608  0.00  0.00    +0.000 A 
ATOM     24  C   UNL     1      -5.546  17.974  24.976  0.00  0.00    +0.000 A 
ATOM     25  C   UNL     1      -5.315  16.841  24.183  0.00  0.00    +0.000 A 
ENDBRANCH  15  20
BRANCH   1  26
ATOM     26  C   UNL     1      -2.106  12.694  19.398  0.00  0.00    +0.000 C 
BRANCH  26  31
ATOM     27  C   UNL     1       0.289   9.287  23.536  0.00  0.00    +0.000 C 
ATOM     28  C   UNL     1      -0.353  10.126  22.470  0.00  0.00    +0.000 A 
ATOM     29  C   UNL     1      -0.235   9.781  21.125  0.00  0.00    +0.000 A 
ATOM     30  C   UNL     1      -0.784  10.603  20.137  0.00  0.00    +0.000 A 
ATOM     31  C   UNL     1      -1.479  11.784  20.462  0.00  0.00    +0.000 A 
ATOM     32  C   UNL     1      -1.608  12.111  21.818  0.00  0.00    +0.000 A 
ATOM     33  C   UNL     1      -1.053  11.289  22.809  0.00  0.00    +0.000 A 
ENDBRANCH  26  31
ENDBRANCH   1  26
TORSDOF 3
ENDMDL
MODEL 5
REMARK VINA RESULT:      -7.2      8.500     11.244
REMARK  Name = 
REMARK  5 active torsions:
REMARK  status: ('A' for Active; 'I' for Inactive)
REMARK    1  A    between atoms: C_1  and  C_2
REMARK    2  A    between atoms: C_5  and  C_6
REMARK    3  A    between atoms: C_6  and  N_7
REMARK    4  A    between atoms: C_10  and  C_11
REMARK    5  A    between atoms: N_21  and  C_22
REMARK                            x       y       z     vdW  Elec       q    Type
REMARK                         _______ _______ _______ _____ _____    ______ ____
ROOT
ATOM      1  N   UNL     1      10.116  15.283  19.674  0.00  0.00    +0.000 N 
ATOM      2  C   UNL     1      11.083  15.761  18.766  0.00  0.00    +0.000 C 
ATOM      3  O   UNL     1      12.061  15.113  18.398  0.00  0.00    +0.000 OA
ATOM      4  C   UNL     1      10.885  17.237  18.417  0.00  0.00    +0.000 C 
ATOM      5  C   UNL     1      11.925  17.707  17.416  0.00  0.00    +0.000 C 
ATOM      6  N   UNL     1       9.536  17.416  17.919  0.00  0.00    +0.000 N 
ATOM      7  C   UNL     1       8.572  17.000  18.850  0.00  0.00    +0.000 A 
ATOM      8  N   UNL     1       7.413  17.663  18.740  0.00  0.00    +0.000 NA
ATOM      9  C   UNL     1       6.443  17.260  19.552  0.00  0.00    +0.000 A 
ATOM     10  N   UNL     1       6.554  16.312  20.485  0.00  0.00    +0.000 NA
ATOM     11  C   UNL     1       7.733  15.651  20.612  0.00  0.00    +0.000 A 
ATOM     12  N   UNL     1       7.745  14.647  21.591  0.00  0.00    +0.000 N 
ATOM     13  C   UNL     1       6.386  14.180  21.995  0.00  0.00    +0.000 C 
ATOM     14  C   UNL     1       6.503  12.884  22.832  0.00  0.00    +0.000 C 
ATOM     15  N   UNL     1       7.400  13.087  23.987  0.00  0.00    +0.000 N 
ATOM     16  C   UNL     1       8.705  13.690  23.647  0.00  0.00    +0.000 C 
ATOM     17  C   UNL     1       8.508  14.985  22.819  0.00  0.00    +0.000 C 
ATOM     18  C   UNL     1       8.822  15.946  19.765  0.00  0.00    +0.000 A 
ATOM     19  H   UNL     1       9.268  18.321  17.549  0.00  0.00    +0.000 HD
ENDROOT
BRANCH  15  20
ATOM     20  C   UNL     1       6.972  12.892  25.285  0.00  0.00    +0.000 A 
ATOM     21  C   UNL     1       7.818  13.130  26.381  0.00  0.00    +0.000 A 
ATOM     22  C   UNL     1       7.408  12.932  27.703  0.00  0.00    +0.000 A 
ATOM     23  C   UNL     1       6.119  12.494  27.968  0.00  0.00    +0.000 A 
ATOM     24  C   UNL     1       5.248  12.260  26.913  0.00  0.00    +0.000 A 
ATOM     25  C   UNL     1       5.675  12.456  25.593  0.00  0.00    +0.000 A 
ENDBRANCH  15  20
BRANCH   1  26
ATOM     26  C   UNL     1      10.558  14.135  20.436  0.00  0.00    +0.000 C 
BRANCH  26  31
ATOM     27  C   UNL     1       8.437   9.139  18.198  0.00  0.00    +0.000 C 
ATOM     28  C   UNL     1       9.019  10.397  18.773  0.00  0.00    +0.000 A 
ATOM     29  C   UNL     1       9.387  10.461  20.116  0.00  0.00    +0.000 A 
ATOM     30  C   UNL     1       9.869  11.656  20.657  0.00  0.00    +0.000 A 
ATOM     31  C   UNL     1      10.014  12.817  19.871  0.00  0.00    +0.000 A 
ATOM     32  C   UNL     1       9.659  12.734  18.518  0.00  0.00    +0.000 A 
ATOM     33  C   UNL     1       9.170  11.537  17.977  0.00  0.00    +0.000 A 
ENDBRANCH  26  31
ENDBRANCH   1  26
TORSDOF 3
ENDMDL
MODEL 6
REMARK VINA RESULT:      -7.1      3.199      6.926
REMARK  Name = 
REMARK  5 active torsions:
REMARK  status: ('A' for Active; 'I' for Inactive)
REMARK    1  A    between atoms: C_1  and  C_2
REMARK    2  A    between atoms: C_5  and  C_6
REMARK    3  A    between atoms: C_6  and  N_7
REMARK    4  A    between atoms: C_10  and  C_11
REMARK    5  A    between atoms: N_21  and  C_22
REMARK                            x       y       z     vdW  Elec       q    Type
REMARK                         _______ _______ _______ _____ _____    ______ ____
ROOT
ATOM      1  N   UNL     1      -2.803  11.098  18.373  0.00  0.00    +0.000 N 
ATOM      2  C   UNL     1      -2.489  10.442  17.165  0.00  0.00    +0.000 C 
ATOM      3  O   UNL     1      -1.596   9.604  17.049  0.00  0.00    +0.000 OA
ATOM      4  C   UNL     1      -3.257  11.008  15.971  0.00  0.00    +0.000 C 
ATOM      5  C   UNL     1      -2.915  10.259  14.695  0.00  0.00    +0.000 C 
ATOM      6  N   UNL     1      -4.675  10.952  16.266  0.00  0.00    +0.000 N 
ATOM      7  C   UNL     1      -4.997  11.659  17.434  0.00  0.00    +0.000 A 
ATOM      8  N   UNL     1      -6.244  12.150  17.426  0.00  0.00    +0.000 NA
ATOM      9  C   UNL     1      -6.623  12.769  18.537  0.00  0.00    +0.000 A 
ATOM     10  N   UNL     1      -5.856  12.986  19.608  0.00  0.00    +0.000 NA
ATOM     11  C   UNL     1      -4.586  12.506  19.612  0.00  0.00    +0.000 A 
ATOM     12  N   UNL     1      -3.867  12.747  20.792  0.00  0.00    +0.000 N 
ATOM     13  C   UNL     1      -4.727  13.071  21.968  0.00  0.00    +0.000 C 
ATOM     14  C   UNL     1      -3.885  13.016  23.265  0.00  0.00    +0.000 C 
ATOM     15  N   UNL     1      -2.708  13.902  23.162  0.00  0.00    +0.000 N 
ATOM     16  C   UNL     1      -1.910  13.715  21.932  0.00  0.00    +0.000 C 
ATOM     17  C   UNL     1      -2.817  13.792  20.677  0.00  0.00    +0.000 C 
ATOM     18  C   UNL     1      -4.084  11.777  18.513  0.00  0.00    +0.000 A 
ATOM     19  H   UNL     1      -5.336  11.199  15.538  0.00  0.00    +0.000 HD
ENDROOT
BRANCH  15  20
ATOM     20  C   UNL     1      -2.488  14.930  24.057  0.00  0.00    +0.000 A 
ATOM     21  C   UNL     1      -1.293  15.023  24.791  0.00  0.00    +0.000 A 
ATOM     22  C   UNL     1      -1.053  16.051  25.707  0.00  0.00    +0.000 A 
ATOM     23  C   UNL     1      -2.012  17.034  25.909  0.00  0.00    +0.000 A 
ATOM     24  C   UNL     1      -3.200  16.985  25.193  0.00  0.00    +0.000 A 
ATOM     25  C   UNL     1      -3.430  15.944  24.283  0.00  0.00    +0.000 A 
ENDBRANCH  15  20
BRANCH   1  26
ATOM     26  C   UNL     1      -1.759  11.003  19.370  0.00  0.00    +0.000 C 
BRANCH  26  31
ATOM     27  C   UNL     1       3.039  14.092  17.991  0.00  0.00    +0.000 C 
ATOM     28  C   UNL     1       1.802  13.301  18.300  0.00  0.00    +0.000 A 
ATOM     29  C   UNL     1       0.539  13.878  18.179  0.00  0.00    +0.000 A 
ATOM     30  C   UNL     1      -0.602  13.153  18.529  0.00  0.00    +0.000 A 
ATOM     31  C   UNL     1      -0.519  11.826  18.996  0.00  0.00    +0.000 A 
ATOM     32  C   UNL     1       0.753  11.250  19.096  0.00  0.00    +0.000 A 
ATOM     33  C   UNL     1       1.899  11.979  18.750  0.00  0.00    +0.000 A 
ENDBRANCH  26  31
ENDBRANCH   1  26
TORSDOF 3
ENDMDL
MODEL 7
REMARK VINA RESULT:      -7.1      2.017      3.296
REMARK  Name = 
REMARK  5 active torsions:
REMARK  status: ('A' for Active; 'I' for Inactive)
REMARK    1  A    between atoms: C_1  and  C_2
REMARK    2  A    between atoms: C_5  and  C_6
REMARK    3  A    between atoms: C_6  and  N_7
REMARK    4  A    between atoms: C_10  and  C_11
REMARK    5  A    between atoms: N_21  and  C_22
REMARK                            x       y       z     vdW  Elec       q    Type
REMARK                         _______ _______ _______ _____ _____    ______ ____
ROOT
ATOM      1  N   UNL     1      -2.862  15.193  22.308  0.00  0.00    +0.000 N 
ATOM      2  C   UNL     1      -3.305  16.197  23.193  0.00  0.00    +0.000 C 
ATOM      3  O   UNL     1      -2.670  17.220  23.444  0.00  0.00    +0.000 OA
ATOM      4  C   UNL     1      -4.576  15.803  23.944  0.00  0.00    +0.000 C 
ATOM      5  C   UNL     1      -5.038  16.919  24.863  0.00  0.00    +0.000 C 
ATOM      6  N   UNL     1      -5.593  15.447  22.974  0.00  0.00    +0.000 N 
ATOM      7  C   UNL     1      -5.177  14.403  22.135  0.00  0.00    +0.000 A 
ATOM      8  N   UNL     1      -6.192  13.655  21.681  0.00  0.00    +0.000 NA
ATOM      9  C   UNL     1      -5.859  12.695  20.827  0.00  0.00    +0.000 A 
ATOM     10  N   UNL     1      -4.617  12.389  20.446  0.00  0.00    +0.000 NA
ATOM     11  C   UNL     1      -3.584  13.133  20.918  0.00  0.00    +0.000 A 
ATOM     12  N   UNL     1      -2.320  12.764  20.434  0.00  0.00    +0.000 N 
ATOM     13  C   UNL     1      -2.366  11.951  19.183  0.00  0.00    +0.000 C 
ATOM     14  C   UNL     1      -0.949  11.857  18.566  0.00  0.00    +0.000 C 
ATOM     15  N   UNL     1       0.015  11.330  19.551  0.00  0.00    +0.000 N 
ATOM     16  C   UNL     1      -0.014  12.014  20.861  0.00  0.00    +0.000 C 
ATOM     17  C   UNL     1      -1.459  12.061  21.419  0.00  0.00    +0.000 C 
ATOM     18  C   UNL     1      -3.814  14.221  21.786  0.00  0.00    +0.000 A 
ATOM     19  H   UNL     1      -6.533  15.253  23.300  0.00  0.00    +0.000 HD
ENDROOT
BRANCH  15  20
ATOM     20  C   UNL     1       0.747  10.182  19.314  0.00  0.00    +0.000 A 
ATOM     21  C   UNL     1       0.942   9.215  20.314  0.00  0.00    +0.000 A 
ATOM     22  C   UNL     1       1.684   8.050  20.098  0.00  0.00    +0.000 A 
ATOM     23  C   UNL     1       2.251   7.814  18.854  0.00  0.00    +0.000 A 
ATOM     24  C   UNL     1       2.069   8.739  17.835  0.00  0.00    +0.000 A 
ATOM     25  C   UNL     1       1.328   9.905  18.068  0.00  0.00    +0.000 A 
ENDBRANCH  15  20
BRANCH   1  26
ATOM     26  C   UNL     1      -1.446  15.262  22.017  0.00  0.00    +0.000 C 
BRANCH  26  31
ATOM     27  C   UNL     1      -0.252  18.002  16.964  0.00  0.00    +0.000 C 
ATOM     28  C   UNL     1      -0.593  17.283  18.236  0.00  0.00    +0.000 A 
ATOM     29  C   UNL     1      -1.701  17.662  18.992  0.00  0.00    +0.000 A 
ATOM     30  C   UNL     1      -1.974  17.027  20.207  0.00  0.00    +0.000 A 
ATOM     31  C   UNL     1      -1.159  15.987  20.695  0.00  0.00    +0.000 A 
ATOM     32  C   UNL     1      -0.059  15.602  19.917  0.00  0.00    +0.000 A 
ATOM     33  C   UNL     1       0.218  16.242  18.701  0.00  0.00    +0.000 A 
ENDBRANCH  26  31
ENDBRANCH   1  26
TORSDOF 3
ENDMDL
MODEL 8
REMARK VINA RESULT:      -7.1      3.665      8.132
REMARK  Name = 
REMARK  5 active torsions:
REMARK  status: ('A' for Active; 'I' for Inactive)
REMARK    1  A    between atoms: C_1  and  C_2
REMARK    2  A    between atoms: C_5  and  C_6
REMARK    3  A    between atoms: C_6  and  N_7
REMARK    4  A    between atoms: C_10  and  C_11
REMARK    5  A    between atoms: N_21  and  C_22
REMARK                            x       y       z     vdW  Elec       q    Type
REMARK                         _______ _______ _______ _____ _____    ______ ____
ROOT
ATOM      1  N   UNL     1      -3.205  11.953  18.671  0.00  0.00    +0.000 N 
ATOM      2  C   UNL     1      -2.797  11.385  17.448  0.00  0.00    +0.000 C 
ATOM      3  O   UNL     1      -1.623  11.194  17.136  0.00  0.00    +0.000 OA
ATOM      4  C   UNL     1      -3.958  11.189  16.473  0.00  0.00    +0.000 C 
ATOM      5  C   UNL     1      -3.486  10.549  15.180  0.00  0.00    +0.000 C 
ATOM      6  N   UNL     1      -4.980  10.395  17.126  0.00  0.00    +0.000 N 
ATOM      7  C   UNL     1      -5.433  10.994  18.311  0.00  0.00    +0.000 A 
ATOM      8  N   UNL     1      -6.702  10.682  18.608  0.00  0.00    +0.000 NA
ATOM      9  C   UNL     1      -7.158  11.167  19.757  0.00  0.00    +0.000 A 
ATOM     10  N   UNL     1      -6.484  11.969  20.584  0.00  0.00    +0.000 NA
ATOM     11  C   UNL     1      -5.204  12.302  20.278  0.00  0.00    +0.000 A 
ATOM     12  N   UNL     1      -4.563  13.117  21.222  0.00  0.00    +0.000 N 
ATOM     13  C   UNL     1      -5.208  13.104  22.568  0.00  0.00    +0.000 C 
ATOM     14  C   UNL     1      -4.273  13.771  23.605  0.00  0.00    +0.000 C 
ATOM     15  N   UNL     1      -3.896  15.130  23.170  0.00  0.00    +0.000 N 
ATOM     16  C   UNL     1      -3.390  15.208  21.783  0.00  0.00    +0.000 C 
ATOM     17  C   UNL     1      -4.381  14.530  20.804  0.00  0.00    +0.000 C 
ATOM     18  C   UNL     1      -4.585  11.800  19.113  0.00  0.00    +0.000 A 
ATOM     19  H   UNL     1      -5.781  10.089  16.585  0.00  0.00    +0.000 HD
ENDROOT
BRANCH  15  20
ATOM     20  C   UNL     1      -4.165  16.244  23.940  0.00  0.00    +0.000 A 
ATOM     21  C   UNL     1      -5.461  16.782  24.026  0.00  0.00    +0.000 A 
ATOM     22  C   UNL     1      -5.755  17.913  24.794  0.00  0.00    +0.000 A 
ATOM     23  C   UNL     1      -4.748  18.539  25.515  0.00  0.00    +0.000 A 
ATOM     24  C   UNL     1      -3.458  18.029  25.467  0.00  0.00    +0.000 A 
ATOM     25  C   UNL     1      -3.176  16.899  24.688  0.00  0.00    +0.000 A 
ENDBRANCH  15  20
BRANCH   1  26
ATOM     26  C   UNL     1      -2.144  12.648  19.368  0.00  0.00    +0.000 C 
BRANCH  26  31
ATOM     27  C   UNL     1       0.337   9.257  23.467  0.00  0.00    +0.000 C 
ATOM     28  C   UNL     1      -0.265  10.154  22.427  0.00  0.00    +0.000 A 
ATOM     29  C   UNL     1      -0.908  11.336  22.791  0.00  0.00    +0.000 A 
ATOM     30  C   UNL     1      -1.520  12.132  21.820  0.00  0.00    +0.000 A 
ATOM     31  C   UNL     1      -1.496  11.782  20.455  0.00  0.00    +0.000 A 
ATOM     32  C   UNL     1      -0.830  10.602  20.099  0.00  0.00    +0.000 A 
ATOM     33  C   UNL     1      -0.221   9.800  21.073  0.00  0.00    +0.000 A 
ENDBRANCH  26  31
ENDBRANCH   1  26
TORSDOF 3
ENDMDL
MODEL 9
REMARK VINA RESULT:      -7.1      3.192      6.980
REMARK  Name = 
REMARK  5 active torsions:
REMARK  status: ('A' for Active; 'I' for Inactive)
REMARK    1  A    between atoms: C_1  and  C_2
REMARK    2  A    between atoms: C_5  and  C_6
REMARK    3  A    between atoms: C_6  and  N_7
REMARK    4  A    between atoms: C_10  and  C_11
REMARK    5  A    between atoms: N_21  and  C_22
REMARK                            x       y       z     vdW  Elec       q    Type
REMARK                         _______ _______ _______ _____ _____    ______ ____
ROOT
ATOM      1  N   UNL     1      -2.806  11.095  18.373  0.00  0.00    +0.000 N 
ATOM      2  C   UNL     1      -2.488  10.439  17.167  0.00  0.00    +0.000 C 
ATOM      3  O   UNL     1      -1.600   9.595  17.056  0.00  0.00    +0.000 OA
ATOM      4  C   UNL     1      -3.245  11.011  15.969  0.00  0.00    +0.000 C 
ATOM      5  C   UNL     1      -2.900  10.261  14.695  0.00  0.00    +0.000 C 
ATOM      6  N   UNL     1      -4.665  10.964  16.255  0.00  0.00    +0.000 N 
ATOM      7  C   UNL     1      -4.990  11.672  17.421  0.00  0.00    +0.000 A 
ATOM      8  N   UNL     1      -6.234  12.171  17.406  0.00  0.00    +0.000 NA
ATOM      9  C   UNL     1      -6.616  12.791  18.516  0.00  0.00    +0.000 A 
ATOM     10  N   UNL     1      -5.854  13.002  19.591  0.00  0.00    +0.000 NA
ATOM     11  C   UNL     1      -4.587  12.514  19.603  0.00  0.00    +0.000 A 
ATOM     12  N   UNL     1      -3.874  12.750  20.787  0.00  0.00    +0.000 N 
ATOM     13  C   UNL     1      -4.739  13.078  21.958  0.00  0.00    +0.000 C 
ATOM     14  C   UNL     1      -3.906  13.017  23.261  0.00  0.00    +0.000 C 
ATOM     15  N   UNL     1      -2.723  13.895  23.166  0.00  0.00    +0.000 N 
ATOM     16  C   UNL     1      -1.918  13.704  21.940  0.00  0.00    +0.000 C 
ATOM     17  C   UNL     1      -2.817  13.787  20.680  0.00  0.00    +0.000 C 
ATOM     18  C   UNL     1      -4.083  11.783  18.506  0.00  0.00    +0.000 A 
ATOM     19  H   UNL     1      -5.320  11.216  15.523  0.00  0.00    +0.000 HD
ENDROOT
BRANCH  15  20
ATOM     20  C   UNL     1      -2.502  14.921  24.063  0.00  0.00    +0.000 A 
ATOM     21  C   UNL     1      -3.467  15.917  24.292  0.00  0.00    +0.000 A 
ATOM     22  C   UNL     1      -3.261  16.968  25.190  0.00  0.00    +0.000 A 
ATOM     23  C   UNL     1      -2.072  17.048  25.900  0.00  0.00    +0.000 A 
ATOM     24  C   UNL     1      -1.100  16.076  25.712  0.00  0.00    +0.000 A 
ATOM     25  C   UNL     1      -1.317  15.031  24.803  0.00  0.00    +0.000 A 
ENDBRANCH  15  20
BRANCH   1  26
ATOM     26  C   UNL     1      -1.768  10.993  19.377  0.00  0.00    +0.000 C 
BRANCH  26  31
ATOM     27  C   UNL     1       2.976  14.115  17.893  0.00  0.00    +0.000 C 
ATOM     28  C   UNL     1       1.777  13.319  18.315  0.00  0.00    +0.000 A 
ATOM     29  C   UNL     1       1.914  12.001  18.746  0.00  0.00    +0.000 A 
ATOM     30  C   UNL     1       0.784  11.248  19.077  0.00  0.00    +0.000 A 
ATOM     31  C   UNL     1      -0.514  11.793  19.002  0.00  0.00    +0.000 A 
ATOM     32  C   UNL     1      -0.637  13.124  18.586  0.00  0.00    +0.000 A 
ATOM     33  C   UNL     1       0.496  13.878  18.249  0.00  0.00    +0.000 A 
ENDBRANCH  26  31
ENDBRANCH   1  26
TORSDOF 3
ENDMDL
