MODEL 1
REMARK VINA RESULT:      -8.4      0.000      0.000
REMARK  Name = 
REMARK  8 active torsions:
REMARK  status: ('A' for Active; 'I' for Inactive)
REMARK    1  A    between atoms: C_1  and  N_2
REMARK    2  A    between atoms: C_3  and  S_4
REMARK    3  A    between atoms: S_4  and  C_5
REMARK    4  A    between atoms: C_5  and  C_6
REMARK    5  A    between atoms: C_6  and  C_7
REMARK    6  A    between atoms: C_7  and  N_8
REMARK    7  A    between atoms: C_13  and  C_14
REMARK    8  A    between atoms: C_25  and  C_26
REMARK                            x       y       z     vdW  Elec       q    Type
REMARK                         _______ _______ _______ _____ _____    ______ ____
ROOT
ATOM      1  C   UNL     1       7.559   7.513  17.198  0.00  0.00    +0.000 C 
ENDROOT
BRANCH   1   2
ATOM      2  N   UNL     1       7.191   6.098  17.376  0.00  0.00    +0.000 NA
ATOM      3  C   UNL     1       6.772   5.427  16.134  0.00  0.00    +0.000 C 
ATOM      4  C   UNL     1       5.347   5.891  15.895  0.00  0.00    +0.000 C 
ATOM      5  C   UNL     1       4.818   6.009  17.298  0.00  0.00    +0.000 C 
ATOM      6  C   UNL     1       3.648   6.916  17.601  0.00  0.00    +0.000 C 
ATOM      7  C   UNL     1       3.439   5.424  17.575  0.00  0.00    +0.000 C 
ATOM      8  C   UNL     1       5.993   5.996  18.258  0.00  0.00    +0.000 C 
BRANCH   7   9
ATOM      9  C   UNL     1       3.044   4.681  18.827  0.00  0.00    +0.000 A 
ATOM     10  C   UNL     1       2.372   5.352  19.868  0.00  0.00    +0.000 A 
ATOM     11  C   UNL     1       1.873   4.665  20.979  0.00  0.00    +0.000 A 
ATOM     12  C   UNL     1       2.061   3.294  21.077  0.00  0.00    +0.000 A 
ATOM     13  F   UNL     1       1.565   2.631  22.129  0.00  0.00    +0.000 F 
ATOM     14  C   UNL     1       2.722   2.595  20.080  0.00  0.00    +0.000 A 
ATOM     15  C   UNL     1       3.190   3.289  18.967  0.00  0.00    +0.000 A 
ATOM     16  F   UNL     1       3.760   2.581  17.980  0.00  0.00    +0.000 F 
ENDBRANCH   7   9
ENDBRANCH   1   2
BRANCH   1  17
ATOM     17  C   UNL     1       8.329   8.131  18.375  0.00  0.00    +0.000 C 
BRANCH  17  18
ATOM     18  C   UNL     1       8.508   9.647  18.228  0.00  0.00    +0.000 C 
BRANCH  18  19
ATOM     19  S   UNL     1       9.385  10.396  19.639  0.00  0.00    +0.000 S 
BRANCH  19  22
ATOM     20  C   UNL     1       9.772  13.244  21.132  0.00  0.00    +0.000 C 
ATOM     21  N   UNL     1      10.008  13.065  19.722  0.00  0.00    +0.000 N 
ATOM     22  C   UNL     1       9.799  11.937  18.976  0.00  0.00    +0.000 A 
ATOM     23  N   UNL     1       9.961  12.208  17.705  0.00  0.00    +0.000 NA
ATOM     24  N   UNL     1      10.317  13.528  17.605  0.00  0.00    +0.000 NA
ATOM     25  C   UNL     1      10.392  14.043  18.820  0.00  0.00    +0.000 A 
BRANCH  25  26
ATOM     26  C   UNL     1      10.758  15.428  19.111  0.00  0.00    +0.000 A 
ATOM     27  C   UNL     1      12.069  15.846  19.362  0.00  0.00    +0.000 A 
ATOM     28  C   UNL     1      12.333  17.183  19.657  0.00  0.00    +0.000 A 
ATOM     29  C   UNL     1      11.276  18.078  19.664  0.00  0.00    +0.000 A 
ATOM     30  N   UNL     1      10.004  17.726  19.391  0.00  0.00    +0.000 NA
ATOM     31  C   UNL     1       9.778  16.418  19.111  0.00  0.00    +0.000 A 
ENDBRANCH  25  26
ENDBRANCH  19  22
ENDBRANCH  18  19
ENDBRANCH  17  18
ENDBRANCH   1  17
TORSDOF 7
ENDMDL
MODEL 2
REMARK VINA RESULT:      -8.2      1.409      1.635
REMARK  Name = 
REMARK  8 active torsions:
REMARK  status: ('A' for Active; 'I' for Inactive)
REMARK    1  A    between atoms: C_1  and  N_2
REMARK    2  A    between atoms: C_3  and  S_4
REMARK    3  A    between atoms: S_4  and  C_5
REMARK    4  A    between atoms: C_5  and  C_6
REMARK    5  A    between atoms: C_6  and  C_7
REMARK    6  A    between atoms: C_7  and  N_8
REMARK    7  A    between atoms: C_13  and  C_14
REMARK    8  A    between atoms: C_25  and  C_26
REMARK                            x       y       z     vdW  Elec       q    Type
REMARK                         _______ _______ _______ _____ _____    ______ ____
ROOT
ATOM      1  C   UNL     1       6.820   7.085  17.459  0.00  0.00    +0.000 C 
ENDROOT
BRANCH   1   2
ATOM      2  N   UNL     1       6.795   5.888  18.317  0.00  0.00    +0.000 NA
ATOM      3  C   UNL     1       7.382   4.691  17.693  0.00  0.00    +0.000 C 
ATOM      4  C   UNL     1       6.316   4.178  16.743  0.00  0.00    +0.000 C 
ATOM      5  C   UNL     1       5.051   4.505  17.487  0.00  0.00    +0.000 C 
ATOM      6  C   UNL     1       3.745   4.667  16.743  0.00  0.00    +0.000 C 
ATOM      7  C   UNL     1       3.982   3.422  17.558  0.00  0.00    +0.000 C 
ATOM      8  C   UNL     1       5.384   5.492  18.590  0.00  0.00    +0.000 C 
BRANCH   7   9
ATOM      9  C   UNL     1       3.129   3.118  18.766  0.00  0.00    +0.000 A 
ATOM     10  C   UNL     1       3.720   2.627  19.946  0.00  0.00    +0.000 A 
ATOM     11  C   UNL     1       2.981   2.465  21.122  0.00  0.00    +0.000 A 
ATOM     12  C   UNL     1       1.628   2.772  21.127  0.00  0.00    +0.000 A 
ATOM     13  F   UNL     1       0.923   2.639  22.257  0.00  0.00    +0.000 F 
ATOM     14  C   UNL     1       1.004   3.251  19.986  0.00  0.00    +0.000 A 
ATOM     15  C   UNL     1       1.760   3.432  18.831  0.00  0.00    +0.000 A 
ATOM     16  F   UNL     1       1.152   3.968  17.761  0.00  0.00    +0.000 F 
ENDBRANCH   7   9
ENDBRANCH   1   2
BRANCH   1  17
ATOM     17  C   UNL     1       8.121   7.899  17.525  0.00  0.00    +0.000 C 
BRANCH  17  18
ATOM     18  C   UNL     1       7.883   9.353  17.948  0.00  0.00    +0.000 C 
BRANCH  18  19
ATOM     19  S   UNL     1       9.224  10.016  18.988  0.00  0.00    +0.000 S 
BRANCH  19  22
ATOM     20  C   UNL     1      11.131  12.452  19.948  0.00  0.00    +0.000 C 
ATOM     21  N   UNL     1      10.157  12.593  18.896  0.00  0.00    +0.000 N 
ATOM     22  C   UNL     1       9.249  11.663  18.467  0.00  0.00    +0.000 A 
ATOM     23  N   UNL     1       8.419  12.212  17.615  0.00  0.00    +0.000 NA
ATOM     24  N   UNL     1       8.801  13.518  17.448  0.00  0.00    +0.000 NA
ATOM     25  C   UNL     1       9.876  13.746  18.182  0.00  0.00    +0.000 A 
BRANCH  25  26
ATOM     26  C   UNL     1      10.577  15.026  18.248  0.00  0.00    +0.000 A 
ATOM     27  C   UNL     1      11.552  15.424  17.329  0.00  0.00    +0.000 A 
ATOM     28  C   UNL     1      12.194  16.653  17.476  0.00  0.00    +0.000 A 
ATOM     29  C   UNL     1      11.819  17.471  18.529  0.00  0.00    +0.000 A 
ATOM     30  N   UNL     1      10.858  17.145  19.416  0.00  0.00    +0.000 NA
ATOM     31  C   UNL     1      10.254  15.941  19.248  0.00  0.00    +0.000 A 
ENDBRANCH  25  26
ENDBRANCH  19  22
ENDBRANCH  18  19
ENDBRANCH  17  18
ENDBRANCH   1  17
TORSDOF 7
ENDMDL
MODEL 3
REMARK VINA RESULT:      -8.1      1.316      1.605
REMARK  Name = 
REMARK  8 active torsions:
REMARK  status: ('A' for Active; 'I' for Inactive)
REMARK    1  A    between atoms: C_1  and  N_2
REMARK    2  A    between atoms: C_3  and  S_4
REMARK    3  A    between atoms: S_4  and  C_5
REMARK    4  A    between atoms: C_5  and  C_6
REMARK    5  A    between atoms: C_6  and  C_7
REMARK    6  A    between atoms: C_7  and  N_8
REMARK    7  A    between atoms: C_13  and  C_14
REMARK    8  A    between atoms: C_25  and  C_26
REMARK                            x       y       z     vdW  Elec       q    Type
REMARK                         _______ _______ _______ _____ _____    ______ ____
ROOT
ATOM      1  C   UNL     1       7.377   7.140  17.963  0.00  0.00    +0.000 C 
ENDROOT
BRANCH   1   2
ATOM      2  N   UNL     1       7.202   5.815  18.582  0.00  0.00    +0.000 NA
ATOM      3  C   UNL     1       7.614   4.692  17.723  0.00  0.00    +0.000 C 
ATOM      4  C   UNL     1       6.476   4.513  16.736  0.00  0.00    +0.000 C 
ATOM      5  C   UNL     1       5.276   4.854  17.576  0.00  0.00    +0.000 C 
ATOM      6  C   UNL     1       3.995   5.323  16.927  0.00  0.00    +0.000 C 
ATOM      7  C   UNL     1       4.073   3.926  17.485  0.00  0.00    +0.000 C 
ATOM      8  C   UNL     1       5.755   5.562  18.831  0.00  0.00    +0.000 C 
BRANCH   7   9
ATOM      9  C   UNL     1       3.202   3.512  18.646  0.00  0.00    +0.000 A 
ATOM     10  C   UNL     1       3.777   2.914  19.785  0.00  0.00    +0.000 A 
ATOM     11  C   UNL     1       3.020   2.643  20.930  0.00  0.00    +0.000 A 
ATOM     12  C   UNL     1       1.666   2.948  20.943  0.00  0.00    +0.000 A 
ATOM     13  F   UNL     1       0.945   2.711  22.046  0.00  0.00    +0.000 F 
ATOM     14  C   UNL     1       1.059   3.531  19.843  0.00  0.00    +0.000 A 
ATOM     15  C   UNL     1       1.832   3.819  18.720  0.00  0.00    +0.000 A 
ATOM     16  F   UNL     1       1.239   4.451  17.696  0.00  0.00    +0.000 F 
ENDBRANCH   7   9
ENDBRANCH   1   2
BRANCH   1  17
ATOM     17  C   UNL     1       8.579   7.942  18.484  0.00  0.00    +0.000 C 
BRANCH  17  18
ATOM     18  C   UNL     1       8.373   9.456  18.361  0.00  0.00    +0.000 C 
BRANCH  18  19
ATOM     19  S   UNL     1       9.329  10.403  19.590  0.00  0.00    +0.000 S 
BRANCH  19  22
ATOM     20  C   UNL     1       8.512  13.354  20.645  0.00  0.00    +0.000 C 
ATOM     21  N   UNL     1       9.143  13.130  19.369  0.00  0.00    +0.000 N 
ATOM     22  C   UNL     1       9.454  11.929  18.790  0.00  0.00    +0.000 A 
ATOM     23  N   UNL     1       9.854  12.121  17.558  0.00  0.00    +0.000 NA
ATOM     24  N   UNL     1       9.842  13.471  17.323  0.00  0.00    +0.000 NA
ATOM     25  C   UNL     1       9.457  14.093  18.424  0.00  0.00    +0.000 A 
BRANCH  25  26
ATOM     26  C   UNL     1       9.337  15.543  18.558  0.00  0.00    +0.000 A 
ATOM     27  C   UNL     1      10.381  16.371  18.978  0.00  0.00    +0.000 A 
ATOM     28  C   UNL     1      10.179  17.745  19.104  0.00  0.00    +0.000 A 
ATOM     29  C   UNL     1       8.937  18.261  18.775  0.00  0.00    +0.000 A 
ATOM     30  N   UNL     1       7.914  17.505  18.329  0.00  0.00    +0.000 NA
ATOM     31  C   UNL     1       8.140  16.172  18.220  0.00  0.00    +0.000 A 
ENDBRANCH  25  26
ENDBRANCH  19  22
ENDBRANCH  18  19
ENDBRANCH  17  18
ENDBRANCH   1  17
TORSDOF 7
ENDMDL
MODEL 4
REMARK VINA RESULT:      -8.0      2.132      2.643
REMARK  Name = 
REMARK  8 active torsions:
REMARK  status: ('A' for Active; 'I' for Inactive)
REMARK    1  A    between atoms: C_1  and  N_2
REMARK    2  A    between atoms: C_3  and  S_4
REMARK    3  A    between atoms: S_4  and  C_5
REMARK    4  A    between atoms: C_5  and  C_6
REMARK    5  A    between atoms: C_6  and  C_7
REMARK    6  A    between atoms: C_7  and  N_8
REMARK    7  A    between atoms: C_13  and  C_14
REMARK    8  A    between atoms: C_25  and  C_26
REMARK                            x       y       z     vdW  Elec       q    Type
REMARK                         _______ _______ _______ _____ _____    ______ ____
ROOT
ATOM      1  C   UNL     1       7.465   7.118  17.717  0.00  0.00    +0.000 C 
ENDROOT
BRANCH   1   2
ATOM      2  N   UNL     1       7.281   5.848  18.442  0.00  0.00    +0.000 NA
ATOM      3  C   UNL     1       7.567   4.650  17.635  0.00  0.00    +0.000 C 
ATOM      4  C   UNL     1       6.343   4.464  16.758  0.00  0.00    +0.000 C 
ATOM      5  C   UNL     1       5.235   4.924  17.665  0.00  0.00    +0.000 C 
ATOM      6  C   UNL     1       3.927   5.414  17.089  0.00  0.00    +0.000 C 
ATOM      7  C   UNL     1       3.986   4.055  17.738  0.00  0.00    +0.000 C 
ATOM      8  C   UNL     1       5.849   5.688  18.823  0.00  0.00    +0.000 C 
BRANCH   7   9
ATOM      9  C   UNL     1       3.198   3.767  18.992  0.00  0.00    +0.000 A 
ATOM     10  C   UNL     1       1.873   4.228  19.118  0.00  0.00    +0.000 A 
ATOM     11  C   UNL     1       1.072   3.864  20.205  0.00  0.00    +0.000 A 
ATOM     12  C   UNL     1       1.595   3.048  21.197  0.00  0.00    +0.000 A 
ATOM     13  F   UNL     1       0.823   2.679  22.227  0.00  0.00    +0.000 F 
ATOM     14  C   UNL     1       2.895   2.577  21.116  0.00  0.00    +0.000 A 
ATOM     15  C   UNL     1       3.672   2.927  20.015  0.00  0.00    +0.000 A 
ATOM     16  F   UNL     1       4.902   2.399  19.921  0.00  0.00    +0.000 F 
ENDBRANCH   7   9
ENDBRANCH   1   2
BRANCH   1  17
ATOM     17  C   UNL     1       8.410   8.118  18.399  0.00  0.00    +0.000 C 
BRANCH  17  18
ATOM     18  C   UNL     1       8.108   9.570  18.009  0.00  0.00    +0.000 C 
BRANCH  18  19
ATOM     19  S   UNL     1       9.571  10.651  18.120  0.00  0.00    +0.000 S 
BRANCH  19  22
ATOM     20  C   UNL     1       8.973  13.763  18.792  0.00  0.00    +0.000 C 
ATOM     21  N   UNL     1       8.974  12.734  19.800  0.00  0.00    +0.000 N 
ATOM     22  C   UNL     1       9.291  11.412  19.646  0.00  0.00    +0.000 A 
ATOM     23  N   UNL     1       9.347  10.829  20.817  0.00  0.00    +0.000 NA
ATOM     24  N   UNL     1       9.029  11.767  21.763  0.00  0.00    +0.000 NA
ATOM     25  C   UNL     1       8.758  12.910  21.157  0.00  0.00    +0.000 A 
BRANCH  25  26
ATOM     26  C   UNL     1       8.364  14.139  21.844  0.00  0.00    +0.000 A 
ATOM     27  C   UNL     1       9.276  15.039  22.402  0.00  0.00    +0.000 A 
ATOM     28  C   UNL     1       8.820  16.179  23.064  0.00  0.00    +0.000 A 
ATOM     29  C   UNL     1       7.455  16.403  23.124  0.00  0.00    +0.000 A 
ATOM     30  N   UNL     1       6.542  15.582  22.567  0.00  0.00    +0.000 NA
ATOM     31  C   UNL     1       7.017  14.481  21.933  0.00  0.00    +0.000 A 
ENDBRANCH  25  26
ENDBRANCH  19  22
ENDBRANCH  18  19
ENDBRANCH  17  18
ENDBRANCH   1  17
TORSDOF 7
ENDMDL
MODEL 5
REMARK VINA RESULT:      -8.0      1.843      2.183
REMARK  Name = 
REMARK  8 active torsions:
REMARK  status: ('A' for Active; 'I' for Inactive)
REMARK    1  A    between atoms: C_1  and  N_2
REMARK    2  A    between atoms: C_3  and  S_4
REMARK    3  A    between atoms: S_4  and  C_5
REMARK    4  A    between atoms: C_5  and  C_6
REMARK    5  A    between atoms: C_6  and  C_7
REMARK    6  A    between atoms: C_7  and  N_8
REMARK    7  A    between atoms: C_13  and  C_14
REMARK    8  A    between atoms: C_25  and  C_26
REMARK                            x       y       z     vdW  Elec       q    Type
REMARK                         _______ _______ _______ _____ _____    ______ ____
ROOT
ATOM      1  C   UNL     1       7.398   7.036  17.695  0.00  0.00    +0.000 C 
ENDROOT
BRANCH   1   2
ATOM      2  N   UNL     1       7.239   5.763  18.419  0.00  0.00    +0.000 NA
ATOM      3  C   UNL     1       7.705   4.584  17.670  0.00  0.00    +0.000 C 
ATOM      4  C   UNL     1       6.601   4.291  16.671  0.00  0.00    +0.000 C 
ATOM      5  C   UNL     1       5.369   4.668  17.446  0.00  0.00    +0.000 C 
ATOM      6  C   UNL     1       4.096   5.044  16.724  0.00  0.00    +0.000 C 
ATOM      7  C   UNL     1       4.193   3.702  17.401  0.00  0.00    +0.000 C 
ATOM      8  C   UNL     1       5.792   5.491  18.648  0.00  0.00    +0.000 C 
BRANCH   7   9
ATOM      9  C   UNL     1       3.299   3.362  18.569  0.00  0.00    +0.000 A 
ATOM     10  C   UNL     1       3.845   2.797  19.738  0.00  0.00    +0.000 A 
ATOM     11  C   UNL     1       3.070   2.597  20.885  0.00  0.00    +0.000 A 
ATOM     12  C   UNL     1       1.726   2.940  20.870  0.00  0.00    +0.000 A 
ATOM     13  F   UNL     1       0.987   2.771  21.974  0.00  0.00    +0.000 F 
ATOM     14  C   UNL     1       1.146   3.493  19.740  0.00  0.00    +0.000 A 
ATOM     15  C   UNL     1       1.938   3.711  18.614  0.00  0.00    +0.000 A 
ATOM     16  F   UNL     1       1.373   4.316  17.558  0.00  0.00    +0.000 F 
ENDBRANCH   7   9
ENDBRANCH   1   2
BRANCH   1  17
ATOM     17  C   UNL     1       8.324   8.054  18.377  0.00  0.00    +0.000 C 
BRANCH  17  18
ATOM     18  C   UNL     1       8.095   9.485  17.874  0.00  0.00    +0.000 C 
BRANCH  18  19
ATOM     19  S   UNL     1       9.461  10.612  18.301  0.00  0.00    +0.000 S 
BRANCH  19  22
ATOM     20  C   UNL     1       9.502  13.158  20.303  0.00  0.00    +0.000 C 
ATOM     21  N   UNL     1       8.824  13.177  19.032  0.00  0.00    +0.000 N 
ATOM     22  C   UNL     1       8.672  12.142  18.149  0.00  0.00    +0.000 A 
ATOM     23  N   UNL     1       7.850  12.491  17.192  0.00  0.00    +0.000 NA
ATOM     24  N   UNL     1       7.475  13.789  17.420  0.00  0.00    +0.000 NA
ATOM     25  C   UNL     1       8.092  14.228  18.503  0.00  0.00    +0.000 A 
BRANCH  25  26
ATOM     26  C   UNL     1       7.948  15.576  19.050  0.00  0.00    +0.000 A 
ATOM     27  C   UNL     1       8.787  16.642  18.712  0.00  0.00    +0.000 A 
ATOM     28  C   UNL     1       8.600  17.893  19.298  0.00  0.00    +0.000 A 
ATOM     29  C   UNL     1       7.552  18.054  20.188  0.00  0.00    +0.000 A 
ATOM     30  N   UNL     1       6.696  17.065  20.513  0.00  0.00    +0.000 NA
ATOM     31  C   UNL     1       6.906  15.858  19.930  0.00  0.00    +0.000 A 
ENDBRANCH  25  26
ENDBRANCH  19  22
ENDBRANCH  18  19
ENDBRANCH  17  18
ENDBRANCH   1  17
TORSDOF 7
ENDMDL
MODEL 6
REMARK VINA RESULT:      -8.0      1.231      1.614
REMARK  Name = 
REMARK  8 active torsions:
REMARK  status: ('A' for Active; 'I' for Inactive)
REMARK    1  A    between atoms: C_1  and  N_2
REMARK    2  A    between atoms: C_3  and  S_4
REMARK    3  A    between atoms: S_4  and  C_5
REMARK    4  A    between atoms: C_5  and  C_6
REMARK    5  A    between atoms: C_6  and  C_7
REMARK    6  A    between atoms: C_7  and  N_8
REMARK    7  A    between atoms: C_13  and  C_14
REMARK    8  A    between atoms: C_25  and  C_26
REMARK                            x       y       z     vdW  Elec       q    Type
REMARK                         _______ _______ _______ _____ _____    ______ ____
ROOT
ATOM      1  C   UNL     1       7.080   7.624  17.390  0.00  0.00    +0.000 C 
ENDROOT
BRANCH   1   2
ATOM      2  N   UNL     1       6.796   6.184  17.514  0.00  0.00    +0.000 NA
ATOM      3  C   UNL     1       6.469   5.525  16.239  0.00  0.00    +0.000 C 
ATOM      4  C   UNL     1       5.028   5.906  15.956  0.00  0.00    +0.000 C 
ATOM      5  C   UNL     1       4.438   5.949  17.338  0.00  0.00    +0.000 C 
ATOM      6  C   UNL     1       3.202   6.772  17.618  0.00  0.00    +0.000 C 
ATOM      7  C   UNL     1       3.090   5.271  17.544  0.00  0.00    +0.000 C 
ATOM      8  C   UNL     1       5.575   5.981  18.344  0.00  0.00    +0.000 C 
BRANCH   7   9
ATOM      9  C   UNL     1       2.696   4.468  18.759  0.00  0.00    +0.000 A 
ATOM     10  C   UNL     1       2.791   3.063  18.741  0.00  0.00    +0.000 A 
ATOM     11  C   UNL     1       2.564   2.299  19.891  0.00  0.00    +0.000 A 
ATOM     12  C   UNL     1       2.213   2.933  21.074  0.00  0.00    +0.000 A 
ATOM     13  F   UNL     1       2.017   2.206  22.181  0.00  0.00    +0.000 F 
ATOM     14  C   UNL     1       2.101   4.312  21.135  0.00  0.00    +0.000 A 
ATOM     15  C   UNL     1       2.356   5.061  19.988  0.00  0.00    +0.000 A 
ATOM     16  F   UNL     1       2.315   6.398  20.089  0.00  0.00    +0.000 F 
ENDBRANCH   7   9
ENDBRANCH   1   2
BRANCH   1  17
ATOM     17  C   UNL     1       8.234   8.132  18.267  0.00  0.00    +0.000 C 
BRANCH  17  18
ATOM     18  C   UNL     1       8.490   9.633  18.091  0.00  0.00    +0.000 C 
BRANCH  18  19
ATOM     19  S   UNL     1       9.387  10.368  19.496  0.00  0.00    +0.000 S 
BRANCH  19  22
ATOM     20  C   UNL     1       9.151  13.558  20.004  0.00  0.00    +0.000 C 
ATOM     21  N   UNL     1      10.078  12.986  19.060  0.00  0.00    +0.000 N 
ATOM     22  C   UNL     1      10.205  11.669  18.707  0.00  0.00    +0.000 A 
ATOM     23  N   UNL     1      11.030  11.559  17.697  0.00  0.00    +0.000 NA
ATOM     24  N   UNL     1      11.486  12.815  17.393  0.00  0.00    +0.000 NA
ATOM     25  C   UNL     1      10.952  13.679  18.240  0.00  0.00    +0.000 A 
BRANCH  25  26
ATOM     26  C   UNL     1      11.217  15.116  18.233  0.00  0.00    +0.000 A 
ATOM     27  C   UNL     1      10.752  15.984  17.241  0.00  0.00    +0.000 A 
ATOM     28  C   UNL     1      11.069  17.341  17.292  0.00  0.00    +0.000 A 
ATOM     29  C   UNL     1      11.823  17.801  18.359  0.00  0.00    +0.000 A 
ATOM     30  N   UNL     1      12.259  17.008  19.357  0.00  0.00    +0.000 NA
ATOM     31  C   UNL     1      11.937  15.692  19.277  0.00  0.00    +0.000 A 
ENDBRANCH  25  26
ENDBRANCH  19  22
ENDBRANCH  18  19
ENDBRANCH  17  18
ENDBRANCH   1  17
TORSDOF 7
ENDMDL
MODEL 7
REMARK VINA RESULT:      -7.9      1.198      1.473
REMARK  Name = 
REMARK  8 active torsions:
REMARK  status: ('A' for Active; 'I' for Inactive)
REMARK    1  A    between atoms: C_1  and  N_2
REMARK    2  A    between atoms: C_3  and  S_4
REMARK    3  A    between atoms: S_4  and  C_5
REMARK    4  A    between atoms: C_5  and  C_6
REMARK    5  A    between atoms: C_6  and  C_7
REMARK    6  A    between atoms: C_7  and  N_8
REMARK    7  A    between atoms: C_13  and  C_14
REMARK    8  A    between atoms: C_25  and  C_26
REMARK                            x       y       z     vdW  Elec       q    Type
REMARK                         _______ _______ _______ _____ _____    ______ ____
ROOT
ATOM      1  C   UNL     1       6.951   7.222  17.438  0.00  0.00    +0.000 C 
ENDROOT
BRANCH   1   2
ATOM      2  N   UNL     1       6.921   6.054  18.336  0.00  0.00    +0.000 NA
ATOM      3  C   UNL     1       7.408   4.809  17.717  0.00  0.00    +0.000 C 
ATOM      4  C   UNL     1       6.259   4.323  16.852  0.00  0.00    +0.000 C 
ATOM      5  C   UNL     1       5.062   4.738  17.662  0.00  0.00    +0.000 C 
ATOM      6  C   UNL     1       3.721   4.944  16.996  0.00  0.00    +0.000 C 
ATOM      7  C   UNL     1       3.948   3.714  17.836  0.00  0.00    +0.000 C 
ATOM      8  C   UNL     1       5.513   5.740  18.708  0.00  0.00    +0.000 C 
BRANCH   7   9
ATOM      9  C   UNL     1       3.159   3.492  19.103  0.00  0.00    +0.000 A 
ATOM     10  C   UNL     1       1.816   3.909  19.185  0.00  0.00    +0.000 A 
ATOM     11  C   UNL     1       1.019   3.597  20.291  0.00  0.00    +0.000 A 
ATOM     12  C   UNL     1       1.564   2.881  21.347  0.00  0.00    +0.000 A 
ATOM     13  F   UNL     1       0.797   2.563  22.397  0.00  0.00    +0.000 F 
ATOM     14  C   UNL     1       2.883   2.457  21.311  0.00  0.00    +0.000 A 
ATOM     15  C   UNL     1       3.656   2.752  20.191  0.00  0.00    +0.000 A 
ATOM     16  F   UNL     1       4.906   2.266  20.146  0.00  0.00    +0.000 F 
ENDBRANCH   7   9
ENDBRANCH   1   2
BRANCH   1  17
ATOM     17  C   UNL     1       8.209   8.095  17.557  0.00  0.00    +0.000 C 
BRANCH  17  18
ATOM     18  C   UNL     1       7.915   9.465  18.181  0.00  0.00    +0.000 C 
BRANCH  18  19
ATOM     19  S   UNL     1       9.253  10.047  19.272  0.00  0.00    +0.000 S 
BRANCH  19  22
ATOM     20  C   UNL     1       9.947  12.613  21.122  0.00  0.00    +0.000 C 
ATOM     21  N   UNL     1       9.682  12.720  19.710  0.00  0.00    +0.000 N 
ATOM     22  C   UNL     1       9.300  11.722  18.853  0.00  0.00    +0.000 A 
ATOM     23  N   UNL     1       8.984  12.233  17.690  0.00  0.00    +0.000 NA
ATOM     24  N   UNL     1       9.190  13.586  17.761  0.00  0.00    +0.000 NA
ATOM     25  C   UNL     1       9.654  13.885  18.962  0.00  0.00    +0.000 A 
BRANCH  25  26
ATOM     26  C   UNL     1      10.004  15.234  19.403  0.00  0.00    +0.000 A 
ATOM     27  C   UNL     1       9.094  16.115  19.995  0.00  0.00    +0.000 A 
ATOM     28  C   UNL     1       9.500  17.396  20.366  0.00  0.00    +0.000 A 
ATOM     29  C   UNL     1      10.822  17.754  20.161  0.00  0.00    +0.000 A 
ATOM     30  N   UNL     1      11.741  16.924  19.629  0.00  0.00    +0.000 NA
ATOM     31  C   UNL     1      11.316  15.686  19.275  0.00  0.00    +0.000 A 
ENDBRANCH  25  26
ENDBRANCH  19  22
ENDBRANCH  18  19
ENDBRANCH  17  18
ENDBRANCH   1  17
TORSDOF 7
ENDMDL
MODEL 8
REMARK VINA RESULT:      -7.8      2.099      2.668
REMARK  Name = 
REMARK  8 active torsions:
REMARK  status: ('A' for Active; 'I' for Inactive)
REMARK    1  A    between atoms: C_1  and  N_2
REMARK    2  A    between atoms: C_3  and  S_4
REMARK    3  A    between atoms: S_4  and  C_5
REMARK    4  A    between atoms: C_5  and  C_6
REMARK    5  A    between atoms: C_6  and  C_7
REMARK    6  A    between atoms: C_7  and  N_8
REMARK    7  A    between atoms: C_13  and  C_14
REMARK    8  A    between atoms: C_25  and  C_26
REMARK                            x       y       z     vdW  Elec       q    Type
REMARK                         _______ _______ _______ _____ _____    ______ ____
ROOT
ATOM      1  C   UNL     1       7.289   7.174  17.835  0.00  0.00    +0.000 C 
ENDROOT
BRANCH   1   2
ATOM      2  N   UNL     1       7.163   5.901  18.567  0.00  0.00    +0.000 NA
ATOM      3  C   UNL     1       7.680   4.734  17.834  0.00  0.00    +0.000 C 
ATOM      4  C   UNL     1       6.603   4.395  16.820  0.00  0.00    +0.000 C 
ATOM      5  C   UNL     1       5.347   4.735  17.573  0.00  0.00    +0.000 C 
ATOM      6  C   UNL     1       4.073   5.062  16.830  0.00  0.00    +0.000 C 
ATOM      7  C   UNL     1       4.205   3.728  17.518  0.00  0.00    +0.000 C 
ATOM      8  C   UNL     1       5.722   5.581  18.776  0.00  0.00    +0.000 C 
BRANCH   7   9
ATOM      9  C   UNL     1       3.306   3.366  18.675  0.00  0.00    +0.000 A 
ATOM     10  C   UNL     1       3.851   2.813  19.850  0.00  0.00    +0.000 A 
ATOM     11  C   UNL     1       3.067   2.593  20.987  0.00  0.00    +0.000 A 
ATOM     12  C   UNL     1       1.716   2.904  20.957  0.00  0.00    +0.000 A 
ATOM     13  F   UNL     1       0.968   2.716  22.051  0.00  0.00    +0.000 F 
ATOM     14  C   UNL     1       1.137   3.444  19.819  0.00  0.00    +0.000 A 
ATOM     15  C   UNL     1       1.936   3.682  18.704  0.00  0.00    +0.000 A 
ATOM     16  F   UNL     1       1.371   4.274  17.641  0.00  0.00    +0.000 F 
ENDBRANCH   7   9
ENDBRANCH   1   2
BRANCH   1  17
ATOM     17  C   UNL     1       8.399   8.104  18.348  0.00  0.00    +0.000 C 
BRANCH  17  18
ATOM     18  C   UNL     1       8.100   9.583  18.071  0.00  0.00    +0.000 C 
BRANCH  18  19
ATOM     19  S   UNL     1       9.584  10.635  18.166  0.00  0.00    +0.000 S 
BRANCH  19  22
ATOM     20  C   UNL     1       9.416  13.792  18.868  0.00  0.00    +0.000 C 
ATOM     21  N   UNL     1       9.203  12.763  19.854  0.00  0.00    +0.000 N 
ATOM     22  C   UNL     1       9.329  11.410  19.689  0.00  0.00    +0.000 A 
ATOM     23  N   UNL     1       9.227  10.810  20.849  0.00  0.00    +0.000 NA
ATOM     24  N   UNL     1       8.995  11.774  21.795  0.00  0.00    +0.000 NA
ATOM     25  C   UNL     1       8.934  12.952  21.199  0.00  0.00    +0.000 A 
BRANCH  25  26
ATOM     26  C   UNL     1       8.687  14.217  21.887  0.00  0.00    +0.000 A 
ATOM     27  C   UNL     1       9.698  15.004  22.446  0.00  0.00    +0.000 A 
ATOM     28  C   UNL     1       9.378  16.188  23.110  0.00  0.00    +0.000 A 
ATOM     29  C   UNL     1       8.048  16.570  23.172  0.00  0.00    +0.000 A 
ATOM     30  N   UNL     1       7.046  15.863  22.615  0.00  0.00    +0.000 NA
ATOM     31  C   UNL     1       7.389  14.714  21.979  0.00  0.00    +0.000 A 
ENDBRANCH  25  26
ENDBRANCH  19  22
ENDBRANCH  18  19
ENDBRANCH  17  18
ENDBRANCH   1  17
TORSDOF 7
ENDMDL
MODEL 9
REMARK VINA RESULT:      -7.8      4.551     11.839
REMARK  Name = 
REMARK  8 active torsions:
REMARK  status: ('A' for Active; 'I' for Inactive)
REMARK    1  A    between atoms: C_1  and  N_2
REMARK    2  A    between atoms: C_3  and  S_4
REMARK    3  A    between atoms: S_4  and  C_5
REMARK    4  A    between atoms: C_5  and  C_6
REMARK    5  A    between atoms: C_6  and  C_7
REMARK    6  A    between atoms: C_7  and  N_8
REMARK    7  A    between atoms: C_13  and  C_14
REMARK    8  A    between atoms: C_25  and  C_26
REMARK                            x       y       z     vdW  Elec       q    Type
REMARK                         _______ _______ _______ _____ _____    ______ ____
ROOT
ATOM      1  C   UNL     1       9.173   9.863  18.550  0.00  0.00    +0.000 C 
ENDROOT
BRANCH   1   2
ATOM      2  N   UNL     1       9.417  11.215  18.016  0.00  0.00    +0.000 NA
ATOM      3  C   UNL     1      10.836  11.511  17.759  0.00  0.00    +0.000 C 
ATOM      4  C   UNL     1      11.429  11.813  19.123  0.00  0.00    +0.000 C 
ATOM      5  C   UNL     1      10.285  12.498  19.817  0.00  0.00    +0.000 C 
ATOM      6  C   UNL     1      10.206  12.517  21.326  0.00  0.00    +0.000 C 
ATOM      7  C   UNL     1      10.600  13.772  20.591  0.00  0.00    +0.000 C 
ATOM      8  C   UNL     1       9.017  12.235  19.027  0.00  0.00    +0.000 C 
BRANCH   7   9
ATOM      9  C   UNL     1       9.724  15.000  20.641  0.00  0.00    +0.000 A 
ATOM     10  C   UNL     1       9.064  15.351  21.834  0.00  0.00    +0.000 A 
ATOM     11  C   UNL     1       8.356  16.552  21.952  0.00  0.00    +0.000 A 
ATOM     12  C   UNL     1       8.281  17.411  20.866  0.00  0.00    +0.000 A 
ATOM     13  F   UNL     1       7.624  18.572  20.984  0.00  0.00    +0.000 F 
ATOM     14  C   UNL     1       8.910  17.102  19.671  0.00  0.00    +0.000 A 
ATOM     15  C   UNL     1       9.633  15.915  19.577  0.00  0.00    +0.000 A 
ATOM     16  F   UNL     1      10.296  15.672  18.436  0.00  0.00    +0.000 F 
ENDBRANCH   7   9
ENDBRANCH   1   2
BRANCH   1  17
ATOM     17  C   UNL     1       8.010   9.109  17.888  0.00  0.00    +0.000 C 
BRANCH  17  18
ATOM     18  C   UNL     1       7.991   7.620  18.254  0.00  0.00    +0.000 C 
BRANCH  18  19
ATOM     19  S   UNL     1       7.201   6.587  16.978  0.00  0.00    +0.000 S 
BRANCH  19  22
ATOM     20  C   UNL     1       3.997   6.471  17.437  0.00  0.00    +0.000 C 
ATOM     21  N   UNL     1       4.903   5.516  18.023  0.00  0.00    +0.000 N 
ATOM     22  C   UNL     1       6.271   5.517  17.965  0.00  0.00    +0.000 A 
ATOM     23  N   UNL     1       6.749   4.594  18.761  0.00  0.00    +0.000 NA
ATOM     24  N   UNL     1       5.685   3.946  19.332  0.00  0.00    +0.000 NA
ATOM     25  C   UNL     1       4.565   4.465  18.859  0.00  0.00    +0.000 A 
BRANCH  25  26
ATOM     26  C   UNL     1       3.224   4.019  19.230  0.00  0.00    +0.000 A 
ATOM     27  C   UNL     1       2.503   3.057  18.517  0.00  0.00    +0.000 A 
ATOM     28  C   UNL     1       1.216   2.703  18.922  0.00  0.00    +0.000 A 
ATOM     29  C   UNL     1       0.694   3.303  20.055  0.00  0.00    +0.000 A 
ATOM     30  N   UNL     1       1.368   4.206  20.795  0.00  0.00    +0.000 NA
ATOM     31  C   UNL     1       2.616   4.532  20.374  0.00  0.00    +0.000 A 
ENDBRANCH  25  26
ENDBRANCH  19  22
ENDBRANCH  18  19
ENDBRANCH  17  18
ENDBRANCH   1  17
TORSDOF 7
ENDMDL
