MODEL 1
REMARK VINA RESULT:      -8.2      0.000      0.000
REMARK  Name = 
REMARK  4 active torsions:
REMARK  status: ('A' for Active; 'I' for Inactive)
REMARK    1  A    between atoms: C_4  and  C_5
REMARK    2  A    between atoms: C_7  and  C_8
REMARK    3  A    between atoms: C_13  and  N_14
REMARK    4  A    between atoms: N_14  and  C_15
REMARK                            x       y       z     vdW  Elec       q    Type
REMARK                         _______ _______ _______ _____ _____    ______ ____
ROOT
ATOM      1  C   UNL     1       2.200   7.933  18.976  0.00  0.00    +0.000 A 
ATOM      2  N   UNL     1       2.957   7.665  17.937  0.00  0.00    +0.000 NA
ATOM      3  C   UNL     1       3.504   6.418  18.232  0.00  0.00    +0.000 A 
ATOM      4  C   UNL     1       3.102   6.030  19.502  0.00  0.00    +0.000 A 
ATOM      5  O   UNL     1       2.264   7.001  19.959  0.00  0.00    +0.000 OA
ENDROOT
BRANCH   1   9
ATOM      6  C   UNL     1      -0.673  11.006  19.681  0.00  0.00    +0.000 A 
ATOM      7  C   UNL     1      -0.272  10.701  18.378  0.00  0.00    +0.000 A 
ATOM      8  C   UNL     1       0.688   9.710  18.145  0.00  0.00    +0.000 A 
ATOM      9  C   UNL     1       1.252   9.009  19.215  0.00  0.00    +0.000 A 
ATOM     10  C   UNL     1       0.849   9.338  20.521  0.00  0.00    +0.000 A 
ATOM     11  C   UNL     1      -0.103  10.329  20.751  0.00  0.00    +0.000 A 
ENDBRANCH   1   9
BRANCH   3  12
ATOM     12  C   UNL     1       4.302   5.714  17.182  0.00  0.00    +0.000 A 
ATOM     13  C   UNL     1       4.964   6.415  16.190  0.00  0.00    +0.000 A 
ATOM     14  C   UNL     1       5.667   5.565  15.291  0.00  0.00    +0.000 A 
ATOM     15  C   UNL     1       5.453   4.236  15.581  0.00  0.00    +0.000 A 
ATOM     16  S   UNL     1       4.464   4.034  16.969  0.00  0.00    +0.000 S 
ENDBRANCH   3  12
BRANCH   4  17
ATOM     17  N   UNL     1       3.192   5.049  20.417  0.00  0.00    +0.000 N 
ATOM     18  H   UNL     1       4.007   4.464  20.256  0.00  0.00    +0.000 HD
BRANCH  17  19
ATOM     19  C   UNL     1       2.112   4.327  21.062  0.00  0.00    +0.000 C 
ATOM     20  C   UNL     1       0.907   4.179  20.106  0.00  0.00    +0.000 C 
ATOM     21  C   UNL     1       1.222   3.373  18.839  0.00  0.00    +0.000 C 
ATOM     22  C   UNL     1       1.889   2.033  19.142  0.00  0.00    +0.000 C 
ATOM     23  C   UNL     1       3.047   2.151  20.128  0.00  0.00    +0.000 C 
ATOM     24  C   UNL     1       2.644   2.924  21.394  0.00  0.00    +0.000 C 
ENDBRANCH  17  19
ENDBRANCH   4  17
TORSDOF 4
ENDMDL
MODEL 2
REMARK VINA RESULT:      -8.1      1.413      2.092
REMARK  Name = 
REMARK  4 active torsions:
REMARK  status: ('A' for Active; 'I' for Inactive)
REMARK    1  A    between atoms: C_4  and  C_5
REMARK    2  A    between atoms: C_7  and  C_8
REMARK    3  A    between atoms: C_13  and  N_14
REMARK    4  A    between atoms: N_14  and  C_15
REMARK                            x       y       z     vdW  Elec       q    Type
REMARK                         _______ _______ _______ _____ _____    ______ ____
ROOT
ATOM      1  C   UNL     1       2.800   7.075  18.284  0.00  0.00    +0.000 A 
ATOM      2  N   UNL     1       3.978   7.006  17.708  0.00  0.00    +0.000 NA
ATOM      3  C   UNL     1       4.069   5.680  17.286  0.00  0.00    +0.000 A 
ATOM      4  C   UNL     1       2.948   4.986  17.716  0.00  0.00    +0.000 A 
ATOM      5  O   UNL     1       2.144   5.890  18.342  0.00  0.00    +0.000 OA
ENDROOT
BRANCH   1   9
ATOM      6  C   UNL     1       0.502  10.351  19.761  0.00  0.00    +0.000 A 
ATOM      7  C   UNL     1       0.928  10.332  18.431  0.00  0.00    +0.000 A 
ATOM      8  C   UNL     1       1.703   9.270  17.949  0.00  0.00    +0.000 A 
ATOM      9  C   UNL     1       2.053   8.213  18.794  0.00  0.00    +0.000 A 
ATOM     10  C   UNL     1       1.629   8.255  20.134  0.00  0.00    +0.000 A 
ATOM     11  C   UNL     1       0.862   9.315  20.612  0.00  0.00    +0.000 A 
ENDBRANCH   1   9
BRANCH   3  12
ATOM     12  C   UNL     1       5.225   5.273  16.432  0.00  0.00    +0.000 A 
ATOM     13  C   UNL     1       5.079   4.340  15.420  0.00  0.00    +0.000 A 
ATOM     14  C   UNL     1       6.293   4.091  14.722  0.00  0.00    +0.000 A 
ATOM     15  C   UNL     1       7.346   4.785  15.275  0.00  0.00    +0.000 A 
ATOM     16  S   UNL     1       6.844   5.775  16.584  0.00  0.00    +0.000 S 
ENDBRANCH   3  12
BRANCH   4  17
ATOM     17  N   UNL     1       2.345   3.784  17.706  0.00  0.00    +0.000 N 
ATOM     18  H   UNL     1       1.338   3.873  17.600  0.00  0.00    +0.000 HD
BRANCH  17  19
ATOM     19  C   UNL     1       2.719   2.590  18.441  0.00  0.00    +0.000 C 
ATOM     20  C   UNL     1       3.558   2.957  19.686  0.00  0.00    +0.000 C 
ATOM     21  C   UNL     1       2.806   3.828  20.701  0.00  0.00    +0.000 C 
ATOM     22  C   UNL     1       1.439   3.256  21.071  0.00  0.00    +0.000 C 
ATOM     23  C   UNL     1       0.617   2.838  19.856  0.00  0.00    +0.000 C 
ATOM     24  C   UNL     1       1.416   1.925  18.912  0.00  0.00    +0.000 C 
ENDBRANCH  17  19
ENDBRANCH   4  17
TORSDOF 4
ENDMDL
MODEL 3
REMARK VINA RESULT:      -8.1      1.417      2.293
REMARK  Name = 
REMARK  4 active torsions:
REMARK  status: ('A' for Active; 'I' for Inactive)
REMARK    1  A    between atoms: C_4  and  C_5
REMARK    2  A    between atoms: C_7  and  C_8
REMARK    3  A    between atoms: C_13  and  N_14
REMARK    4  A    between atoms: N_14  and  C_15
REMARK                            x       y       z     vdW  Elec       q    Type
REMARK                         _______ _______ _______ _____ _____    ______ ____
ROOT
ATOM      1  C   UNL     1       2.825   7.127  18.265  0.00  0.00    +0.000 A 
ATOM      2  N   UNL     1       3.992   7.061  17.667  0.00  0.00    +0.000 NA
ATOM      3  C   UNL     1       4.098   5.726  17.282  0.00  0.00    +0.000 A 
ATOM      4  C   UNL     1       2.998   5.024  17.753  0.00  0.00    +0.000 A 
ATOM      5  O   UNL     1       2.191   5.933  18.369  0.00  0.00    +0.000 OA
ENDROOT
BRANCH   1   9
ATOM      6  C   UNL     1       0.710  10.525  19.740  0.00  0.00    +0.000 A 
ATOM      7  C   UNL     1       0.896   9.403  20.552  0.00  0.00    +0.000 A 
ATOM      8  C   UNL     1       1.569   8.278  20.063  0.00  0.00    +0.000 A 
ATOM      9  C   UNL     1       2.068   8.266  18.757  0.00  0.00    +0.000 A 
ATOM     10  C   UNL     1       1.859   9.397  17.948  0.00  0.00    +0.000 A 
ATOM     11  C   UNL     1       1.185  10.514  18.436  0.00  0.00    +0.000 A 
ENDBRANCH   1   9
BRANCH   3  12
ATOM     12  C   UNL     1       5.244   5.314  16.416  0.00  0.00    +0.000 A 
ATOM     13  C   UNL     1       5.087   4.375  15.412  0.00  0.00    +0.000 A 
ATOM     14  C   UNL     1       6.293   4.122  14.701  0.00  0.00    +0.000 A 
ATOM     15  C   UNL     1       7.352   4.820  15.238  0.00  0.00    +0.000 A 
ATOM     16  S   UNL     1       6.864   5.817  16.547  0.00  0.00    +0.000 S 
ENDBRANCH   3  12
BRANCH   4  17
ATOM     17  N   UNL     1       2.416   3.813  17.789  0.00  0.00    +0.000 N 
ATOM     18  H   UNL     1       1.405   3.883  17.719  0.00  0.00    +0.000 HD
BRANCH  17  19
ATOM     19  C   UNL     1       2.838   2.641  18.533  0.00  0.00    +0.000 C 
ATOM     20  C   UNL     1       3.560   3.052  19.836  0.00  0.00    +0.000 C 
ATOM     21  C   UNL     1       2.673   3.841  20.808  0.00  0.00    +0.000 C 
ATOM     22  C   UNL     1       1.337   3.154  21.079  0.00  0.00    +0.000 C 
ATOM     23  C   UNL     1       0.633   2.691  19.807  0.00  0.00    +0.000 C 
ATOM     24  C   UNL     1       1.565   1.863  18.907  0.00  0.00    +0.000 C 
ENDBRANCH  17  19
ENDBRANCH   4  17
TORSDOF 4
ENDMDL
MODEL 4
REMARK VINA RESULT:      -8.1      0.184      1.021
REMARK  Name = 
REMARK  4 active torsions:
REMARK  status: ('A' for Active; 'I' for Inactive)
REMARK    1  A    between atoms: C_4  and  C_5
REMARK    2  A    between atoms: C_7  and  C_8
REMARK    3  A    between atoms: C_13  and  N_14
REMARK    4  A    between atoms: N_14  and  C_15
REMARK                            x       y       z     vdW  Elec       q    Type
REMARK                         _______ _______ _______ _____ _____    ______ ____
ROOT
ATOM      1  C   UNL     1       2.088   7.990  19.120  0.00  0.00    +0.000 A 
ATOM      2  N   UNL     1       2.849   7.751  18.077  0.00  0.00    +0.000 NA
ATOM      3  C   UNL     1       3.392   6.495  18.339  0.00  0.00    +0.000 A 
ATOM      4  C   UNL     1       2.984   6.071  19.595  0.00  0.00    +0.000 A 
ATOM      5  O   UNL     1       2.145   7.030  20.076  0.00  0.00    +0.000 OA
ENDROOT
BRANCH   1   9
ATOM      6  C   UNL     1      -0.597  11.213  19.894  0.00  0.00    +0.000 A 
ATOM      7  C   UNL     1      -0.086  10.452  20.948  0.00  0.00    +0.000 A 
ATOM      8  C   UNL     1       0.776   9.380  20.697  0.00  0.00    +0.000 A 
ATOM      9  C   UNL     1       1.141   9.061  19.385  0.00  0.00    +0.000 A 
ATOM     10  C   UNL     1       0.605   9.826  18.334  0.00  0.00    +0.000 A 
ATOM     11  C   UNL     1      -0.256  10.891  18.587  0.00  0.00    +0.000 A 
ENDBRANCH   1   9
BRANCH   3  12
ATOM     12  C   UNL     1       4.193   5.819  17.273  0.00  0.00    +0.000 A 
ATOM     13  C   UNL     1       4.814   6.543  16.271  0.00  0.00    +0.000 A 
ATOM     14  C   UNL     1       5.527   5.719  15.357  0.00  0.00    +0.000 A 
ATOM     15  C   UNL     1       5.362   4.383  15.647  0.00  0.00    +0.000 A 
ATOM     16  S   UNL     1       4.406   4.145  17.052  0.00  0.00    +0.000 S 
ENDBRANCH   3  12
BRANCH   4  17
ATOM     17  N   UNL     1       3.068   5.064  20.482  0.00  0.00    +0.000 N 
ATOM     18  H   UNL     1       3.889   4.489  20.316  0.00  0.00    +0.000 HD
BRANCH  17  19
ATOM     19  C   UNL     1       1.984   4.316  21.090  0.00  0.00    +0.000 C 
ATOM     20  C   UNL     1       0.822   4.128  20.089  0.00  0.00    +0.000 C 
ATOM     21  C   UNL     1       1.209   3.323  18.840  0.00  0.00    +0.000 C 
ATOM     22  C   UNL     1       1.900   2.004  19.180  0.00  0.00    +0.000 C 
ATOM     23  C   UNL     1       3.016   2.161  20.208  0.00  0.00    +0.000 C 
ATOM     24  C   UNL     1       2.542   2.930  21.453  0.00  0.00    +0.000 C 
ENDBRANCH  17  19
ENDBRANCH   4  17
TORSDOF 4
ENDMDL
MODEL 5
REMARK VINA RESULT:      -8.1      1.096      1.727
REMARK  Name = 
REMARK  4 active torsions:
REMARK  status: ('A' for Active; 'I' for Inactive)
REMARK    1  A    between atoms: C_4  and  C_5
REMARK    2  A    between atoms: C_7  and  C_8
REMARK    3  A    between atoms: C_13  and  N_14
REMARK    4  A    between atoms: N_14  and  C_15
REMARK                            x       y       z     vdW  Elec       q    Type
REMARK                         _______ _______ _______ _____ _____    ______ ____
ROOT
ATOM      1  C   UNL     1       2.922   7.480  18.570  0.00  0.00    +0.000 A 
ATOM      2  N   UNL     1       3.804   7.378  17.603  0.00  0.00    +0.000 NA
ATOM      3  C   UNL     1       4.403   6.139  17.823  0.00  0.00    +0.000 A 
ATOM      4  C   UNL     1       3.893   5.585  18.988  0.00  0.00    +0.000 A 
ATOM      5  O   UNL     1       2.944   6.447  19.448  0.00  0.00    +0.000 OA
ENDROOT
BRANCH   1   9
ATOM      6  C   UNL     1      -0.221  10.279  19.271  0.00  0.00    +0.000 A 
ATOM      7  C   UNL     1       0.301  10.111  17.986  0.00  0.00    +0.000 A 
ATOM      8  C   UNL     1       1.348   9.211  17.757  0.00  0.00    +0.000 A 
ATOM      9  C   UNL     1       1.880   8.465  18.812  0.00  0.00    +0.000 A 
ATOM     10  C   UNL     1       1.354   8.656  20.102  0.00  0.00    +0.000 A 
ATOM     11  C   UNL     1       0.315   9.556  20.328  0.00  0.00    +0.000 A 
ENDBRANCH   1   9
BRANCH   3  12
ATOM     12  C   UNL     1       5.357   5.608  16.803  0.00  0.00    +0.000 A 
ATOM     13  C   UNL     1       5.102   5.727  15.448  0.00  0.00    +0.000 A 
ATOM     14  C   UNL     1       6.130   5.162  14.643  0.00  0.00    +0.000 A 
ATOM     15  C   UNL     1       7.100   4.559  15.412  0.00  0.00    +0.000 A 
ATOM     16  S   UNL     1       6.792   4.740  17.091  0.00  0.00    +0.000 S 
ENDBRANCH   3  12
BRANCH   4  17
ATOM     17  N   UNL     1       3.952   4.512  19.796  0.00  0.00    +0.000 N 
ATOM     18  H   UNL     1       4.704   4.598  20.475  0.00  0.00    +0.000 HD
BRANCH  17  19
ATOM     19  C   UNL     1       3.659   3.129  19.469  0.00  0.00    +0.000 C 
ATOM     20  C   UNL     1       3.565   2.274  20.752  0.00  0.00    +0.000 C 
ATOM     21  C   UNL     1       2.438   2.705  21.701  0.00  0.00    +0.000 C 
ATOM     22  C   UNL     1       1.091   2.838  20.993  0.00  0.00    +0.000 C 
ATOM     23  C   UNL     1       1.173   3.634  19.694  0.00  0.00    +0.000 C 
ATOM     24  C   UNL     1       2.288   3.113  18.773  0.00  0.00    +0.000 C 
ENDBRANCH  17  19
ENDBRANCH   4  17
TORSDOF 4
ENDMDL
MODEL 6
REMARK VINA RESULT:      -8.0      1.161      2.076
REMARK  Name = 
REMARK  4 active torsions:
REMARK  status: ('A' for Active; 'I' for Inactive)
REMARK    1  A    between atoms: C_4  and  C_5
REMARK    2  A    between atoms: C_7  and  C_8
REMARK    3  A    between atoms: C_13  and  N_14
REMARK    4  A    between atoms: N_14  and  C_15
REMARK                            x       y       z     vdW  Elec       q    Type
REMARK                         _______ _______ _______ _____ _____    ______ ____
ROOT
ATOM      1  C   UNL     1       2.881   7.386  18.551  0.00  0.00    +0.000 A 
ATOM      2  N   UNL     1       3.721   7.269  17.549  0.00  0.00    +0.000 NA
ATOM      3  C   UNL     1       4.340   6.040  17.769  0.00  0.00    +0.000 A 
ATOM      4  C   UNL     1       3.888   5.508  18.968  0.00  0.00    +0.000 A 
ATOM      5  O   UNL     1       2.952   6.372  19.450  0.00  0.00    +0.000 OA
ENDROOT
BRANCH   1   9
ATOM      6  C   UNL     1      -0.080  10.353  19.341  0.00  0.00    +0.000 A 
ATOM      7  C   UNL     1       0.397   9.540  20.372  0.00  0.00    +0.000 A 
ATOM      8  C   UNL     1       1.351   8.550  20.112  0.00  0.00    +0.000 A 
ATOM      9  C   UNL     1       1.842   8.367  18.817  0.00  0.00    +0.000 A 
ATOM     10  C   UNL     1       1.341   9.182  17.787  0.00  0.00    +0.000 A 
ATOM     11  C   UNL     1       0.388  10.164  18.047  0.00  0.00    +0.000 A 
ENDBRANCH   1   9
BRANCH   3  12
ATOM     12  C   UNL     1       5.253   5.493  16.720  0.00  0.00    +0.000 A 
ATOM     13  C   UNL     1       4.795   4.619  15.751  0.00  0.00    +0.000 A 
ATOM     14  C   UNL     1       5.816   4.217  14.845  0.00  0.00    +0.000 A 
ATOM     15  C   UNL     1       7.040   4.737  15.201  0.00  0.00    +0.000 A 
ATOM     16  S   UNL     1       6.929   5.752  16.579  0.00  0.00    +0.000 S 
ENDBRANCH   3  12
BRANCH   4  17
ATOM     17  N   UNL     1       3.992   4.455  19.797  0.00  0.00    +0.000 N 
ATOM     18  H   UNL     1       4.770   4.564  20.442  0.00  0.00    +0.000 HD
BRANCH  17  19
ATOM     19  C   UNL     1       3.700   3.062  19.513  0.00  0.00    +0.000 C 
ATOM     20  C   UNL     1       3.567   2.255  20.824  0.00  0.00    +0.000 C 
ATOM     21  C   UNL     1       2.416   2.727  21.724  0.00  0.00    +0.000 C 
ATOM     22  C   UNL     1       1.090   2.839  20.975  0.00  0.00    +0.000 C 
ATOM     23  C   UNL     1       1.212   3.586  19.650  0.00  0.00    +0.000 C 
ATOM     24  C   UNL     1       2.349   3.026  18.781  0.00  0.00    +0.000 C 
ENDBRANCH  17  19
ENDBRANCH   4  17
TORSDOF 4
ENDMDL
MODEL 7
REMARK VINA RESULT:      -7.9      1.831      5.582
REMARK  Name = 
REMARK  4 active torsions:
REMARK  status: ('A' for Active; 'I' for Inactive)
REMARK    1  A    between atoms: C_4  and  C_5
REMARK    2  A    between atoms: C_7  and  C_8
REMARK    3  A    between atoms: C_13  and  N_14
REMARK    4  A    between atoms: N_14  and  C_15
REMARK                            x       y       z     vdW  Elec       q    Type
REMARK                         _______ _______ _______ _____ _____    ______ ____
ROOT
ATOM      1  C   UNL     1       4.107   6.120  17.798  0.00  0.00    +0.000 A 
ATOM      2  N   UNL     1       3.357   7.194  17.707  0.00  0.00    +0.000 NA
ATOM      3  C   UNL     1       2.604   7.178  18.879  0.00  0.00    +0.000 A 
ATOM      4  C   UNL     1       2.888   6.022  19.591  0.00  0.00    +0.000 A 
ATOM      5  O   UNL     1       3.855   5.363  18.894  0.00  0.00    +0.000 OA
ENDROOT
BRANCH   1   9
ATOM      6  C   UNL     1       7.278   4.636  15.360  0.00  0.00    +0.000 A 
ATOM      7  C   UNL     1       7.376   4.585  16.752  0.00  0.00    +0.000 A 
ATOM      8  C   UNL     1       6.348   5.092  17.555  0.00  0.00    +0.000 A 
ATOM      9  C   UNL     1       5.208   5.652  16.971  0.00  0.00    +0.000 A 
ATOM     10  C   UNL     1       5.131   5.709  15.568  0.00  0.00    +0.000 A 
ATOM     11  C   UNL     1       6.158   5.208  14.772  0.00  0.00    +0.000 A 
ENDBRANCH   1   9
BRANCH   3  12
ATOM     12  C   UNL     1       1.744   8.357  19.200  0.00  0.00    +0.000 A 
ATOM     13  C   UNL     1       1.425   9.299  18.237  0.00  0.00    +0.000 A 
ATOM     14  C   UNL     1       0.596  10.341  18.740  0.00  0.00    +0.000 A 
ATOM     15  C   UNL     1       0.373  10.201  20.091  0.00  0.00    +0.000 A 
ATOM     16  S   UNL     1       1.110   8.785  20.720  0.00  0.00    +0.000 S 
ENDBRANCH   3  12
BRANCH   4  17
ATOM     17  N   UNL     1       2.606   5.342  20.715  0.00  0.00    +0.000 N 
ATOM     18  H   UNL     1       3.452   5.052  21.198  0.00  0.00    +0.000 HD
BRANCH  17  19
ATOM     19  C   UNL     1       1.494   4.442  20.960  0.00  0.00    +0.000 C 
ATOM     20  C   UNL     1       0.866   3.976  19.628  0.00  0.00    +0.000 C 
ATOM     21  C   UNL     1       1.830   3.183  18.735  0.00  0.00    +0.000 C 
ATOM     22  C   UNL     1       2.520   2.042  19.480  0.00  0.00    +0.000 C 
ATOM     23  C   UNL     1       3.100   2.470  20.824  0.00  0.00    +0.000 C 
ATOM     24  C   UNL     1       2.064   3.211  21.685  0.00  0.00    +0.000 C 
ENDBRANCH  17  19
ENDBRANCH   4  17
TORSDOF 4
ENDMDL
MODEL 8
REMARK VINA RESULT:      -7.8      1.082      1.220
REMARK  Name = 
REMARK  4 active torsions:
REMARK  status: ('A' for Active; 'I' for Inactive)
REMARK    1  A    between atoms: C_4  and  C_5
REMARK    2  A    between atoms: C_7  and  C_8
REMARK    3  A    between atoms: C_13  and  N_14
REMARK    4  A    between atoms: N_14  and  C_15
REMARK                            x       y       z     vdW  Elec       q    Type
REMARK                         _______ _______ _______ _____ _____    ______ ____
ROOT
ATOM      1  C   UNL     1       2.717   7.523  18.686  0.00  0.00    +0.000 A 
ATOM      2  N   UNL     1       3.591   7.382  17.717  0.00  0.00    +0.000 NA
ATOM      3  C   UNL     1       4.172   6.140  17.965  0.00  0.00    +0.000 A 
ATOM      4  C   UNL     1       3.661   5.624  19.147  0.00  0.00    +0.000 A 
ATOM      5  O   UNL     1       2.728   6.512  19.589  0.00  0.00    +0.000 OA
ENDROOT
BRANCH   1   9
ATOM      6  C   UNL     1      -0.378  10.387  19.332  0.00  0.00    +0.000 A 
ATOM      7  C   UNL     1       0.128  10.173  18.047  0.00  0.00    +0.000 A 
ATOM      8  C   UNL     1       1.160   9.252  17.836  0.00  0.00    +0.000 A 
ATOM      9  C   UNL     1       1.691   8.529  18.908  0.00  0.00    +0.000 A 
ATOM     10  C   UNL     1       1.181   8.767  20.196  0.00  0.00    +0.000 A 
ATOM     11  C   UNL     1       0.158   9.688  20.405  0.00  0.00    +0.000 A 
ENDBRANCH   1   9
BRANCH   3  12
ATOM     12  C   UNL     1       5.112   5.568  16.954  0.00  0.00    +0.000 A 
ATOM     13  C   UNL     1       4.742   4.508  16.146  0.00  0.00    +0.000 A 
ATOM     14  C   UNL     1       5.774   4.113  15.250  0.00  0.00    +0.000 A 
ATOM     15  C   UNL     1       6.928   4.835  15.458  0.00  0.00    +0.000 A 
ATOM     16  S   UNL     1       6.730   6.020  16.683  0.00  0.00    +0.000 S 
ENDBRANCH   3  12
BRANCH   4  17
ATOM     17  N   UNL     1       3.708   4.572  19.982  0.00  0.00    +0.000 N 
ATOM     18  H   UNL     1       4.599   4.085  19.919  0.00  0.00    +0.000 HD
BRANCH  17  19
ATOM     19  C   UNL     1       2.624   3.689  20.371  0.00  0.00    +0.000 C 
ATOM     20  C   UNL     1       1.417   3.859  19.422  0.00  0.00    +0.000 C 
ATOM     21  C   UNL     1       1.723   3.493  17.963  0.00  0.00    +0.000 C 
ATOM     22  C   UNL     1       2.381   2.122  17.824  0.00  0.00    +0.000 C 
ATOM     23  C   UNL     1       3.542   1.914  18.791  0.00  0.00    +0.000 C 
ATOM     24  C   UNL     1       3.147   2.249  20.239  0.00  0.00    +0.000 C 
ENDBRANCH  17  19
ENDBRANCH   4  17
TORSDOF 4
ENDMDL
MODEL 9
REMARK VINA RESULT:      -7.8      1.718      5.604
REMARK  Name = 
REMARK  4 active torsions:
REMARK  status: ('A' for Active; 'I' for Inactive)
REMARK    1  A    between atoms: C_4  and  C_5
REMARK    2  A    between atoms: C_7  and  C_8
REMARK    3  A    between atoms: C_13  and  N_14
REMARK    4  A    between atoms: N_14  and  C_15
REMARK                            x       y       z     vdW  Elec       q    Type
REMARK                         _______ _______ _______ _____ _____    ______ ____
ROOT
ATOM      1  C   UNL     1       4.050   5.973  17.762  0.00  0.00    +0.000 A 
ATOM      2  N   UNL     1       3.285   7.039  17.814  0.00  0.00    +0.000 NA
ATOM      3  C   UNL     1       2.675   6.955  19.064  0.00  0.00    +0.000 A 
ATOM      4  C   UNL     1       3.053   5.771  19.680  0.00  0.00    +0.000 A 
ATOM      5  O   UNL     1       3.936   5.160  18.842  0.00  0.00    +0.000 OA
ENDROOT
BRANCH   1   9
ATOM      6  C   UNL     1       7.019   4.675  14.987  0.00  0.00    +0.000 A 
ATOM      7  C   UNL     1       7.279   5.742  15.852  0.00  0.00    +0.000 A 
ATOM      8  C   UNL     1       6.299   6.185  16.747  0.00  0.00    +0.000 A 
ATOM      9  C   UNL     1       5.049   5.561  16.790  0.00  0.00    +0.000 A 
ATOM     10  C   UNL     1       4.797   4.499  15.903  0.00  0.00    +0.000 A 
ATOM     11  C   UNL     1       5.773   4.063  15.010  0.00  0.00    +0.000 A 
ENDBRANCH   1   9
BRANCH   3  12
ATOM     12  C   UNL     1       1.848   8.105  19.542  0.00  0.00    +0.000 A 
ATOM     13  C   UNL     1       1.352   8.147  20.832  0.00  0.00    +0.000 A 
ATOM     14  C   UNL     1       0.593   9.323  21.092  0.00  0.00    +0.000 A 
ATOM     15  C   UNL     1       0.470  10.103  19.964  0.00  0.00    +0.000 A 
ATOM     16  S   UNL     1       1.323   9.442  18.630  0.00  0.00    +0.000 S 
ENDBRANCH   3  12
BRANCH   4  17
ATOM     17  N   UNL     1       2.911   5.033  20.794  0.00  0.00    +0.000 N 
ATOM     18  H   UNL     1       3.795   4.625  21.085  0.00  0.00    +0.000 HD
BRANCH  17  19
ATOM     19  C   UNL     1       1.772   4.228  21.196  0.00  0.00    +0.000 C 
ATOM     20  C   UNL     1       0.773   4.077  20.027  0.00  0.00    +0.000 C 
ATOM     21  C   UNL     1       1.358   3.357  18.805  0.00  0.00    +0.000 C 
ATOM     22  C   UNL     1       2.031   2.034  19.166  0.00  0.00    +0.000 C 
ATOM     23  C   UNL     1       2.981   2.151  20.353  0.00  0.00    +0.000 C 
ATOM     24  C   UNL     1       2.312   2.834  21.557  0.00  0.00    +0.000 C 
ENDBRANCH  17  19
ENDBRANCH   4  17
TORSDOF 4
ENDMDL
