MODEL 1
REMARK VINA RESULT:      -7.8      0.000      0.000
REMARK  Name = 
REMARK  9 active torsions:
REMARK  status: ('A' for Active; 'I' for Inactive)
REMARK    1  A    between atoms: C_2  and  C_4
REMARK    2  A    between atoms: C_8  and  O_9
REMARK    3  A    between atoms: O_9  and  C_10
REMARK    4  A    between atoms: C_10  and  C_11
REMARK    5  A    between atoms: C_11  and  C_12
REMARK    6  A    between atoms: C_12  and  C_13
REMARK    7  A    between atoms: C_13  and  O_14
REMARK    8  A    between atoms: O_14  and  C_15
REMARK    9  A    between atoms: C_19  and  C_20
REMARK                            x       y       z     vdW  Elec       q    Type
REMARK                         _______ _______ _______ _____ _____    ______ ____
ROOT
ATOM      1  C   UNL     1       8.032   6.586  18.305  0.00  0.00    +0.000 C 
ENDROOT
BRANCH   1   2
ATOM      2  C   UNL     1       7.053   5.444  18.550  0.00  0.00    +0.000 C 
BRANCH   2   3
ATOM      3  O   UNL     1       5.892   5.960  19.195  0.00  0.00    +0.000 OA
BRANCH   3   8
ATOM      4  C   UNL     1       3.205   3.511  18.439  0.00  0.00    +0.000 A 
ATOM      5  C   UNL     1       2.200   4.398  18.041  0.00  0.00    +0.000 A 
ATOM      6  C   UNL     1       2.448   5.769  18.054  0.00  0.00    +0.000 A 
ATOM      7  C   UNL     1       3.699   6.247  18.449  0.00  0.00    +0.000 A 
ATOM      8  C   UNL     1       4.709   5.366  18.847  0.00  0.00    +0.000 A 
ATOM      9  C   UNL     1       4.451   3.995  18.854  0.00  0.00    +0.000 A 
BRANCH   4  11
ATOM     10  N   UNL     1       3.923   1.253  18.045  0.00  0.00    +0.000 NA
ATOM     11  C   UNL     1       2.970   2.043  18.417  0.00  0.00    +0.000 C 
ATOM     12  N   UNL     1       1.747   1.543  18.758  0.00  0.00    +0.000 N 
ATOM     13  H   UNL     1       3.616   0.281  18.119  0.00  0.00    +0.000 HD
ATOM     14  H   UNL     1       1.541   0.619  18.397  0.00  0.00    +0.000 HD
ATOM     15  H   UNL     1       0.968   2.177  18.612  0.00  0.00    +0.000 HD
ENDBRANCH   4  11
ENDBRANCH   3   8
ENDBRANCH   2   3
ENDBRANCH   1   2
BRANCH   1  16
ATOM     16  C   UNL     1       7.340   7.778  17.652  0.00  0.00    +0.000 C 
BRANCH  16  17
ATOM     17  C   UNL     1       8.231   9.012  17.640  0.00  0.00    +0.000 C 
BRANCH  17  18
ATOM     18  O   UNL     1       8.499   9.386  18.989  0.00  0.00    +0.000 OA
BRANCH  18  19
ATOM     19  C   UNL     1       9.325  10.470  19.140  0.00  0.00    +0.000 A 
ATOM     20  C   UNL     1       9.604  10.834  20.458  0.00  0.00    +0.000 A 
ATOM     21  C   UNL     1      10.411  11.943  20.714  0.00  0.00    +0.000 A 
ATOM     22  C   UNL     1      10.948  12.687  19.660  0.00  0.00    +0.000 A 
ATOM     23  C   UNL     1      10.668  12.330  18.329  0.00  0.00    +0.000 A 
ATOM     24  C   UNL     1       9.856  11.221  18.090  0.00  0.00    +0.000 A 
BRANCH  23  25
ATOM     25  C   UNL     1      11.204  13.121  17.170  0.00  0.00    +0.000 C 
ATOM     26  N   UNL     1      10.651  14.199  16.721  0.00  0.00    +0.000 NA
ATOM     27  N   UNL     1      12.331  12.736  16.508  0.00  0.00    +0.000 N 
ATOM     28  H   UNL     1       9.827  14.472  17.261  0.00  0.00    +0.000 HD
ATOM     29  H   UNL     1      12.474  11.740  16.372  0.00  0.00    +0.000 HD
ATOM     30  H   UNL     1      12.415  13.255  15.645  0.00  0.00    +0.000 HD
ENDBRANCH  23  25
ENDBRANCH  18  19
ENDBRANCH  17  18
ENDBRANCH  16  17
ENDBRANCH   1  16
TORSDOF 9
ENDMDL
MODEL 2
REMARK VINA RESULT:      -7.8      5.850      7.796
REMARK  Name = 
REMARK  9 active torsions:
REMARK  status: ('A' for Active; 'I' for Inactive)
REMARK    1  A    between atoms: C_2  and  C_4
REMARK    2  A    between atoms: C_8  and  O_9
REMARK    3  A    between atoms: O_9  and  C_10
REMARK    4  A    between atoms: C_10  and  C_11
REMARK    5  A    between atoms: C_11  and  C_12
REMARK    6  A    between atoms: C_12  and  C_13
REMARK    7  A    between atoms: C_13  and  O_14
REMARK    8  A    between atoms: O_14  and  C_15
REMARK    9  A    between atoms: C_19  and  C_20
REMARK                            x       y       z     vdW  Elec       q    Type
REMARK                         _______ _______ _______ _____ _____    ______ ____
ROOT
ATOM      1  C   UNL     1       1.736   2.648  19.582  0.00  0.00    +0.000 C 
ENDROOT
BRANCH   1   2
ATOM      2  C   UNL     1       3.191   2.700  19.130  0.00  0.00    +0.000 C 
BRANCH   2   3
ATOM      3  O   UNL     1       3.255   3.315  17.846  0.00  0.00    +0.000 OA
BRANCH   3   8
ATOM      4  C   UNL     1       6.255   4.385  15.937  0.00  0.00    +0.000 A 
ATOM      5  C   UNL     1       7.072   4.772  17.003  0.00  0.00    +0.000 A 
ATOM      6  C   UNL     1       6.592   4.676  18.308  0.00  0.00    +0.000 A 
ATOM      7  C   UNL     1       5.306   4.183  18.542  0.00  0.00    +0.000 A 
ATOM      8  C   UNL     1       4.485   3.794  17.481  0.00  0.00    +0.000 A 
ATOM      9  C   UNL     1       4.960   3.910  16.174  0.00  0.00    +0.000 A 
BRANCH   4  11
ATOM     10  N   UNL     1       6.348   3.589  13.673  0.00  0.00    +0.000 NA
ATOM     11  C   UNL     1       6.752   4.461  14.537  0.00  0.00    +0.000 C 
ATOM     12  N   UNL     1       7.650   5.425  14.184  0.00  0.00    +0.000 N 
ATOM     13  H   UNL     1       6.750   3.799  12.757  0.00  0.00    +0.000 HD
ATOM     14  H   UNL     1       8.202   5.222  13.360  0.00  0.00    +0.000 HD
ATOM     15  H   UNL     1       8.233   5.768  14.942  0.00  0.00    +0.000 HD
ENDBRANCH   4  11
ENDBRANCH   3   8
ENDBRANCH   2   3
ENDBRANCH   1   2
BRANCH   1  16
ATOM     16  C   UNL     1       1.166   4.049  19.775  0.00  0.00    +0.000 C 
BRANCH  16  17
ATOM     17  C   UNL     1       1.950   4.840  20.813  0.00  0.00    +0.000 C 
BRANCH  17  18
ATOM     18  O   UNL     1       2.861   5.698  20.130  0.00  0.00    +0.000 OA
BRANCH  18  19
ATOM     19  C   UNL     1       2.335   6.894  19.715  0.00  0.00    +0.000 A 
ATOM     20  C   UNL     1       2.515   7.193  18.363  0.00  0.00    +0.000 A 
ATOM     21  C   UNL     1       2.041   8.402  17.853  0.00  0.00    +0.000 A 
ATOM     22  C   UNL     1       1.381   9.311  18.683  0.00  0.00    +0.000 A 
ATOM     23  C   UNL     1       1.200   9.020  20.047  0.00  0.00    +0.000 A 
ATOM     24  C   UNL     1       1.683   7.809  20.543  0.00  0.00    +0.000 A 
BRANCH  23  25
ATOM     25  C   UNL     1       0.520   9.984  20.976  0.00  0.00    +0.000 C 
ATOM     26  N   UNL     1       0.687   9.986  22.257  0.00  0.00    +0.000 NA
ATOM     27  N   UNL     1      -0.337  10.936  20.509  0.00  0.00    +0.000 N 
ATOM     28  H   UNL     1       1.359   9.279  22.566  0.00  0.00    +0.000 HD
ATOM     29  H   UNL     1      -0.943  10.678  19.737  0.00  0.00    +0.000 HD
ATOM     30  H   UNL     1      -0.851  11.341  21.279  0.00  0.00    +0.000 HD
ENDBRANCH  23  25
ENDBRANCH  18  19
ENDBRANCH  17  18
ENDBRANCH  16  17
ENDBRANCH   1  16
TORSDOF 9
ENDMDL
MODEL 3
REMARK VINA RESULT:      -7.7      5.664      7.650
REMARK  Name = 
REMARK  9 active torsions:
REMARK  status: ('A' for Active; 'I' for Inactive)
REMARK    1  A    between atoms: C_2  and  C_4
REMARK    2  A    between atoms: C_8  and  O_9
REMARK    3  A    between atoms: O_9  and  C_10
REMARK    4  A    between atoms: C_10  and  C_11
REMARK    5  A    between atoms: C_11  and  C_12
REMARK    6  A    between atoms: C_12  and  C_13
REMARK    7  A    between atoms: C_13  and  O_14
REMARK    8  A    between atoms: O_14  and  C_15
REMARK    9  A    between atoms: C_19  and  C_20
REMARK                            x       y       z     vdW  Elec       q    Type
REMARK                         _______ _______ _______ _____ _____    ______ ____
ROOT
ATOM      1  C   UNL     1       1.485   2.826  20.809  0.00  0.00    +0.000 C 
ENDROOT
BRANCH   1   2
ATOM      2  C   UNL     1       1.687   2.013  19.535  0.00  0.00    +0.000 C 
BRANCH   2   3
ATOM      3  O   UNL     1       3.081   1.793  19.342  0.00  0.00    +0.000 OA
BRANCH   3   8
ATOM      4  C   UNL     1       5.487   4.349  18.130  0.00  0.00    +0.000 A 
ATOM      5  C   UNL     1       4.845   4.716  16.945  0.00  0.00    +0.000 A 
ATOM      6  C   UNL     1       3.651   4.093  16.587  0.00  0.00    +0.000 A 
ATOM      7  C   UNL     1       3.098   3.118  17.421  0.00  0.00    +0.000 A 
ATOM      8  C   UNL     1       3.734   2.747  18.608  0.00  0.00    +0.000 A 
ATOM      9  C   UNL     1       4.941   3.357  18.954  0.00  0.00    +0.000 A 
BRANCH   4  11
ATOM     10  N   UNL     1       6.930   5.328  19.782  0.00  0.00    +0.000 NA
ATOM     11  C   UNL     1       6.753   5.012  18.542  0.00  0.00    +0.000 C 
ATOM     12  N   UNL     1       7.701   5.311  17.607  0.00  0.00    +0.000 N 
ATOM     13  H   UNL     1       7.857   5.739  19.906  0.00  0.00    +0.000 HD
ATOM     14  H   UNL     1       8.348   6.046  17.866  0.00  0.00    +0.000 HD
ATOM     15  H   UNL     1       7.348   5.445  16.664  0.00  0.00    +0.000 HD
ENDBRANCH   4  11
ENDBRANCH   3   8
ENDBRANCH   2   3
ENDBRANCH   1   2
BRANCH   1  16
ATOM     16  C   UNL     1       1.070   4.259  20.490  0.00  0.00    +0.000 C 
BRANCH  16  17
ATOM     17  C   UNL     1       2.082   5.270  21.011  0.00  0.00    +0.000 C 
BRANCH  17  18
ATOM     18  O   UNL     1       2.772   5.831  19.897  0.00  0.00    +0.000 OA
BRANCH  18  19
ATOM     19  C   UNL     1       2.301   7.046  19.472  0.00  0.00    +0.000 A 
ATOM     20  C   UNL     1       2.569   7.362  18.139  0.00  0.00    +0.000 A 
ATOM     21  C   UNL     1       2.156   8.590  17.622  0.00  0.00    +0.000 A 
ATOM     22  C   UNL     1       1.468   9.502  18.427  0.00  0.00    +0.000 A 
ATOM     23  C   UNL     1       1.198   9.194  19.772  0.00  0.00    +0.000 A 
ATOM     24  C   UNL     1       1.622   7.964  20.275  0.00  0.00    +0.000 A 
BRANCH  23  25
ATOM     25  C   UNL     1       0.487  10.160  20.675  0.00  0.00    +0.000 C 
ATOM     26  N   UNL     1       0.950  10.549  21.817  0.00  0.00    +0.000 NA
ATOM     27  N   UNL     1      -0.721  10.693  20.335  0.00  0.00    +0.000 N 
ATOM     28  H   UNL     1       1.869  10.152  22.023  0.00  0.00    +0.000 HD
ATOM     29  H   UNL     1      -1.377  10.089  19.852  0.00  0.00    +0.000 HD
ATOM     30  H   UNL     1      -1.136  11.142  21.139  0.00  0.00    +0.000 HD
ENDBRANCH  23  25
ENDBRANCH  18  19
ENDBRANCH  17  18
ENDBRANCH  16  17
ENDBRANCH   1  16
TORSDOF 9
ENDMDL
MODEL 4
REMARK VINA RESULT:      -7.7      5.372      7.491
REMARK  Name = 
REMARK  9 active torsions:
REMARK  status: ('A' for Active; 'I' for Inactive)
REMARK    1  A    between atoms: C_2  and  C_4
REMARK    2  A    between atoms: C_8  and  O_9
REMARK    3  A    between atoms: O_9  and  C_10
REMARK    4  A    between atoms: C_10  and  C_11
REMARK    5  A    between atoms: C_11  and  C_12
REMARK    6  A    between atoms: C_12  and  C_13
REMARK    7  A    between atoms: C_13  and  O_14
REMARK    8  A    between atoms: O_14  and  C_15
REMARK    9  A    between atoms: C_19  and  C_20
REMARK                            x       y       z     vdW  Elec       q    Type
REMARK                         _______ _______ _______ _____ _____    ______ ____
ROOT
ATOM      1  C   UNL     1       1.991   3.115  19.989  0.00  0.00    +0.000 C 
ENDROOT
BRANCH   1   2
ATOM      2  C   UNL     1       1.248   4.402  20.329  0.00  0.00    +0.000 C 
BRANCH   2   3
ATOM      3  O   UNL     1       2.195   5.403  20.690  0.00  0.00    +0.000 OA
BRANCH   3   8
ATOM      4  C   UNL     1       1.295   8.931  19.961  0.00  0.00    +0.000 A 
ATOM      5  C   UNL     1       1.738   9.005  18.637  0.00  0.00    +0.000 A 
ATOM      6  C   UNL     1       2.329   7.890  18.045  0.00  0.00    +0.000 A 
ATOM      7  C   UNL     1       2.462   6.705  18.772  0.00  0.00    +0.000 A 
ATOM      8  C   UNL     1       2.021   6.624  20.095  0.00  0.00    +0.000 A 
ATOM      9  C   UNL     1       1.448   7.747  20.693  0.00  0.00    +0.000 A 
BRANCH   4  11
ATOM     10  N   UNL     1       1.031  10.472  21.784  0.00  0.00    +0.000 NA
ATOM     11  C   UNL     1       0.645  10.101  20.608  0.00  0.00    +0.000 C 
ATOM     12  N   UNL     1      -0.372  10.753  19.973  0.00  0.00    +0.000 N 
ATOM     13  H   UNL     1       0.515  11.306  22.071  0.00  0.00    +0.000 HD
ATOM     14  H   UNL     1      -0.988  11.284  20.576  0.00  0.00    +0.000 HD
ATOM     15  H   UNL     1      -0.898  10.190  19.313  0.00  0.00    +0.000 HD
ENDBRANCH   4  11
ENDBRANCH   3   8
ENDBRANCH   2   3
ENDBRANCH   1   2
BRANCH   1  16
ATOM     16  C   UNL     1       1.831   2.757  18.515  0.00  0.00    +0.000 C 
BRANCH  16  17
ATOM     17  C   UNL     1       3.099   3.044  17.723  0.00  0.00    +0.000 C 
BRANCH  17  18
ATOM     18  O   UNL     1       4.078   3.567  18.617  0.00  0.00    +0.000 OA
BRANCH  18  19
ATOM     19  C   UNL     1       5.118   4.230  18.019  0.00  0.00    +0.000 A 
ATOM     20  C   UNL     1       5.816   5.118  18.839  0.00  0.00    +0.000 A 
ATOM     21  C   UNL     1       6.872   5.862  18.312  0.00  0.00    +0.000 A 
ATOM     22  C   UNL     1       7.241   5.718  16.972  0.00  0.00    +0.000 A 
ATOM     23  C   UNL     1       6.541   4.829  16.138  0.00  0.00    +0.000 A 
ATOM     24  C   UNL     1       5.484   4.096  16.679  0.00  0.00    +0.000 A 
BRANCH  23  25
ATOM     25  C   UNL     1       6.891   4.668  14.686  0.00  0.00    +0.000 C 
ATOM     26  N   UNL     1       7.730   5.426  14.062  0.00  0.00    +0.000 NA
ATOM     27  N   UNL     1       6.326   3.689  13.924  0.00  0.00    +0.000 N 
ATOM     28  H   UNL     1       8.154   6.128  14.674  0.00  0.00    +0.000 HD
ATOM     29  H   UNL     1       5.350   3.472  14.094  0.00  0.00    +0.000 HD
ATOM     30  H   UNL     1       6.513   3.866  12.947  0.00  0.00    +0.000 HD
ENDBRANCH  23  25
ENDBRANCH  18  19
ENDBRANCH  17  18
ENDBRANCH  16  17
ENDBRANCH   1  16
TORSDOF 9
ENDMDL
MODEL 5
REMARK VINA RESULT:      -7.6      5.204      7.830
REMARK  Name = 
REMARK  9 active torsions:
REMARK  status: ('A' for Active; 'I' for Inactive)
REMARK    1  A    between atoms: C_2  and  C_4
REMARK    2  A    between atoms: C_8  and  O_9
REMARK    3  A    between atoms: O_9  and  C_10
REMARK    4  A    between atoms: C_10  and  C_11
REMARK    5  A    between atoms: C_11  and  C_12
REMARK    6  A    between atoms: C_12  and  C_13
REMARK    7  A    between atoms: C_13  and  O_14
REMARK    8  A    between atoms: O_14  and  C_15
REMARK    9  A    between atoms: C_19  and  C_20
REMARK                            x       y       z     vdW  Elec       q    Type
REMARK                         _______ _______ _______ _____ _____    ______ ____
ROOT
ATOM      1  C   UNL     1       1.161   4.242  20.132  0.00  0.00    +0.000 C 
ENDROOT
BRANCH   1   2
ATOM      2  C   UNL     1       2.012   5.304  20.818  0.00  0.00    +0.000 C 
BRANCH   2   3
ATOM      3  O   UNL     1       2.709   6.052  19.825  0.00  0.00    +0.000 OA
BRANCH   3   8
ATOM      4  C   UNL     1       1.071   9.375  20.074  0.00  0.00    +0.000 A 
ATOM      5  C   UNL     1       1.210   9.793  18.747  0.00  0.00    +0.000 A 
ATOM      6  C   UNL     1       1.852   8.964  17.829  0.00  0.00    +0.000 A 
ATOM      7  C   UNL     1       2.339   7.720  18.235  0.00  0.00    +0.000 A 
ATOM      8  C   UNL     1       2.203   7.296  19.560  0.00  0.00    +0.000 A 
ATOM      9  C   UNL     1       1.578   8.136  20.482  0.00  0.00    +0.000 A 
BRANCH   4  11
ATOM     10  N   UNL     1      -0.430   9.691  21.922  0.00  0.00    +0.000 NA
ATOM     11  C   UNL     1       0.373  10.234  21.068  0.00  0.00    +0.000 C 
ATOM     12  N   UNL     1       0.560  11.586  21.051  0.00  0.00    +0.000 N 
ATOM     13  H   UNL     1      -0.798  10.406  22.553  0.00  0.00    +0.000 HD
ATOM     14  H   UNL     1      -0.175  12.129  21.487  0.00  0.00    +0.000 HD
ATOM     15  H   UNL     1       0.820  11.973  20.149  0.00  0.00    +0.000 HD
ENDBRANCH   4  11
ENDBRANCH   3   8
ENDBRANCH   2   3
ENDBRANCH   1   2
BRANCH   1  16
ATOM     16  C   UNL     1       1.609   2.837  20.523  0.00  0.00    +0.000 C 
BRANCH  16  17
ATOM     17  C   UNL     1       3.116   2.759  20.719  0.00  0.00    +0.000 C 
BRANCH  17  18
ATOM     18  O   UNL     1       3.708   2.338  19.491  0.00  0.00    +0.000 OA
BRANCH  18  19
ATOM     19  C   UNL     1       4.316   3.331  18.768  0.00  0.00    +0.000 A 
ATOM     20  C   UNL     1       3.762   3.586  17.512  0.00  0.00    +0.000 A 
ATOM     21  C   UNL     1       4.331   4.557  16.689  0.00  0.00    +0.000 A 
ATOM     22  C   UNL     1       5.446   5.283  17.116  0.00  0.00    +0.000 A 
ATOM     23  C   UNL     1       6.014   5.029  18.377  0.00  0.00    +0.000 A 
ATOM     24  C   UNL     1       5.436   4.051  19.187  0.00  0.00    +0.000 A 
BRANCH  23  25
ATOM     25  C   UNL     1       7.229   5.770  18.859  0.00  0.00    +0.000 C 
ATOM     26  N   UNL     1       7.716   6.810  18.268  0.00  0.00    +0.000 NA
ATOM     27  N   UNL     1       7.906   5.374  19.974  0.00  0.00    +0.000 N 
ATOM     28  H   UNL     1       7.164   7.093  17.455  0.00  0.00    +0.000 HD
ATOM     29  H   UNL     1       7.994   4.376  20.135  0.00  0.00    +0.000 HD
ATOM     30  H   UNL     1       8.797   5.849  20.019  0.00  0.00    +0.000 HD
ENDBRANCH  23  25
ENDBRANCH  18  19
ENDBRANCH  17  18
ENDBRANCH  16  17
ENDBRANCH   1  16
TORSDOF 9
ENDMDL
MODEL 6
REMARK VINA RESULT:      -7.6      4.908      7.959
REMARK  Name = 
REMARK  9 active torsions:
REMARK  status: ('A' for Active; 'I' for Inactive)
REMARK    1  A    between atoms: C_2  and  C_4
REMARK    2  A    between atoms: C_8  and  O_9
REMARK    3  A    between atoms: O_9  and  C_10
REMARK    4  A    between atoms: C_10  and  C_11
REMARK    5  A    between atoms: C_11  and  C_12
REMARK    6  A    between atoms: C_12  and  C_13
REMARK    7  A    between atoms: C_13  and  O_14
REMARK    8  A    between atoms: O_14  and  C_15
REMARK    9  A    between atoms: C_19  and  C_20
REMARK                            x       y       z     vdW  Elec       q    Type
REMARK                         _______ _______ _______ _____ _____    ______ ____
ROOT
ATOM      1  C   UNL     1       1.732   3.248  18.508  0.00  0.00    +0.000 C 
ENDROOT
BRANCH   1   2
ATOM      2  C   UNL     1       2.745   3.128  17.374  0.00  0.00    +0.000 C 
BRANCH   2   3
ATOM      3  O   UNL     1       4.056   3.066  17.929  0.00  0.00    +0.000 OA
BRANCH   3   8
ATOM      4  C   UNL     1       6.581   5.755  18.359  0.00  0.00    +0.000 A 
ATOM      5  C   UNL     1       6.150   6.628  17.356  0.00  0.00    +0.000 A 
ATOM      6  C   UNL     1       5.051   6.285  16.570  0.00  0.00    +0.000 A 
ATOM      7  C   UNL     1       4.382   5.081  16.798  0.00  0.00    +0.000 A 
ATOM      8  C   UNL     1       4.807   4.203  17.799  0.00  0.00    +0.000 A 
ATOM      9  C   UNL     1       5.919   4.539  18.571  0.00  0.00    +0.000 A 
BRANCH   4  11
ATOM     10  N   UNL     1       7.990   5.393  20.270  0.00  0.00    +0.000 NA
ATOM     11  C   UNL     1       7.739   6.107  19.223  0.00  0.00    +0.000 C 
ATOM     12  N   UNL     1       8.506   7.195  18.923  0.00  0.00    +0.000 N 
ATOM     13  H   UNL     1       8.832   5.741  20.732  0.00  0.00    +0.000 HD
ATOM     14  H   UNL     1       9.030   7.582  19.699  0.00  0.00    +0.000 HD
ATOM     15  H   UNL     1       8.033   7.924  18.398  0.00  0.00    +0.000 HD
ENDBRANCH   4  11
ENDBRANCH   3   8
ENDBRANCH   2   3
ENDBRANCH   1   2
BRANCH   1  16
ATOM     16  C   UNL     1       1.370   4.707  18.772  0.00  0.00    +0.000 C 
BRANCH  16  17
ATOM     17  C   UNL     1       2.054   5.241  20.022  0.00  0.00    +0.000 C 
BRANCH  17  18
ATOM     18  O   UNL     1       2.805   6.398  19.663  0.00  0.00    +0.000 OA
BRANCH  18  19
ATOM     19  C   UNL     1       2.099   7.574  19.661  0.00  0.00    +0.000 A 
ATOM     20  C   UNL     1       2.167   8.314  18.479  0.00  0.00    +0.000 A 
ATOM     21  C   UNL     1       1.506   9.539  18.391  0.00  0.00    +0.000 A 
ATOM     22  C   UNL     1       0.770  10.026  19.475  0.00  0.00    +0.000 A 
ATOM     23  C   UNL     1       0.700   9.289  20.670  0.00  0.00    +0.000 A 
ATOM     24  C   UNL     1       1.370   8.068  20.744  0.00  0.00    +0.000 A 
BRANCH  23  25
ATOM     25  C   UNL     1      -0.058   9.794  21.865  0.00  0.00    +0.000 C 
ATOM     26  N   UNL     1      -0.558   9.024  22.775  0.00  0.00    +0.000 NA
ATOM     27  N   UNL     1      -0.270  11.126  22.061  0.00  0.00    +0.000 N 
ATOM     28  H   UNL     1      -0.352   8.036  22.609  0.00  0.00    +0.000 HD
ATOM     29  H   UNL     1      -0.455  11.693  21.240  0.00  0.00    +0.000 HD
ATOM     30  H   UNL     1      -0.966  11.259  22.782  0.00  0.00    +0.000 HD
ENDBRANCH  23  25
ENDBRANCH  18  19
ENDBRANCH  17  18
ENDBRANCH  16  17
ENDBRANCH   1  16
TORSDOF 9
ENDMDL
MODEL 7
REMARK VINA RESULT:      -7.6      4.951      7.523
REMARK  Name = 
REMARK  9 active torsions:
REMARK  status: ('A' for Active; 'I' for Inactive)
REMARK    1  A    between atoms: C_2  and  C_4
REMARK    2  A    between atoms: C_8  and  O_9
REMARK    3  A    between atoms: O_9  and  C_10
REMARK    4  A    between atoms: C_10  and  C_11
REMARK    5  A    between atoms: C_11  and  C_12
REMARK    6  A    between atoms: C_12  and  C_13
REMARK    7  A    between atoms: C_13  and  O_14
REMARK    8  A    between atoms: O_14  and  C_15
REMARK    9  A    between atoms: C_19  and  C_20
REMARK                            x       y       z     vdW  Elec       q    Type
REMARK                         _______ _______ _______ _____ _____    ______ ____
ROOT
ATOM      1  C   UNL     1       3.226   3.195  20.264  0.00  0.00    +0.000 C 
ENDROOT
BRANCH   1   2
ATOM      2  C   UNL     1       2.962   3.205  18.763  0.00  0.00    +0.000 C 
BRANCH   2   3
ATOM      3  O   UNL     1       4.165   2.868  18.078  0.00  0.00    +0.000 OA
BRANCH   3   8
ATOM      4  C   UNL     1       6.722   5.560  18.072  0.00  0.00    +0.000 A 
ATOM      5  C   UNL     1       6.443   6.131  16.827  0.00  0.00    +0.000 A 
ATOM      6  C   UNL     1       5.430   5.593  16.035  0.00  0.00    +0.000 A 
ATOM      7  C   UNL     1       4.694   4.499  16.495  0.00  0.00    +0.000 A 
ATOM      8  C   UNL     1       4.968   3.924  17.739  0.00  0.00    +0.000 A 
ATOM      9  C   UNL     1       5.996   4.451  18.521  0.00  0.00    +0.000 A 
BRANCH   4  11
ATOM     10  N   UNL     1       8.192   5.456  19.969  0.00  0.00    +0.000 NA
ATOM     11  C   UNL     1       7.786   6.128  18.943  0.00  0.00    +0.000 C 
ATOM     12  N   UNL     1       8.301   7.363  18.673  0.00  0.00    +0.000 N 
ATOM     13  H   UNL     1       8.945   5.962  20.438  0.00  0.00    +0.000 HD
ATOM     14  H   UNL     1       8.736   7.831  19.458  0.00  0.00    +0.000 HD
ATOM     15  H   UNL     1       7.678   7.987  18.170  0.00  0.00    +0.000 HD
ENDBRANCH   4  11
ENDBRANCH   3   8
ENDBRANCH   2   3
ENDBRANCH   1   2
BRANCH   1  16
ATOM     16  C   UNL     1       1.971   3.563  21.049  0.00  0.00    +0.000 C 
BRANCH  16  17
ATOM     17  C   UNL     1       1.300   4.809  20.489  0.00  0.00    +0.000 C 
BRANCH  17  18
ATOM     18  O   UNL     1       2.096   5.941  20.832  0.00  0.00    +0.000 OA
BRANCH  18  19
ATOM     19  C   UNL     1       2.107   6.948  19.903  0.00  0.00    +0.000 A 
ATOM     20  C   UNL     1       2.854   6.695  18.751  0.00  0.00    +0.000 A 
ATOM     21  C   UNL     1       2.951   7.672  17.760  0.00  0.00    +0.000 A 
ATOM     22  C   UNL     1       2.298   8.899  17.909  0.00  0.00    +0.000 A 
ATOM     23  C   UNL     1       1.548   9.164  19.068  0.00  0.00    +0.000 A 
ATOM     24  C   UNL     1       1.464   8.178  20.052  0.00  0.00    +0.000 A 
BRANCH  23  25
ATOM     25  C   UNL     1       0.856  10.481  19.276  0.00  0.00    +0.000 C 
ATOM     26  N   UNL     1       0.427  11.226  18.311  0.00  0.00    +0.000 NA
ATOM     27  N   UNL     1       0.637  10.979  20.525  0.00  0.00    +0.000 N 
ATOM     28  H   UNL     1       0.582  10.805  17.392  0.00  0.00    +0.000 HD
ATOM     29  H   UNL     1       1.363  10.830  21.219  0.00  0.00    +0.000 HD
ATOM     30  H   UNL     1       0.361  11.949  20.464  0.00  0.00    +0.000 HD
ENDBRANCH  23  25
ENDBRANCH  18  19
ENDBRANCH  17  18
ENDBRANCH  16  17
ENDBRANCH   1  16
TORSDOF 9
ENDMDL
MODEL 8
REMARK VINA RESULT:      -7.6      5.005      7.451
REMARK  Name = 
REMARK  9 active torsions:
REMARK  status: ('A' for Active; 'I' for Inactive)
REMARK    1  A    between atoms: C_2  and  C_4
REMARK    2  A    between atoms: C_8  and  O_9
REMARK    3  A    between atoms: O_9  and  C_10
REMARK    4  A    between atoms: C_10  and  C_11
REMARK    5  A    between atoms: C_11  and  C_12
REMARK    6  A    between atoms: C_12  and  C_13
REMARK    7  A    between atoms: C_13  and  O_14
REMARK    8  A    between atoms: O_14  and  C_15
REMARK    9  A    between atoms: C_19  and  C_20
REMARK                            x       y       z     vdW  Elec       q    Type
REMARK                         _______ _______ _______ _____ _____    ______ ____
ROOT
ATOM      1  C   UNL     1       1.650   4.455  18.901  0.00  0.00    +0.000 C 
ENDROOT
BRANCH   1   2
ATOM      2  C   UNL     1       2.320   5.199  20.049  0.00  0.00    +0.000 C 
BRANCH   2   3
ATOM      3  O   UNL     1       3.012   6.331  19.527  0.00  0.00    +0.000 OA
BRANCH   3   8
ATOM      4  C   UNL     1       0.798   9.234  20.207  0.00  0.00    +0.000 A 
ATOM      5  C   UNL     1       0.798   9.817  18.937  0.00  0.00    +0.000 A 
ATOM      6  C   UNL     1       1.542   9.234  17.912  0.00  0.00    +0.000 A 
ATOM      7  C   UNL     1       2.268   8.067  18.157  0.00  0.00    +0.000 A 
ATOM      8  C   UNL     1       2.272   7.478  19.424  0.00  0.00    +0.000 A 
ATOM      9  C   UNL     1       1.544   8.075  20.454  0.00  0.00    +0.000 A 
BRANCH   4  11
ATOM     10  N   UNL     1      -0.569  10.975  21.140  0.00  0.00    +0.000 NA
ATOM     11  C   UNL     1      -0.002   9.826  21.312  0.00  0.00    +0.000 C 
ATOM     12  N   UNL     1      -0.106   9.172  22.505  0.00  0.00    +0.000 N 
ATOM     13  H   UNL     1      -1.106  11.224  21.972  0.00  0.00    +0.000 HD
ATOM     14  H   UNL     1      -0.345   9.755  23.298  0.00  0.00    +0.000 HD
ATOM     15  H   UNL     1       0.667   8.551  22.724  0.00  0.00    +0.000 HD
ENDBRANCH   4  11
ENDBRANCH   3   8
ENDBRANCH   2   3
ENDBRANCH   1   2
BRANCH   1  16
ATOM     16  C   UNL     1       2.071   2.989  18.871  0.00  0.00    +0.000 C 
BRANCH  16  17
ATOM     17  C   UNL     1       3.566   2.836  18.633  0.00  0.00    +0.000 C 
BRANCH  17  18
ATOM     18  O   UNL     1       3.851   3.233  17.294  0.00  0.00    +0.000 OA
BRANCH  18  19
ATOM     19  C   UNL     1       5.020   3.930  17.129  0.00  0.00    +0.000 A 
ATOM     20  C   UNL     1       5.517   3.971  15.825  0.00  0.00    +0.000 A 
ATOM     21  C   UNL     1       6.717   4.631  15.562  0.00  0.00    +0.000 A 
ATOM     22  C   UNL     1       7.422   5.258  16.594  0.00  0.00    +0.000 A 
ATOM     23  C   UNL     1       6.931   5.217  17.911  0.00  0.00    +0.000 A 
ATOM     24  C   UNL     1       5.731   4.549  18.158  0.00  0.00    +0.000 A 
BRANCH  23  25
ATOM     25  C   UNL     1       7.674   5.855  19.050  0.00  0.00    +0.000 C 
ATOM     26  N   UNL     1       7.747   5.345  20.235  0.00  0.00    +0.000 NA
ATOM     27  N   UNL     1       8.328   7.041  18.896  0.00  0.00    +0.000 N 
ATOM     28  H   UNL     1       7.271   4.442  20.303  0.00  0.00    +0.000 HD
ATOM     29  H   UNL     1       7.891   7.740  18.303  0.00  0.00    +0.000 HD
ATOM     30  H   UNL     1       8.581   7.413  19.800  0.00  0.00    +0.000 HD
ENDBRANCH  23  25
ENDBRANCH  18  19
ENDBRANCH  17  18
ENDBRANCH  16  17
ENDBRANCH   1  16
TORSDOF 9
ENDMDL
MODEL 9
REMARK VINA RESULT:      -7.5      4.928      7.420
REMARK  Name = 
REMARK  9 active torsions:
REMARK  status: ('A' for Active; 'I' for Inactive)
REMARK    1  A    between atoms: C_2  and  C_4
REMARK    2  A    between atoms: C_8  and  O_9
REMARK    3  A    between atoms: O_9  and  C_10
REMARK    4  A    between atoms: C_10  and  C_11
REMARK    5  A    between atoms: C_11  and  C_12
REMARK    6  A    between atoms: C_12  and  C_13
REMARK    7  A    between atoms: C_13  and  O_14
REMARK    8  A    between atoms: O_14  and  C_15
REMARK    9  A    between atoms: C_19  and  C_20
REMARK                            x       y       z     vdW  Elec       q    Type
REMARK                         _______ _______ _______ _____ _____    ______ ____
ROOT
ATOM      1  C   UNL     1       2.210   4.132  19.775  0.00  0.00    +0.000 C 
ENDROOT
BRANCH   1   2
ATOM      2  C   UNL     1       2.135   5.428  20.575  0.00  0.00    +0.000 C 
BRANCH   2   3
ATOM      3  O   UNL     1       2.698   6.483  19.801  0.00  0.00    +0.000 OA
BRANCH   3   8
ATOM      4  C   UNL     1       0.546   9.368  20.715  0.00  0.00    +0.000 A 
ATOM      5  C   UNL     1       0.575  10.062  19.501  0.00  0.00    +0.000 A 
ATOM      6  C   UNL     1       1.317   9.554  18.436  0.00  0.00    +0.000 A 
ATOM      7  C   UNL     1       2.013   8.352  18.583  0.00  0.00    +0.000 A 
ATOM      8  C   UNL     1       1.987   7.654  19.793  0.00  0.00    +0.000 A 
ATOM      9  C   UNL     1       1.261   8.174  20.865  0.00  0.00    +0.000 A 
BRANCH   4  11
ATOM     10  N   UNL     1      -0.410   9.139  22.906  0.00  0.00    +0.000 NA
ATOM     11  C   UNL     1      -0.254   9.880  21.860  0.00  0.00    +0.000 C 
ATOM     12  N   UNL     1      -0.840  11.110  21.785  0.00  0.00    +0.000 N 
ATOM     13  H   UNL     1      -0.949   9.645  23.612  0.00  0.00    +0.000 HD
ATOM     14  H   UNL     1      -1.628  11.252  22.406  0.00  0.00    +0.000 HD
ATOM     15  H   UNL     1      -1.050  11.430  20.845  0.00  0.00    +0.000 HD
ENDBRANCH   4  11
ENDBRANCH   3   8
ENDBRANCH   2   3
ENDBRANCH   1   2
BRANCH   1  16
ATOM     16  C   UNL     1       1.716   4.335  18.347  0.00  0.00    +0.000 C 
BRANCH  16  17
ATOM     17  C   UNL     1       2.630   3.664  17.332  0.00  0.00    +0.000 C 
BRANCH  17  18
ATOM     18  O   UNL     1       3.865   3.355  17.974  0.00  0.00    +0.000 OA
BRANCH  18  19
ATOM     19  C   UNL     1       4.928   4.135  17.600  0.00  0.00    +0.000 A 
ATOM     20  C   UNL     1       5.114   4.276  16.223  0.00  0.00    +0.000 A 
ATOM     21  C   UNL     1       6.187   5.027  15.743  0.00  0.00    +0.000 A 
ATOM     22  C   UNL     1       7.072   5.645  16.631  0.00  0.00    +0.000 A 
ATOM     23  C   UNL     1       6.895   5.504  18.019  0.00  0.00    +0.000 A 
ATOM     24  C   UNL     1       5.819   4.747  18.483  0.00  0.00    +0.000 A 
BRANCH  23  25
ATOM     25  C   UNL     1       7.841   6.131  19.003  0.00  0.00    +0.000 C 
ATOM     26  N   UNL     1       8.335   7.318  18.867  0.00  0.00    +0.000 NA
ATOM     27  N   UNL     1       8.245   5.466  20.121  0.00  0.00    +0.000 N 
ATOM     28  H   UNL     1       7.985   7.795  18.033  0.00  0.00    +0.000 HD
ATOM     29  H   UNL     1       8.410   4.468  20.036  0.00  0.00    +0.000 HD
ATOM     30  H   UNL     1       9.028   5.948  20.541  0.00  0.00    +0.000 HD
ENDBRANCH  23  25
ENDBRANCH  18  19
ENDBRANCH  17  18
ENDBRANCH  16  17
ENDBRANCH   1  16
TORSDOF 9
ENDMDL
