MODEL 1
REMARK VINA RESULT:      -8.9      0.000      0.000
REMARK  Name = 
REMARK  5 active torsions:
REMARK  status: ('A' for Active; 'I' for Inactive)
REMARK    1  A    between atoms: C_2  and  C_3
REMARK    2  A    between atoms: C_3  and  N_4
REMARK    3  A    between atoms: C_6  and  C_7
REMARK    4  A    between atoms: C_20  and  O_21
REMARK    5  A    between atoms: O_21  and  C_22
REMARK                            x       y       z     vdW  Elec       q    Type
REMARK                         _______ _______ _______ _____ _____    ______ ____
ROOT
ATOM      1  N   UNL     1       3.448   4.174  19.420  0.00  0.00    +0.000 N 
ATOM      2  C   UNL     1       4.339   3.933  18.407  0.00  0.00    +0.000 A 
ATOM      3  C   UNL     1       4.468   5.075  17.629  0.00  0.00    +0.000 A 
ATOM      4  C   UNL     1       3.569   6.043  18.197  0.00  0.00    +0.000 A 
ATOM      5  C   UNL     1       3.181   7.363  17.868  0.00  0.00    +0.000 A 
ATOM      6  C   UNL     1       2.322   8.102  18.692  0.00  0.00    +0.000 A 
ATOM      7  C   UNL     1       1.777   7.510  19.823  0.00  0.00    +0.000 A 
ATOM      8  C   UNL     1       2.079   6.182  20.149  0.00  0.00    +0.000 A 
ATOM      9  C   UNL     1       2.980   5.471  19.334  0.00  0.00    +0.000 A 
ENDROOT
BRANCH   3  10
ATOM     10  C   UNL     1       5.364   5.103  16.463  0.00  0.00    +0.000 A 
ATOM     11  N   UNL     1       4.917   4.384  15.385  0.00  0.00    +0.000 NA
ATOM     12  C   UNL     1       5.715   4.314  14.297  0.00  0.00    +0.000 A 
ATOM     13  C   UNL     1       5.347   3.536  13.202  0.00  0.00    +0.000 A 
ATOM     14  C   UNL     1       6.165   3.427  12.073  0.00  0.00    +0.000 A 
ATOM     15  C   UNL     1       7.366   4.121  12.026  0.00  0.00    +0.000 A 
ATOM     16  C   UNL     1       7.744   4.908  13.113  0.00  0.00    +0.000 A 
ATOM     17  C   UNL     1       6.950   5.002  14.249  0.00  0.00    +0.000 A 
ATOM     18  N   UNL     1       7.393   5.713  15.293  0.00  0.00    +0.000 NA
ATOM     19  C   UNL     1       6.610   5.726  16.403  0.00  0.00    +0.000 A 
ATOM     20 CL   UNL     1       7.457   6.429  17.724  0.00  0.00    +0.000 Cl
ENDBRANCH   3  10
BRANCH   6  21
ATOM     21  O   UNL     1       2.117   9.386  18.266  0.00  0.00    +0.000 OA
ATOM     22  C   UNL     1       0.891  10.009  18.625  0.00  0.00    +0.000 C 
ENDBRANCH   6  21
BRANCH   1  23
ATOM     23  C   UNL     1       3.101   3.200  20.454  0.00  0.00    +0.000 C 
BRANCH  23  25
ATOM     24  C   UNL     1       1.191   2.323  19.069  0.00  0.00    +0.000 C 
ATOM     25  C   UNL     1       1.725   2.629  20.261  0.00  0.00    +0.000 C 
ENDBRANCH  23  25
ENDBRANCH   1  23
TORSDOF 4
ENDMDL
MODEL 2
REMARK VINA RESULT:      -8.1      3.402      7.439
REMARK  Name = 
REMARK  5 active torsions:
REMARK  status: ('A' for Active; 'I' for Inactive)
REMARK    1  A    between atoms: C_2  and  C_3
REMARK    2  A    between atoms: C_3  and  N_4
REMARK    3  A    between atoms: C_6  and  C_7
REMARK    4  A    between atoms: C_20  and  O_21
REMARK    5  A    between atoms: O_21  and  C_22
REMARK                            x       y       z     vdW  Elec       q    Type
REMARK                         _______ _______ _______ _____ _____    ______ ____
ROOT
ATOM      1  N   UNL     1       2.722   4.241  20.063  0.00  0.00    +0.000 N 
ATOM      2  C   UNL     1       1.954   5.306  20.456  0.00  0.00    +0.000 A 
ATOM      3  C   UNL     1       2.421   6.458  19.840  0.00  0.00    +0.000 A 
ATOM      4  C   UNL     1       3.562   6.055  19.060  0.00  0.00    +0.000 A 
ATOM      5  C   UNL     1       4.508   6.725  18.251  0.00  0.00    +0.000 A 
ATOM      6  C   UNL     1       5.481   6.024  17.527  0.00  0.00    +0.000 A 
ATOM      7  C   UNL     1       5.572   4.645  17.656  0.00  0.00    +0.000 A 
ATOM      8  C   UNL     1       4.700   3.948  18.502  0.00  0.00    +0.000 A 
ATOM      9  C   UNL     1       3.699   4.665  19.185  0.00  0.00    +0.000 A 
ENDROOT
BRANCH   3  10
ATOM     10  C   UNL     1       1.782   7.761  20.080  0.00  0.00    +0.000 A 
ATOM     11  N   UNL     1       1.246   7.909  21.333  0.00  0.00    +0.000 NA
ATOM     12  C   UNL     1       0.590   9.057  21.608  0.00  0.00    +0.000 A 
ATOM     13  C   UNL     1      -0.041   9.231  22.838  0.00  0.00    +0.000 A 
ATOM     14  C   UNL     1      -0.747  10.399  23.140  0.00  0.00    +0.000 A 
ATOM     15  C   UNL     1      -0.811  11.424  22.206  0.00  0.00    +0.000 A 
ATOM     16  C   UNL     1      -0.179  11.266  20.973  0.00  0.00    +0.000 A 
ATOM     17  C   UNL     1       0.503  10.097  20.655  0.00  0.00    +0.000 A 
ATOM     18  N   UNL     1       1.030   9.968  19.431  0.00  0.00    +0.000 NA
ATOM     19  C   UNL     1       1.634   8.785  19.146  0.00  0.00    +0.000 A 
ATOM     20 CL   UNL     1       1.986   8.683  17.466  0.00  0.00    +0.000 Cl
ENDBRANCH   3  10
BRANCH   6  21
ATOM     21  O   UNL     1       6.262   6.821  16.735  0.00  0.00    +0.000 OA
ATOM     22  C   UNL     1       7.395   7.434  17.334  0.00  0.00    +0.000 C 
ENDBRANCH   6  21
BRANCH   1  23
ATOM     23  C   UNL     1       2.487   2.862  20.490  0.00  0.00    +0.000 C 
BRANCH  23  25
ATOM     24  C   UNL     1       0.719   2.427  18.753  0.00  0.00    +0.000 C 
ATOM     25  C   UNL     1       1.813   2.042  19.427  0.00  0.00    +0.000 C 
ENDBRANCH  23  25
ENDBRANCH   1  23
TORSDOF 4
ENDMDL
MODEL 3
REMARK VINA RESULT:      -7.8      1.186      1.565
REMARK  Name = 
REMARK  5 active torsions:
REMARK  status: ('A' for Active; 'I' for Inactive)
REMARK    1  A    between atoms: C_2  and  C_3
REMARK    2  A    between atoms: C_3  and  N_4
REMARK    3  A    between atoms: C_6  and  C_7
REMARK    4  A    between atoms: C_20  and  O_21
REMARK    5  A    between atoms: O_21  and  C_22
REMARK                            x       y       z     vdW  Elec       q    Type
REMARK                         _______ _______ _______ _____ _____    ______ ____
ROOT
ATOM      1  N   UNL     1       4.060   3.334  19.673  0.00  0.00    +0.000 N 
ATOM      2  C   UNL     1       4.911   3.317  18.599  0.00  0.00    +0.000 A 
ATOM      3  C   UNL     1       4.812   4.522  17.918  0.00  0.00    +0.000 A 
ATOM      4  C   UNL     1       3.813   5.288  18.614  0.00  0.00    +0.000 A 
ATOM      5  C   UNL     1       3.207   6.551  18.420  0.00  0.00    +0.000 A 
ATOM      6  C   UNL     1       2.299   7.078  19.349  0.00  0.00    +0.000 A 
ATOM      7  C   UNL     1       1.925   6.320  20.450  0.00  0.00    +0.000 A 
ATOM      8  C   UNL     1       2.448   5.035  20.643  0.00  0.00    +0.000 A 
ATOM      9  C   UNL     1       3.394   4.542  19.724  0.00  0.00    +0.000 A 
ENDROOT
BRANCH   3  10
ATOM     10  C   UNL     1       5.617   4.783  16.714  0.00  0.00    +0.000 A 
ATOM     11  N   UNL     1       5.208   4.100  15.598  0.00  0.00    +0.000 NA
ATOM     12  C   UNL     1       5.935   4.243  14.468  0.00  0.00    +0.000 A 
ATOM     13  C   UNL     1       5.612   3.515  13.326  0.00  0.00    +0.000 A 
ATOM     14  C   UNL     1       6.362   3.626  12.151  0.00  0.00    +0.000 A 
ATOM     15  C   UNL     1       7.445   4.493  12.106  0.00  0.00    +0.000 A 
ATOM     16  C   UNL     1       7.776   5.232  13.241  0.00  0.00    +0.000 A 
ATOM     17  C   UNL     1       7.052   5.109  14.421  0.00  0.00    +0.000 A 
ATOM     18  N   UNL     1       7.456   5.787  15.503  0.00  0.00    +0.000 NA
ATOM     19  C   UNL     1       6.753   5.587  16.649  0.00  0.00    +0.000 A 
ATOM     20 CL   UNL     1       7.575   6.294  17.984  0.00  0.00    +0.000 Cl
ENDBRANCH   3  10
BRANCH   6  21
ATOM     21  O   UNL     1       1.871   8.342  19.047  0.00  0.00    +0.000 OA
ATOM     22  C   UNL     1       2.167   8.843  17.750  0.00  0.00    +0.000 C 
ENDBRANCH   6  21
BRANCH   1  23
ATOM     23  C   UNL     1       3.934   2.239  20.634  0.00  0.00    +0.000 C 
BRANCH  23  25
ATOM     24  C   UNL     1       5.473   0.614  21.787  0.00  0.00    +0.000 C 
ATOM     25  C   UNL     1       5.207   1.453  20.775  0.00  0.00    +0.000 C 
ENDBRANCH  23  25
ENDBRANCH   1  23
TORSDOF 4
ENDMDL
MODEL 4
REMARK VINA RESULT:      -7.8      1.876      3.809
REMARK  Name = 
REMARK  5 active torsions:
REMARK  status: ('A' for Active; 'I' for Inactive)
REMARK    1  A    between atoms: C_2  and  C_3
REMARK    2  A    between atoms: C_3  and  N_4
REMARK    3  A    between atoms: C_6  and  C_7
REMARK    4  A    between atoms: C_20  and  O_21
REMARK    5  A    between atoms: O_21  and  C_22
REMARK                            x       y       z     vdW  Elec       q    Type
REMARK                         _______ _______ _______ _____ _____    ______ ____
ROOT
ATOM      1  N   UNL     1       2.755   7.320  18.741  0.00  0.00    +0.000 N 
ATOM      2  C   UNL     1       3.615   7.316  17.674  0.00  0.00    +0.000 A 
ATOM      3  C   UNL     1       4.198   6.062  17.562  0.00  0.00    +0.000 A 
ATOM      4  C   UNL     1       3.677   5.284  18.655  0.00  0.00    +0.000 A 
ATOM      5  C   UNL     1       3.893   3.975  19.143  0.00  0.00    +0.000 A 
ATOM      6  C   UNL     1       3.146   3.457  20.210  0.00  0.00    +0.000 A 
ATOM      7  C   UNL     1       2.220   4.265  20.854  0.00  0.00    +0.000 A 
ATOM      8  C   UNL     1       2.024   5.591  20.449  0.00  0.00    +0.000 A 
ATOM      9  C   UNL     1       2.751   6.078  19.346  0.00  0.00    +0.000 A 
ENDROOT
BRANCH   3  10
ATOM     10  C   UNL     1       5.171   5.769  16.498  0.00  0.00    +0.000 A 
ATOM     11  N   UNL     1       4.675   5.016  15.466  0.00  0.00    +0.000 NA
ATOM     12  C   UNL     1       5.526   4.656  14.480  0.00  0.00    +0.000 A 
ATOM     13  C   UNL     1       5.096   3.827  13.446  0.00  0.00    +0.000 A 
ATOM     14  C   UNL     1       5.962   3.421  12.426  0.00  0.00    +0.000 A 
ATOM     15  C   UNL     1       7.278   3.862  12.425  0.00  0.00    +0.000 A 
ATOM     16  C   UNL     1       7.720   4.696  13.452  0.00  0.00    +0.000 A 
ATOM     17  C   UNL     1       6.873   5.085  14.483  0.00  0.00    +0.000 A 
ATOM     18  N   UNL     1       7.367   5.827  15.482  0.00  0.00    +0.000 NA
ATOM     19  C   UNL     1       6.517   6.131  16.497  0.00  0.00    +0.000 A 
ATOM     20 CL   UNL     1       7.381   6.825  17.812  0.00  0.00    +0.000 Cl
ENDBRANCH   3  10
BRANCH   6  21
ATOM     21  O   UNL     1       3.428   2.151  20.499  0.00  0.00    +0.000 OA
ATOM     22  C   UNL     1       4.788   1.743  20.439  0.00  0.00    +0.000 C 
ENDBRANCH   6  21
BRANCH   1  23
ATOM     23  C   UNL     1       1.938   8.469  19.130  0.00  0.00    +0.000 C 
BRANCH  23  25
ATOM     24  C   UNL     1       0.201   9.871  17.967  0.00  0.00    +0.000 C 
ATOM     25  C   UNL     1       1.348   9.177  17.943  0.00  0.00    +0.000 C 
ENDBRANCH  23  25
ENDBRANCH   1  23
TORSDOF 4
ENDMDL
MODEL 5
REMARK VINA RESULT:      -7.4      3.093      7.377
REMARK  Name = 
REMARK  5 active torsions:
REMARK  status: ('A' for Active; 'I' for Inactive)
REMARK    1  A    between atoms: C_2  and  C_3
REMARK    2  A    between atoms: C_3  and  N_4
REMARK    3  A    between atoms: C_6  and  C_7
REMARK    4  A    between atoms: C_20  and  O_21
REMARK    5  A    between atoms: O_21  and  C_22
REMARK                            x       y       z     vdW  Elec       q    Type
REMARK                         _______ _______ _______ _____ _____    ______ ____
ROOT
ATOM      1  N   UNL     1       4.938   6.297  17.032  0.00  0.00    +0.000 N 
ATOM      2  C   UNL     1       4.362   7.431  17.544  0.00  0.00    +0.000 A 
ATOM      3  C   UNL     1       3.127   7.109  18.090  0.00  0.00    +0.000 A 
ATOM      4  C   UNL     1       2.945   5.702  17.854  0.00  0.00    +0.000 A 
ATOM      5  C   UNL     1       1.909   4.773  18.101  0.00  0.00    +0.000 A 
ATOM      6  C   UNL     1       2.068   3.407  17.829  0.00  0.00    +0.000 A 
ATOM      7  C   UNL     1       3.239   2.958  17.236  0.00  0.00    +0.000 A 
ATOM      8  C   UNL     1       4.264   3.855  16.909  0.00  0.00    +0.000 A 
ATOM      9  C   UNL     1       4.104   5.215  17.233  0.00  0.00    +0.000 A 
ENDROOT
BRANCH   3  10
ATOM     10  C   UNL     1       2.281   8.139  18.713  0.00  0.00    +0.000 A 
ATOM     11  N   UNL     1       2.312   9.357  18.085  0.00  0.00    +0.000 NA
ATOM     12  C   UNL     1       1.606  10.369  18.634  0.00  0.00    +0.000 A 
ATOM     13  C   UNL     1       1.661  11.648  18.082  0.00  0.00    +0.000 A 
ATOM     14  C   UNL     1       0.960  12.718  18.645  0.00  0.00    +0.000 A 
ATOM     15  C   UNL     1       0.172  12.509  19.768  0.00  0.00    +0.000 A 
ATOM     16  C   UNL     1       0.103  11.233  20.328  0.00  0.00    +0.000 A 
ATOM     17  C   UNL     1       0.817  10.169  19.791  0.00  0.00    +0.000 A 
ATOM     18  N   UNL     1       0.773   8.982  20.408  0.00  0.00    +0.000 NA
ATOM     19  C   UNL     1       1.536   7.988  19.881  0.00  0.00    +0.000 A 
ATOM     20 CL   UNL     1       1.588   6.644  20.951  0.00  0.00    +0.000 Cl
ENDBRANCH   3  10
BRANCH   6  21
ATOM     21  O   UNL     1       0.998   2.640  18.203  0.00  0.00    +0.000 OA
ATOM     22  C   UNL     1       0.644   2.635  19.579  0.00  0.00    +0.000 C 
ENDBRANCH   6  21
BRANCH   1  23
ATOM     23  C   UNL     1       6.263   6.260  16.414  0.00  0.00    +0.000 C 
BRANCH  23  25
ATOM     24  C   UNL     1       7.643   6.061  18.510  0.00  0.00    +0.000 C 
ATOM     25  C   UNL     1       7.347   6.688  17.362  0.00  0.00    +0.000 C 
ENDBRANCH  23  25
ENDBRANCH   1  23
TORSDOF 4
ENDMDL
MODEL 6
REMARK VINA RESULT:      -7.4      2.920      6.645
REMARK  Name = 
REMARK  5 active torsions:
REMARK  status: ('A' for Active; 'I' for Inactive)
REMARK    1  A    between atoms: C_2  and  C_3
REMARK    2  A    between atoms: C_3  and  N_4
REMARK    3  A    between atoms: C_6  and  C_7
REMARK    4  A    between atoms: C_20  and  O_21
REMARK    5  A    between atoms: O_21  and  C_22
REMARK                            x       y       z     vdW  Elec       q    Type
REMARK                         _______ _______ _______ _____ _____    ______ ____
ROOT
ATOM      1  N   UNL     1       3.261   3.965  17.403  0.00  0.00    +0.000 N 
ATOM      2  C   UNL     1       2.430   4.863  18.020  0.00  0.00    +0.000 A 
ATOM      3  C   UNL     1       3.076   6.087  18.124  0.00  0.00    +0.000 A 
ATOM      4  C   UNL     1       4.387   5.891  17.565  0.00  0.00    +0.000 A 
ATOM      5  C   UNL     1       5.539   6.696  17.411  0.00  0.00    +0.000 A 
ATOM      6  C   UNL     1       6.670   6.234  16.723  0.00  0.00    +0.000 A 
ATOM      7  C   UNL     1       6.696   4.933  16.242  0.00  0.00    +0.000 A 
ATOM      8  C   UNL     1       5.603   4.078  16.434  0.00  0.00    +0.000 A 
ATOM      9  C   UNL     1       4.459   4.575  17.086  0.00  0.00    +0.000 A 
ENDROOT
BRANCH   3  10
ATOM     10  C   UNL     1       2.416   7.243  18.751  0.00  0.00    +0.000 A 
ATOM     11  N   UNL     1       2.487   8.401  18.022  0.00  0.00    +0.000 NA
ATOM     12  C   UNL     1       1.955   9.521  18.560  0.00  0.00    +0.000 A 
ATOM     13  C   UNL     1       2.065  10.742  17.899  0.00  0.00    +0.000 A 
ATOM     14  C   UNL     1       1.544  11.919  18.445  0.00  0.00    +0.000 A 
ATOM     15  C   UNL     1       0.885  11.878  19.666  0.00  0.00    +0.000 A 
ATOM     16  C   UNL     1       0.763  10.661  20.336  0.00  0.00    +0.000 A 
ATOM     17  C   UNL     1       1.300   9.490  19.813  0.00  0.00    +0.000 A 
ATOM     18  N   UNL     1       1.218   8.363  20.530  0.00  0.00    +0.000 NA
ATOM     19  C   UNL     1       1.809   7.258  20.005  0.00  0.00    +0.000 A 
ATOM     20 CL   UNL     1       1.864   5.997  21.174  0.00  0.00    +0.000 Cl
ENDBRANCH   3  10
BRANCH   6  21
ATOM     21  O   UNL     1       7.660   7.169  16.598  0.00  0.00    +0.000 OA
ATOM     22  C   UNL     1       7.810   8.113  17.650  0.00  0.00    +0.000 C 
ENDBRANCH   6  21
BRANCH   1  23
ATOM     23  C   UNL     1       2.889   2.585  17.094  0.00  0.00    +0.000 C 
BRANCH  23  25
ATOM     24  C   UNL     1       3.834   1.948  19.338  0.00  0.00    +0.000 C 
ATOM     25  C   UNL     1       3.417   1.611  18.109  0.00  0.00    +0.000 C 
ENDBRANCH  23  25
ENDBRANCH   1  23
TORSDOF 4
ENDMDL
MODEL 7
REMARK VINA RESULT:      -7.2      2.825      7.181
REMARK  Name = 
REMARK  5 active torsions:
REMARK  status: ('A' for Active; 'I' for Inactive)
REMARK    1  A    between atoms: C_2  and  C_3
REMARK    2  A    between atoms: C_3  and  N_4
REMARK    3  A    between atoms: C_6  and  C_7
REMARK    4  A    between atoms: C_20  and  O_21
REMARK    5  A    between atoms: O_21  and  C_22
REMARK                            x       y       z     vdW  Elec       q    Type
REMARK                         _______ _______ _______ _____ _____    ______ ____
ROOT
ATOM      1  N   UNL     1       4.827   5.805  16.915  0.00  0.00    +0.000 N 
ATOM      2  C   UNL     1       4.354   7.011  17.362  0.00  0.00    +0.000 A 
ATOM      3  C   UNL     1       3.147   6.814  18.017  0.00  0.00    +0.000 A 
ATOM      4  C   UNL     1       2.870   5.405  17.921  0.00  0.00    +0.000 A 
ATOM      5  C   UNL     1       1.805   4.565  18.320  0.00  0.00    +0.000 A 
ATOM      6  C   UNL     1       1.868   3.174  18.159  0.00  0.00    +0.000 A 
ATOM      7  C   UNL     1       2.966   2.605  17.530  0.00  0.00    +0.000 A 
ATOM      8  C   UNL     1       4.012   3.407  17.055  0.00  0.00    +0.000 A 
ATOM      9  C   UNL     1       3.952   4.797  17.268  0.00  0.00    +0.000 A 
ENDROOT
BRANCH   3  10
ATOM     10  C   UNL     1       2.407   7.942  18.603  0.00  0.00    +0.000 A 
ATOM     11  N   UNL     1       2.552   9.128  17.931  0.00  0.00    +0.000 NA
ATOM     12  C   UNL     1       1.950  10.223  18.444  0.00  0.00    +0.000 A 
ATOM     13  C   UNL     1       2.126  11.469  17.846  0.00  0.00    +0.000 A 
ATOM     14  C   UNL     1       1.534  12.622  18.369  0.00  0.00    +0.000 A 
ATOM     15  C   UNL     1       0.735  12.531  19.501  0.00  0.00    +0.000 A 
ATOM     16  C   UNL     1       0.546  11.289  20.106  0.00  0.00    +0.000 A 
ATOM     17  C   UNL     1       1.152  10.142  19.608  0.00  0.00    +0.000 A 
ATOM     18  N   UNL     1       0.996   8.988  20.268  0.00  0.00    +0.000 NA
ATOM     19  C   UNL     1       1.656   7.907  19.777  0.00  0.00    +0.000 A 
ATOM     20 CL   UNL     1       1.583   6.603  20.896  0.00  0.00    +0.000 Cl
ENDBRANCH   3  10
BRANCH   6  21
ATOM     21  O   UNL     1       0.788   2.509  18.673  0.00  0.00    +0.000 OA
ATOM     22  C   UNL     1       0.514   2.674  20.057  0.00  0.00    +0.000 C 
ENDBRANCH   6  21
BRANCH   1  23
ATOM     23  C   UNL     1       6.099   5.635  16.212  0.00  0.00    +0.000 C 
BRANCH  23  25
ATOM     24  C   UNL     1       6.264   4.067  14.250  0.00  0.00    +0.000 C 
ATOM     25  C   UNL     1       5.909   5.250  14.773  0.00  0.00    +0.000 C 
ENDBRANCH  23  25
ENDBRANCH   1  23
TORSDOF 4
ENDMDL
MODEL 8
REMARK VINA RESULT:      -7.1      3.264      7.960
REMARK  Name = 
REMARK  5 active torsions:
REMARK  status: ('A' for Active; 'I' for Inactive)
REMARK    1  A    between atoms: C_2  and  C_3
REMARK    2  A    between atoms: C_3  and  N_4
REMARK    3  A    between atoms: C_6  and  C_7
REMARK    4  A    between atoms: C_20  and  O_21
REMARK    5  A    between atoms: O_21  and  C_22
REMARK                            x       y       z     vdW  Elec       q    Type
REMARK                         _______ _______ _______ _____ _____    ______ ____
ROOT
ATOM      1  N   UNL     1       4.056   6.297  17.403  0.00  0.00    +0.000 N 
ATOM      2  C   UNL     1       3.566   7.487  17.873  0.00  0.00    +0.000 A 
ATOM      3  C   UNL     1       2.595   7.234  18.832  0.00  0.00    +0.000 A 
ATOM      4  C   UNL     1       2.479   5.802  18.909  0.00  0.00    +0.000 A 
ATOM      5  C   UNL     1       1.659   4.902  19.628  0.00  0.00    +0.000 A 
ATOM      6  C   UNL     1       1.851   3.515  19.554  0.00  0.00    +0.000 A 
ATOM      7  C   UNL     1       2.818   3.001  18.701  0.00  0.00    +0.000 A 
ATOM      8  C   UNL     1       3.605   3.854  17.917  0.00  0.00    +0.000 A 
ATOM      9  C   UNL     1       3.429   5.245  18.041  0.00  0.00    +0.000 A 
ENDROOT
BRANCH   3  10
ATOM     10  C   UNL     1       1.891   8.334  19.510  0.00  0.00    +0.000 A 
ATOM     11  N   UNL     1       1.408   8.019  20.753  0.00  0.00    +0.000 NA
ATOM     12  C   UNL     1       0.698   8.961  21.412  0.00  0.00    +0.000 A 
ATOM     13  C   UNL     1       0.118   8.671  22.645  0.00  0.00    +0.000 A 
ATOM     14  C   UNL     1      -0.641   9.620  23.337  0.00  0.00    +0.000 A 
ATOM     15  C   UNL     1      -0.811  10.889  22.801  0.00  0.00    +0.000 A 
ATOM     16  C   UNL     1      -0.231  11.194  21.570  0.00  0.00    +0.000 A 
ATOM     17  C   UNL     1       0.504  10.249  20.863  0.00  0.00    +0.000 A 
ATOM     18  N   UNL     1       0.978  10.571  19.653  0.00  0.00    +0.000 NA
ATOM     19  C   UNL     1       1.637   9.595  18.974  0.00  0.00    +0.000 A 
ATOM     20 CL   UNL     1       1.914  10.082  17.348  0.00  0.00    +0.000 Cl
ENDBRANCH   3  10
BRANCH   6  21
ATOM     21  O   UNL     1       1.024   2.798  20.375  0.00  0.00    +0.000 OA
ATOM     22  C   UNL     1       1.435   2.618  21.723  0.00  0.00    +0.000 C 
ENDBRANCH   6  21
BRANCH   1  23
ATOM     23  C   UNL     1       5.123   6.188  16.408  0.00  0.00    +0.000 C 
BRANCH  23  25
ATOM     24  C   UNL     1       7.249   7.147  17.357  0.00  0.00    +0.000 C 
ATOM     25  C   UNL     1       6.484   6.092  17.039  0.00  0.00    +0.000 C 
ENDBRANCH  23  25
ENDBRANCH   1  23
TORSDOF 4
ENDMDL
MODEL 9
REMARK VINA RESULT:      -7.0      3.045      6.764
REMARK  Name = 
REMARK  5 active torsions:
REMARK  status: ('A' for Active; 'I' for Inactive)
REMARK    1  A    between atoms: C_2  and  C_3
REMARK    2  A    between atoms: C_3  and  N_4
REMARK    3  A    between atoms: C_6  and  C_7
REMARK    4  A    between atoms: C_20  and  O_21
REMARK    5  A    between atoms: O_21  and  C_22
REMARK                            x       y       z     vdW  Elec       q    Type
REMARK                         _______ _______ _______ _____ _____    ______ ____
ROOT
ATOM      1  N   UNL     1       2.675   4.576  17.777  0.00  0.00    +0.000 N 
ATOM      2  C   UNL     1       1.939   5.614  18.286  0.00  0.00    +0.000 A 
ATOM      3  C   UNL     1       2.701   6.773  18.255  0.00  0.00    +0.000 A 
ATOM      4  C   UNL     1       3.983   6.390  17.726  0.00  0.00    +0.000 A 
ATOM      5  C   UNL     1       5.206   7.057  17.487  0.00  0.00    +0.000 A 
ATOM      6  C   UNL     1       6.282   6.414  16.861  0.00  0.00    +0.000 A 
ATOM      7  C   UNL     1       6.180   5.071  16.528  0.00  0.00    +0.000 A 
ATOM      8  C   UNL     1       5.011   4.353  16.811  0.00  0.00    +0.000 A 
ATOM      9  C   UNL     1       3.924   5.028  17.398  0.00  0.00    +0.000 A 
ENDROOT
BRANCH   3  10
ATOM     10  C   UNL     1       2.160   8.051  18.745  0.00  0.00    +0.000 A 
ATOM     11  N   UNL     1       2.477   9.136  17.971  0.00  0.00    +0.000 NA
ATOM     12  C   UNL     1       2.065  10.353  18.390  0.00  0.00    +0.000 A 
ATOM     13  C   UNL     1       2.424  11.500  17.684  0.00  0.00    +0.000 A 
ATOM     14  C   UNL     1       2.031  12.773  18.109  0.00  0.00    +0.000 A 
ATOM     15  C   UNL     1       1.251  12.907  19.249  0.00  0.00    +0.000 A 
ATOM     16  C   UNL     1       0.881  11.767  19.962  0.00  0.00    +0.000 A 
ATOM     17  C   UNL     1       1.288  10.500  19.562  0.00  0.00    +0.000 A 
ATOM     18  N   UNL     1       0.966   9.445  20.321  0.00  0.00    +0.000 NA
ATOM     19  C   UNL     1       1.437   8.235  19.922  0.00  0.00    +0.000 A 
ATOM     20 CL   UNL     1       1.182   7.060  21.151  0.00  0.00    +0.000 Cl
ENDBRANCH   3  10
BRANCH   6  21
ATOM     21  O   UNL     1       7.358   7.229  16.635  0.00  0.00    +0.000 OA
ATOM     22  C   UNL     1       7.817   8.025  17.719  0.00  0.00    +0.000 C 
ENDBRANCH   6  21
BRANCH   1  23
ATOM     23  C   UNL     1       2.170   3.212  17.623  0.00  0.00    +0.000 C 
BRANCH  23  25
ATOM     24  C   UNL     1       1.703   2.273  19.911  0.00  0.00    +0.000 C 
ATOM     25  C   UNL     1       1.273   2.805  18.757  0.00  0.00    +0.000 C 
ENDBRANCH  23  25
ENDBRANCH   1  23
TORSDOF 4
ENDMDL
