MODEL 1
REMARK VINA RESULT:      -8.4      0.000      0.000
REMARK  Name = 
REMARK  6 active torsions:
REMARK  status: ('A' for Active; 'I' for Inactive)
REMARK    1  A    between atoms: C_2  and  C_3
REMARK    2  A    between atoms: C_7  and  C_8
REMARK    3  A    between atoms: C_12  and  C_13
REMARK    4  A    between atoms: C_13  and  N_14
REMARK    5  A    between atoms: C_17  and  C_18
REMARK    6  A    between atoms: C_18  and  N_19
REMARK                            x       y       z     vdW  Elec       q    Type
REMARK                         _______ _______ _______ _____ _____    ______ ____
ROOT
ATOM      1  C   UNL     1       2.044   7.454  19.817  0.00  0.00    +0.000 A 
ATOM      2  C   UNL     1       1.547   8.607  19.251  0.00  0.00    +0.000 A 
ATOM      3  C   UNL     1       0.891   9.335  20.285  0.00  0.00    +0.000 A 
ATOM      4  C   UNL     1       0.068  10.479  20.302  0.00  0.00    +0.000 A 
ATOM      5  C   UNL     1      -0.507  10.905  21.513  0.00  0.00    +0.000 A 
ATOM      6  C   UNL     1      -0.182  10.239  22.704  0.00  0.00    +0.000 A 
ATOM      7  C   UNL     1       0.654   9.117  22.714  0.00  0.00    +0.000 A 
ATOM      8  C   UNL     1       1.135   8.666  21.483  0.00  0.00    +0.000 A 
ATOM      9  N   UNL     1       1.849   7.534  21.170  0.00  0.00    +0.000 N 
ATOM     10  H   UNL     1       2.133   6.813  21.820  0.00  0.00    +0.000 HD
ENDROOT
BRANCH   1  15
ATOM     11  C   UNL     1       5.155   5.290  15.975  0.00  0.00    +0.000 A 
ATOM     12  C   UNL     1       5.050   6.660  16.238  0.00  0.00    +0.000 A 
ATOM     13  C   UNL     1       4.210   7.133  17.254  0.00  0.00    +0.000 A 
ATOM     14  C   UNL     1       3.486   6.208  18.032  0.00  0.00    +0.000 A 
ATOM     15  C   UNL     1       2.609   6.258  19.148  0.00  0.00    +0.000 A 
ATOM     16  N   UNL     1       2.280   5.036  19.586  0.00  0.00    +0.000 NA
ATOM     17  N   UNL     1       2.828   4.216  18.676  0.00  0.00    +0.000 N 
ATOM     18  C   UNL     1       3.619   4.851  17.754  0.00  0.00    +0.000 A 
ATOM     19  C   UNL     1       4.424   4.355  16.722  0.00  0.00    +0.000 A 
ATOM     20  H   UNL     1       2.645   3.221  18.753  0.00  0.00    +0.000 HD
BRANCH  11  22
ATOM     21  N   UNL     1       6.767   4.465  14.119  0.00  0.00    +0.000 NA
ATOM     22  C   UNL     1       6.043   4.832  14.943  0.00  0.00    +0.000 C 
ENDBRANCH  11  22
ENDBRANCH   1  15
BRANCH   5  23
ATOM     23  C   UNL     1      -1.469  12.076  21.529  0.00  0.00    +0.000 C 
BRANCH  23  24
ATOM     24  N   UNL     1      -1.833  12.565  22.882  0.00  0.00    +0.000 NA
ATOM     25  C   UNL     1      -1.504  13.994  23.035  0.00  0.00    +0.000 C 
ATOM     26  C   UNL     1      -2.011  14.590  24.353  0.00  0.00    +0.000 C 
ATOM     27  C   UNL     1      -3.516  14.377  24.554  0.00  0.00    +0.000 C 
ATOM     28  C   UNL     1      -3.795  12.875  24.424  0.00  0.00    +0.000 C 
ATOM     29  C   UNL     1      -3.260  12.289  23.115  0.00  0.00    +0.000 C 
BRANCH  27  30
ATOM     30  C   UNL     1      -4.394  15.197  23.587  0.00  0.00    +0.000 C 
BRANCH  30  31
ATOM     31  N   UNL     1      -5.710  15.477  24.149  0.00  0.00    +0.000 NA
ATOM     32  H   UNL     1      -6.384  14.797  23.798  0.00  0.00    +0.000 HD
ATOM     33  H   UNL     1      -6.033  16.387  23.821  0.00  0.00    +0.000 HD
ENDBRANCH  30  31
ENDBRANCH  27  30
ENDBRANCH  23  24
ENDBRANCH   5  23
TORSDOF 6
ENDMDL
MODEL 2
REMARK VINA RESULT:      -8.3      0.797      1.081
REMARK  Name = 
REMARK  6 active torsions:
REMARK  status: ('A' for Active; 'I' for Inactive)
REMARK    1  A    between atoms: C_2  and  C_3
REMARK    2  A    between atoms: C_7  and  C_8
REMARK    3  A    between atoms: C_12  and  C_13
REMARK    4  A    between atoms: C_13  and  N_14
REMARK    5  A    between atoms: C_17  and  C_18
REMARK    6  A    between atoms: C_18  and  N_19
REMARK                            x       y       z     vdW  Elec       q    Type
REMARK                         _______ _______ _______ _____ _____    ______ ____
ROOT
ATOM      1  C   UNL     1       1.932   7.584  19.956  0.00  0.00    +0.000 A 
ATOM      2  C   UNL     1       1.522   8.755  19.361  0.00  0.00    +0.000 A 
ATOM      3  C   UNL     1       0.836   9.515  20.352  0.00  0.00    +0.000 A 
ATOM      4  C   UNL     1       0.065  10.693  20.319  0.00  0.00    +0.000 A 
ATOM      5  C   UNL     1      -0.564  11.148  21.492  0.00  0.00    +0.000 A 
ATOM      6  C   UNL     1      -0.340  10.473  22.701  0.00  0.00    +0.000 A 
ATOM      7  C   UNL     1       0.443   9.316  22.763  0.00  0.00    +0.000 A 
ATOM      8  C   UNL     1       0.978   8.840  21.564  0.00  0.00    +0.000 A 
ATOM      9  N   UNL     1       1.660   7.676  21.295  0.00  0.00    +0.000 N 
ATOM     10  H   UNL     1       1.872   6.946  21.961  0.00  0.00    +0.000 HD
ENDROOT
BRANCH   1  15
ATOM     11  C   UNL     1       5.040   5.271  16.200  0.00  0.00    +0.000 A 
ATOM     12  C   UNL     1       4.955   6.649  16.426  0.00  0.00    +0.000 A 
ATOM     13  C   UNL     1       4.114   7.162  17.422  0.00  0.00    +0.000 A 
ATOM     14  C   UNL     1       3.370   6.269  18.218  0.00  0.00    +0.000 A 
ATOM     15  C   UNL     1       2.484   6.362  19.323  0.00  0.00    +0.000 A 
ATOM     16  N   UNL     1       2.132   5.157  19.791  0.00  0.00    +0.000 NA
ATOM     17  N   UNL     1       2.675   4.305  18.907  0.00  0.00    +0.000 N 
ATOM     18  C   UNL     1       3.483   4.903  17.976  0.00  0.00    +0.000 A 
ATOM     19  C   UNL     1       4.289   4.368  16.964  0.00  0.00    +0.000 A 
ATOM     20  H   UNL     1       2.476   3.316  19.009  0.00  0.00    +0.000 HD
BRANCH  11  22
ATOM     21  N   UNL     1       6.653   4.380  14.375  0.00  0.00    +0.000 NA
ATOM     22  C   UNL     1       5.929   4.773  15.188  0.00  0.00    +0.000 C 
ENDBRANCH  11  22
ENDBRANCH   1  15
BRANCH   5  23
ATOM     23  C   UNL     1      -1.472  12.360  21.449  0.00  0.00    +0.000 C 
BRANCH  23  24
ATOM     24  N   UNL     1      -2.789  12.175  22.109  0.00  0.00    +0.000 NA
ATOM     25  C   UNL     1      -2.764  12.688  23.491  0.00  0.00    +0.000 C 
ATOM     26  C   UNL     1      -4.143  12.674  24.162  0.00  0.00    +0.000 C 
ATOM     27  C   UNL     1      -5.202  13.426  23.345  0.00  0.00    +0.000 C 
ATOM     28  C   UNL     1      -5.211  12.828  21.933  0.00  0.00    +0.000 C 
ATOM     29  C   UNL     1      -3.824  12.824  21.287  0.00  0.00    +0.000 C 
BRANCH  27  30
ATOM     30  C   UNL     1      -4.988  14.952  23.307  0.00  0.00    +0.000 C 
BRANCH  30  31
ATOM     31  N   UNL     1      -4.697  15.496  24.629  0.00  0.00    +0.000 NA
ATOM     32  H   UNL     1      -4.018  16.252  24.546  0.00  0.00    +0.000 HD
ATOM     33  H   UNL     1      -4.251  14.778  25.201  0.00  0.00    +0.000 HD
ENDBRANCH  30  31
ENDBRANCH  27  30
ENDBRANCH  23  24
ENDBRANCH   5  23
TORSDOF 6
ENDMDL
MODEL 3
REMARK VINA RESULT:      -8.1      3.666      9.848
REMARK  Name = 
REMARK  6 active torsions:
REMARK  status: ('A' for Active; 'I' for Inactive)
REMARK    1  A    between atoms: C_2  and  C_3
REMARK    2  A    between atoms: C_7  and  C_8
REMARK    3  A    between atoms: C_12  and  C_13
REMARK    4  A    between atoms: C_13  and  N_14
REMARK    5  A    between atoms: C_17  and  C_18
REMARK    6  A    between atoms: C_18  and  N_19
REMARK                            x       y       z     vdW  Elec       q    Type
REMARK                         _______ _______ _______ _____ _____    ______ ____
ROOT
ATOM      1  C   UNL     1       0.593  10.482  18.793  0.00  0.00    +0.000 A 
ATOM      2  C   UNL     1       1.189   9.825  17.740  0.00  0.00    +0.000 A 
ATOM      3  C   UNL     1       1.794   8.647  18.266  0.00  0.00    +0.000 A 
ATOM      4  C   UNL     1       2.667   7.678  17.736  0.00  0.00    +0.000 A 
ATOM      5  C   UNL     1       3.163   6.657  18.566  0.00  0.00    +0.000 A 
ATOM      6  C   UNL     1       2.710   6.564  19.891  0.00  0.00    +0.000 A 
ATOM      7  C   UNL     1       1.823   7.500  20.432  0.00  0.00    +0.000 A 
ATOM      8  C   UNL     1       1.421   8.553  19.607  0.00  0.00    +0.000 A 
ATOM      9  N   UNL     1       0.681   9.675  19.895  0.00  0.00    +0.000 N 
ATOM     10  H   UNL     1       0.310   9.924  20.802  0.00  0.00    +0.000 HD
ENDROOT
BRANCH   1  15
ATOM     11  C   UNL     1       1.301  15.831  18.680  0.00  0.00    +0.000 A 
ATOM     12  C   UNL     1       2.316  14.888  18.481  0.00  0.00    +0.000 A 
ATOM     13  C   UNL     1       2.040  13.516  18.535  0.00  0.00    +0.000 A 
ATOM     14  C   UNL     1       0.717  13.090  18.765  0.00  0.00    +0.000 A 
ATOM     15  C   UNL     1       0.026  11.852  18.833  0.00  0.00    +0.000 A 
ATOM     16  N   UNL     1      -1.296  12.019  18.967  0.00  0.00    +0.000 NA
ATOM     17  N   UNL     1      -1.433  13.344  19.124  0.00  0.00    +0.000 N 
ATOM     18  C   UNL     1      -0.272  14.052  18.949  0.00  0.00    +0.000 A 
ATOM     19  C   UNL     1      -0.016  15.428  18.935  0.00  0.00    +0.000 A 
ATOM     20  H   UNL     1      -2.357  13.711  19.324  0.00  0.00    +0.000 HD
BRANCH  11  22
ATOM     21  N   UNL     1       1.859  18.358  18.516  0.00  0.00    +0.000 NA
ATOM     22  C   UNL     1       1.609  17.231  18.595  0.00  0.00    +0.000 C 
ENDBRANCH  11  22
ENDBRANCH   1  15
BRANCH   5  23
ATOM     23  C   UNL     1       4.176   5.664  18.033  0.00  0.00    +0.000 C 
BRANCH  23  24
ATOM     24  N   UNL     1       3.770   4.241  18.141  0.00  0.00    +0.000 NA
ATOM     25  C   UNL     1       4.165   3.676  19.445  0.00  0.00    +0.000 C 
ATOM     26  C   UNL     1       3.624   2.260  19.676  0.00  0.00    +0.000 C 
ATOM     27  C   UNL     1       2.101   2.179  19.510  0.00  0.00    +0.000 C 
ATOM     28  C   UNL     1       1.752   2.741  18.127  0.00  0.00    +0.000 C 
ATOM     29  C   UNL     1       2.321   4.143  17.902  0.00  0.00    +0.000 C 
BRANCH  27  30
ATOM     30  C   UNL     1       1.316   2.900  20.624  0.00  0.00    +0.000 C 
BRANCH  30  31
ATOM     31  N   UNL     1       1.818   2.563  21.952  0.00  0.00    +0.000 NA
ATOM     32  H   UNL     1       2.578   1.888  21.869  0.00  0.00    +0.000 HD
ATOM     33  H   UNL     1       1.084   2.097  22.484  0.00  0.00    +0.000 HD
ENDBRANCH  30  31
ENDBRANCH  27  30
ENDBRANCH  23  24
ENDBRANCH   5  23
TORSDOF 6
ENDMDL
MODEL 4
REMARK VINA RESULT:      -8.1      2.209     11.010
REMARK  Name = 
REMARK  6 active torsions:
REMARK  status: ('A' for Active; 'I' for Inactive)
REMARK    1  A    between atoms: C_2  and  C_3
REMARK    2  A    between atoms: C_7  and  C_8
REMARK    3  A    between atoms: C_12  and  C_13
REMARK    4  A    between atoms: C_13  and  N_14
REMARK    5  A    between atoms: C_17  and  C_18
REMARK    6  A    between atoms: C_18  and  N_19
REMARK                            x       y       z     vdW  Elec       q    Type
REMARK                         _______ _______ _______ _____ _____    ______ ____
ROOT
ATOM      1  C   UNL     1      -0.662  11.234  19.985  0.00  0.00    +0.000 A 
ATOM      2  C   UNL     1      -0.139  10.244  20.785  0.00  0.00    +0.000 A 
ATOM      3  C   UNL     1       0.780   9.501  19.989  0.00  0.00    +0.000 A 
ATOM      4  C   UNL     1       1.490   8.299  20.183  0.00  0.00    +0.000 A 
ATOM      5  C   UNL     1       2.271   7.775  19.137  0.00  0.00    +0.000 A 
ATOM      6  C   UNL     1       2.406   8.501  17.945  0.00  0.00    +0.000 A 
ATOM      7  C   UNL     1       1.732   9.710  17.740  0.00  0.00    +0.000 A 
ATOM      8  C   UNL     1       0.893  10.157  18.763  0.00  0.00    +0.000 A 
ATOM      9  N   UNL     1       0.015  11.214  18.794  0.00  0.00    +0.000 N 
ATOM     10  H   UNL     1      -0.174  11.850  18.032  0.00  0.00    +0.000 HD
ENDROOT
BRANCH   1  15
ATOM     11  C   UNL     1      -3.255  14.655  23.256  0.00  0.00    +0.000 A 
ATOM     12  C   UNL     1      -1.996  14.102  23.516  0.00  0.00    +0.000 A 
ATOM     13  C   UNL     1      -1.401  13.216  22.610  0.00  0.00    +0.000 A 
ATOM     14  C   UNL     1      -2.074  12.904  21.412  0.00  0.00    +0.000 A 
ATOM     15  C   UNL     1      -1.811  12.134  20.249  0.00  0.00    +0.000 A 
ATOM     16  N   UNL     1      -2.770  12.273  19.325  0.00  0.00    +0.000 NA
ATOM     17  N   UNL     1      -3.703  13.011  19.946  0.00  0.00    +0.000 N 
ATOM     18  C   UNL     1      -3.320  13.477  21.177  0.00  0.00    +0.000 A 
ATOM     19  C   UNL     1      -3.951  14.338  22.082  0.00  0.00    +0.000 A 
ATOM     20  H   UNL     1      -4.577  13.187  19.462  0.00  0.00    +0.000 HD
BRANCH  11  22
ATOM     21  N   UNL     1      -4.283  16.326  24.952  0.00  0.00    +0.000 NA
ATOM     22  C   UNL     1      -3.829  15.580  24.191  0.00  0.00    +0.000 C 
ENDBRANCH  11  22
ENDBRANCH   1  15
BRANCH   5  23
ATOM     23  C   UNL     1       2.962   6.436  19.300  0.00  0.00    +0.000 C 
BRANCH  23  24
ATOM     24  N   UNL     1       2.250   5.288  18.686  0.00  0.00    +0.000 NA
ATOM     25  C   UNL     1       3.122   4.570  17.738  0.00  0.00    +0.000 C 
ATOM     26  C   UNL     1       2.493   3.279  17.201  0.00  0.00    +0.000 C 
ATOM     27  C   UNL     1       2.049   2.332  18.323  0.00  0.00    +0.000 C 
ATOM     28  C   UNL     1       1.116   3.116  19.254  0.00  0.00    +0.000 C 
ATOM     29  C   UNL     1       1.749   4.415  19.760  0.00  0.00    +0.000 C 
BRANCH  27  30
ATOM     30  C   UNL     1       3.220   1.701  19.102  0.00  0.00    +0.000 C 
BRANCH  30  31
ATOM     31  N   UNL     1       4.023   0.819  18.262  0.00  0.00    +0.000 NA
ATOM     32  H   UNL     1       3.544  -0.075  18.149  0.00  0.00    +0.000 HD
ATOM     33  H   UNL     1       4.903   0.610  18.732  0.00  0.00    +0.000 HD
ENDBRANCH  30  31
ENDBRANCH  27  30
ENDBRANCH  23  24
ENDBRANCH   5  23
TORSDOF 6
ENDMDL
MODEL 5
REMARK VINA RESULT:      -8.0      2.219      3.483
REMARK  Name = 
REMARK  6 active torsions:
REMARK  status: ('A' for Active; 'I' for Inactive)
REMARK    1  A    between atoms: C_2  and  C_3
REMARK    2  A    between atoms: C_7  and  C_8
REMARK    3  A    between atoms: C_12  and  C_13
REMARK    4  A    between atoms: C_13  and  N_14
REMARK    5  A    between atoms: C_17  and  C_18
REMARK    6  A    between atoms: C_18  and  N_19
REMARK                            x       y       z     vdW  Elec       q    Type
REMARK                         _______ _______ _______ _____ _____    ______ ____
ROOT
ATOM      1  C   UNL     1       2.143   7.296  19.777  0.00  0.00    +0.000 A 
ATOM      2  C   UNL     1       1.699   8.444  19.161  0.00  0.00    +0.000 A 
ATOM      3  C   UNL     1       0.993   9.202  20.140  0.00  0.00    +0.000 A 
ATOM      4  C   UNL     1       0.189  10.356  20.087  0.00  0.00    +0.000 A 
ATOM      5  C   UNL     1      -0.452  10.814  21.252  0.00  0.00    +0.000 A 
ATOM      6  C   UNL     1      -0.209  10.167  22.473  0.00  0.00    +0.000 A 
ATOM      7  C   UNL     1       0.608   9.034  22.554  0.00  0.00    +0.000 A 
ATOM      8  C   UNL     1       1.155   8.552  21.363  0.00  0.00    +0.000 A 
ATOM      9  N   UNL     1       1.870   7.404  21.114  0.00  0.00    +0.000 N 
ATOM     10  H   UNL     1       2.103   6.692  21.793  0.00  0.00    +0.000 HD
ENDROOT
BRANCH   1  15
ATOM     11  C   UNL     1       5.194   4.996  15.965  0.00  0.00    +0.000 A 
ATOM     12  C   UNL     1       5.046   6.376  16.143  0.00  0.00    +0.000 A 
ATOM     13  C   UNL     1       4.226   6.885  17.159  0.00  0.00    +0.000 A 
ATOM     14  C   UNL     1       3.567   5.988  18.022  0.00  0.00    +0.000 A 
ATOM     15  C   UNL     1       2.730   6.079  19.165  0.00  0.00    +0.000 A 
ATOM     16  N   UNL     1       2.464   4.878  19.693  0.00  0.00    +0.000 NA
ATOM     17  N   UNL     1       3.010   4.020  18.817  0.00  0.00    +0.000 N 
ATOM     18  C   UNL     1       3.742   4.621  17.826  0.00  0.00    +0.000 A 
ATOM     19  C   UNL     1       4.528   4.088  16.798  0.00  0.00    +0.000 A 
ATOM     20  H   UNL     1       2.869   3.027  18.966  0.00  0.00    +0.000 HD
BRANCH  11  22
ATOM     21  N   UNL     1       6.764   4.117  14.098  0.00  0.00    +0.000 NA
ATOM     22  C   UNL     1       6.061   4.504  14.932  0.00  0.00    +0.000 C 
ENDBRANCH  11  22
ENDBRANCH   1  15
BRANCH   5  23
ATOM     23  C   UNL     1      -1.395  11.998  21.189  0.00  0.00    +0.000 C 
BRANCH  23  24
ATOM     24  N   UNL     1      -0.777  13.263  20.718  0.00  0.00    +0.000 NA
ATOM     25  C   UNL     1       0.512  13.505  21.394  0.00  0.00    +0.000 C 
ATOM     26  C   UNL     1       1.272  14.709  20.825  0.00  0.00    +0.000 C 
ATOM     27  C   UNL     1       1.487  14.605  19.309  0.00  0.00    +0.000 C 
ATOM     28  C   UNL     1       0.116  14.394  18.657  0.00  0.00    +0.000 C 
ATOM     29  C   UNL     1      -0.641  13.205  19.254  0.00  0.00    +0.000 C 
BRANCH  27  30
ATOM     30  C   UNL     1       2.482  13.501  18.899  0.00  0.00    +0.000 C 
BRANCH  30  31
ATOM     31  N   UNL     1       2.405  13.200  17.473  0.00  0.00    +0.000 NA
ATOM     32  H   UNL     1       3.247  12.703  17.183  0.00  0.00    +0.000 HD
ATOM     33  H   UNL     1       2.394  14.071  16.942  0.00  0.00    +0.000 HD
ENDBRANCH  30  31
ENDBRANCH  27  30
ENDBRANCH  23  24
ENDBRANCH   5  23
TORSDOF 6
ENDMDL
MODEL 6
REMARK VINA RESULT:      -8.0      1.523      1.841
REMARK  Name = 
REMARK  6 active torsions:
REMARK  status: ('A' for Active; 'I' for Inactive)
REMARK    1  A    between atoms: C_2  and  C_3
REMARK    2  A    between atoms: C_7  and  C_8
REMARK    3  A    between atoms: C_12  and  C_13
REMARK    4  A    between atoms: C_13  and  N_14
REMARK    5  A    between atoms: C_17  and  C_18
REMARK    6  A    between atoms: C_18  and  N_19
REMARK                            x       y       z     vdW  Elec       q    Type
REMARK                         _______ _______ _______ _____ _____    ______ ____
ROOT
ATOM      1  C   UNL     1       2.097   7.435  19.654  0.00  0.00    +0.000 A 
ATOM      2  C   UNL     1       1.832   8.645  19.053  0.00  0.00    +0.000 A 
ATOM      3  C   UNL     1       1.108   9.433  19.993  0.00  0.00    +0.000 A 
ATOM      4  C   UNL     1       0.430  10.665  19.917  0.00  0.00    +0.000 A 
ATOM      5  C   UNL     1      -0.278  11.142  21.035  0.00  0.00    +0.000 A 
ATOM      6  C   UNL     1      -0.224  10.428  22.241  0.00  0.00    +0.000 A 
ATOM      7  C   UNL     1       0.465   9.216  22.348  0.00  0.00    +0.000 A 
ATOM      8  C   UNL     1       1.081   8.726  21.194  0.00  0.00    +0.000 A 
ATOM      9  N   UNL     1       1.701   7.521  20.962  0.00  0.00    +0.000 N 
ATOM     10  H   UNL     1       1.794   6.764  21.625  0.00  0.00    +0.000 HD
ENDROOT
BRANCH   1  15
ATOM     11  C   UNL     1       5.127   4.979  15.925  0.00  0.00    +0.000 A 
ATOM     12  C   UNL     1       5.069   6.363  16.119  0.00  0.00    +0.000 A 
ATOM     13  C   UNL     1       4.247   6.914  17.111  0.00  0.00    +0.000 A 
ATOM     14  C   UNL     1       3.494   6.054  17.934  0.00  0.00    +0.000 A 
ATOM     15  C   UNL     1       2.621   6.189  19.045  0.00  0.00    +0.000 A 
ATOM     16  N   UNL     1       2.252   5.002  19.543  0.00  0.00    +0.000 NA
ATOM     17  N   UNL     1       2.770   4.120  18.675  0.00  0.00    +0.000 N 
ATOM     18  C   UNL     1       3.580   4.681  17.723  0.00  0.00    +0.000 A 
ATOM     19  C   UNL     1       4.367   4.108  16.717  0.00  0.00    +0.000 A 
ATOM     20  H   UNL     1       2.554   3.137  18.802  0.00  0.00    +0.000 HD
BRANCH  11  22
ATOM     21  N   UNL     1       6.707   4.005  14.112  0.00  0.00    +0.000 NA
ATOM     22  C   UNL     1       5.997   4.441  14.917  0.00  0.00    +0.000 C 
ENDBRANCH  11  22
ENDBRANCH   1  15
BRANCH   5  23
ATOM     23  C   UNL     1      -1.089  12.418  20.936  0.00  0.00    +0.000 C 
BRANCH  23  24
ATOM     24  N   UNL     1      -2.548  12.247  21.151  0.00  0.00    +0.000 NA
ATOM     25  C   UNL     1      -3.014  13.060  22.290  0.00  0.00    +0.000 C 
ATOM     26  C   UNL     1      -4.539  13.050  22.452  0.00  0.00    +0.000 C 
ATOM     27  C   UNL     1      -5.268  13.478  21.172  0.00  0.00    +0.000 C 
ATOM     28  C   UNL     1      -4.776  12.577  20.033  0.00  0.00    +0.000 C 
ATOM     29  C   UNL     1      -3.251  12.576  19.901  0.00  0.00    +0.000 C 
BRANCH  27  30
ATOM     30  C   UNL     1      -5.091  14.969  20.825  0.00  0.00    +0.000 C 
BRANCH  30  31
ATOM     31  N   UNL     1      -5.671  15.301  19.528  0.00  0.00    +0.000 NA
ATOM     32  H   UNL     1      -6.642  14.993  19.499  0.00  0.00    +0.000 HD
ATOM     33  H   UNL     1      -5.188  14.781  18.796  0.00  0.00    +0.000 HD
ENDBRANCH  30  31
ENDBRANCH  27  30
ENDBRANCH  23  24
ENDBRANCH   5  23
TORSDOF 6
ENDMDL
MODEL 7
REMARK VINA RESULT:      -8.0      6.944     10.749
REMARK  Name = 
REMARK  6 active torsions:
REMARK  status: ('A' for Active; 'I' for Inactive)
REMARK    1  A    between atoms: C_2  and  C_3
REMARK    2  A    between atoms: C_7  and  C_8
REMARK    3  A    between atoms: C_12  and  C_13
REMARK    4  A    between atoms: C_13  and  N_14
REMARK    5  A    between atoms: C_17  and  C_18
REMARK    6  A    between atoms: C_18  and  N_19
REMARK                            x       y       z     vdW  Elec       q    Type
REMARK                         _______ _______ _______ _____ _____    ______ ____
ROOT
ATOM      1  C   UNL     1       8.735   9.632  18.443  0.00  0.00    +0.000 A 
ATOM      2  C   UNL     1       7.729   9.357  17.544  0.00  0.00    +0.000 A 
ATOM      3  C   UNL     1       7.441   7.966  17.645  0.00  0.00    +0.000 A 
ATOM      4  C   UNL     1       6.650   7.076  16.893  0.00  0.00    +0.000 A 
ATOM      5  C   UNL     1       6.647   5.705  17.212  0.00  0.00    +0.000 A 
ATOM      6  C   UNL     1       7.361   5.256  18.332  0.00  0.00    +0.000 A 
ATOM      7  C   UNL     1       8.133   6.126  19.109  0.00  0.00    +0.000 A 
ATOM      8  C   UNL     1       8.187   7.464  18.711  0.00  0.00    +0.000 A 
ATOM      9  N   UNL     1       8.954   8.502  19.185  0.00  0.00    +0.000 N 
ATOM     10  H   UNL     1       9.641   8.442  19.924  0.00  0.00    +0.000 HD
ENDROOT
BRANCH   1  15
ATOM     11  C   UNL     1      10.095  14.036  21.249  0.00  0.00    +0.000 A 
ATOM     12  C   UNL     1       9.219  13.043  21.700  0.00  0.00    +0.000 A 
ATOM     13  C   UNL     1       8.918  11.934  20.898  0.00  0.00    +0.000 A 
ATOM     14  C   UNL     1       9.531  11.814  19.636  0.00  0.00    +0.000 A 
ATOM     15  C   UNL     1       9.549  10.863  18.581  0.00  0.00    +0.000 A 
ATOM     16  N   UNL     1      10.420  11.193  17.619  0.00  0.00    +0.000 NA
ATOM     17  N   UNL     1      10.851  12.410  17.987  0.00  0.00    +0.000 N 
ATOM     18  C   UNL     1      10.406  12.813  19.219  0.00  0.00    +0.000 A 
ATOM     19  C   UNL     1      10.696  13.947  19.986  0.00  0.00    +0.000 A 
ATOM     20  H   UNL     1      11.473  12.908  17.360  0.00  0.00    +0.000 HD
BRANCH  11  22
ATOM     21  N   UNL     1      10.657  16.052  22.781  0.00  0.00    +0.000 NA
ATOM     22  C   UNL     1      10.404  15.149  22.102  0.00  0.00    +0.000 C 
ENDBRANCH  11  22
ENDBRANCH   1  15
BRANCH   5  23
ATOM     23  C   UNL     1       5.875   4.725  16.353  0.00  0.00    +0.000 C 
BRANCH  23  24
ATOM     24  N   UNL     1       4.413   4.688  16.609  0.00  0.00    +0.000 NA
ATOM     25  C   UNL     1       4.003   3.377  17.145  0.00  0.00    +0.000 C 
ATOM     26  C   UNL     1       2.534   3.340  17.584  0.00  0.00    +0.000 C 
ATOM     27  C   UNL     1       2.193   4.446  18.590  0.00  0.00    +0.000 C 
ATOM     28  C   UNL     1       2.603   5.786  17.967  0.00  0.00    +0.000 C 
ATOM     29  C   UNL     1       4.064   5.798  17.511  0.00  0.00    +0.000 C 
BRANCH  27  30
ATOM     30  C   UNL     1       2.843   4.248  19.974  0.00  0.00    +0.000 C 
BRANCH  30  31
ATOM     31  N   UNL     1       2.576   5.369  20.869  0.00  0.00    +0.000 NA
ATOM     32  H   UNL     1       2.082   6.102  20.360  0.00  0.00    +0.000 HD
ATOM     33  H   UNL     1       3.459   5.781  21.170  0.00  0.00    +0.000 HD
ENDBRANCH  30  31
ENDBRANCH  27  30
ENDBRANCH  23  24
ENDBRANCH   5  23
TORSDOF 6
ENDMDL
MODEL 8
REMARK VINA RESULT:      -7.9      2.024      2.845
REMARK  Name = 
REMARK  6 active torsions:
REMARK  status: ('A' for Active; 'I' for Inactive)
REMARK    1  A    between atoms: C_2  and  C_3
REMARK    2  A    between atoms: C_7  and  C_8
REMARK    3  A    between atoms: C_12  and  C_13
REMARK    4  A    between atoms: C_13  and  N_14
REMARK    5  A    between atoms: C_17  and  C_18
REMARK    6  A    between atoms: C_18  and  N_19
REMARK                            x       y       z     vdW  Elec       q    Type
REMARK                         _______ _______ _______ _____ _____    ______ ____
ROOT
ATOM      1  C   UNL     1       1.553   8.674  19.937  0.00  0.00    +0.000 A 
ATOM      2  C   UNL     1       1.110   9.943  19.642  0.00  0.00    +0.000 A 
ATOM      3  C   UNL     1       0.305  10.373  20.735  0.00  0.00    +0.000 A 
ATOM      4  C   UNL     1      -0.539  11.481  20.950  0.00  0.00    +0.000 A 
ATOM      5  C   UNL     1      -1.281  11.571  22.142  0.00  0.00    +0.000 A 
ATOM      6  C   UNL     1      -1.102  10.603  23.141  0.00  0.00    +0.000 A 
ATOM      7  C   UNL     1      -0.249   9.509  22.961  0.00  0.00    +0.000 A 
ATOM      8  C   UNL     1       0.403   9.401  21.730  0.00  0.00    +0.000 A 
ATOM      9  N   UNL     1       1.178   8.386  21.222  0.00  0.00    +0.000 N 
ATOM     10  H   UNL     1       1.390   7.513  21.685  0.00  0.00    +0.000 HD
ENDROOT
BRANCH   1  15
ATOM     11  C   UNL     1       3.162   3.621  18.933  0.00  0.00    +0.000 A 
ATOM     12  C   UNL     1       2.374   4.005  20.023  0.00  0.00    +0.000 A 
ATOM     13  C   UNL     1       2.008   5.345  20.208  0.00  0.00    +0.000 A 
ATOM     14  C   UNL     1       2.423   6.305  19.264  0.00  0.00    +0.000 A 
ATOM     15  C   UNL     1       2.231   7.696  19.052  0.00  0.00    +0.000 A 
ATOM     16  N   UNL     1       2.769   8.108  17.897  0.00  0.00    +0.000 NA
ATOM     17  N   UNL     1       3.418   7.024  17.445  0.00  0.00    +0.000 N 
ATOM     18  C   UNL     1       3.198   5.891  18.185  0.00  0.00    +0.000 A 
ATOM     19  C   UNL     1       3.605   4.565  17.997  0.00  0.00    +0.000 A 
ATOM     20  H   UNL     1       3.978   7.115  16.605  0.00  0.00    +0.000 HD
BRANCH  11  22
ATOM     21  N   UNL     1       3.764   1.118  18.618  0.00  0.00    +0.000 NA
ATOM     22  C   UNL     1       3.500   2.237  18.756  0.00  0.00    +0.000 C 
ENDBRANCH  11  22
ENDBRANCH   1  15
BRANCH   5  23
ATOM     23  C   UNL     1      -2.263  12.707  22.344  0.00  0.00    +0.000 C 
BRANCH  23  24
ATOM     24  N   UNL     1      -3.619  12.288  22.779  0.00  0.00    +0.000 NA
ATOM     25  C   UNL     1      -3.864  12.667  24.183  0.00  0.00    +0.000 C 
ATOM     26  C   UNL     1      -5.307  12.407  24.633  0.00  0.00    +0.000 C 
ATOM     27  C   UNL     1      -6.337  13.086  23.721  0.00  0.00    +0.000 C 
ATOM     28  C   UNL     1      -6.061  12.629  22.284  0.00  0.00    +0.000 C 
ATOM     29  C   UNL     1      -4.611  12.869  21.859  0.00  0.00    +0.000 C 
BRANCH  27  30
ATOM     30  C   UNL     1      -6.343  14.624  23.830  0.00  0.00    +0.000 C 
BRANCH  30  31
ATOM     31  N   UNL     1      -7.655  15.188  23.530  0.00  0.00    +0.000 NA
ATOM     32  H   UNL     1      -7.829  15.990  24.134  0.00  0.00    +0.000 HD
ATOM     33  H   UNL     1      -8.378  14.504  23.753  0.00  0.00    +0.000 HD
ENDBRANCH  30  31
ENDBRANCH  27  30
ENDBRANCH  23  24
ENDBRANCH   5  23
TORSDOF 6
ENDMDL
MODEL 9
REMARK VINA RESULT:      -7.9      2.746     10.292
REMARK  Name = 
REMARK  6 active torsions:
REMARK  status: ('A' for Active; 'I' for Inactive)
REMARK    1  A    between atoms: C_2  and  C_3
REMARK    2  A    between atoms: C_7  and  C_8
REMARK    3  A    between atoms: C_12  and  C_13
REMARK    4  A    between atoms: C_13  and  N_14
REMARK    5  A    between atoms: C_17  and  C_18
REMARK    6  A    between atoms: C_18  and  N_19
REMARK                            x       y       z     vdW  Elec       q    Type
REMARK                         _______ _______ _______ _____ _____    ______ ____
ROOT
ATOM      1  C   UNL     1       1.567   9.539  18.754  0.00  0.00    +0.000 A 
ATOM      2  C   UNL     1       2.077   8.691  17.798  0.00  0.00    +0.000 A 
ATOM      3  C   UNL     1       2.285   7.427  18.424  0.00  0.00    +0.000 A 
ATOM      4  C   UNL     1       2.921   6.235  18.026  0.00  0.00    +0.000 A 
ATOM      5  C   UNL     1       3.033   5.168  18.937  0.00  0.00    +0.000 A 
ATOM      6  C   UNL     1       2.430   5.272  20.199  0.00  0.00    +0.000 A 
ATOM      7  C   UNL     1       1.771   6.437  20.606  0.00  0.00    +0.000 A 
ATOM      8  C   UNL     1       1.757   7.510  19.711  0.00  0.00    +0.000 A 
ATOM      9  N   UNL     1       1.315   8.801  19.880  0.00  0.00    +0.000 N 
ATOM     10  H   UNL     1       0.929   9.189  20.729  0.00  0.00    +0.000 HD
ENDROOT
BRANCH   1  15
ATOM     11  C   UNL     1      -1.219  13.959  20.107  0.00  0.00    +0.000 A 
ATOM     12  C   UNL     1      -1.482  12.672  20.589  0.00  0.00    +0.000 A 
ATOM     13  C   UNL     1      -0.708  11.580  20.177  0.00  0.00    +0.000 A 
ATOM     14  C   UNL     1       0.362  11.794  19.287  0.00  0.00    +0.000 A 
ATOM     15  C   UNL     1       1.385  11.010  18.692  0.00  0.00    +0.000 A 
ATOM     16  N   UNL     1       2.247  11.755  17.988  0.00  0.00    +0.000 NA
ATOM     17  N   UNL     1       1.702  12.981  18.017  0.00  0.00    +0.000 N 
ATOM     18  C   UNL     1       0.606  13.087  18.832  0.00  0.00    +0.000 A 
ATOM     19  C   UNL     1      -0.174  14.189  19.202  0.00  0.00    +0.000 A 
ATOM     20  H   UNL     1       2.145  13.716  17.476  0.00  0.00    +0.000 HD
BRANCH  11  22
ATOM     21  N   UNL     1      -2.661  15.951  20.930  0.00  0.00    +0.000 NA
ATOM     22  C   UNL     1      -2.013  15.063  20.566  0.00  0.00    +0.000 C 
ENDBRANCH  11  22
ENDBRANCH   1  15
BRANCH   5  23
ATOM     23  C   UNL     1       3.796   3.916  18.554  0.00  0.00    +0.000 C 
BRANCH  23  24
ATOM     24  N   UNL     1       5.266   4.091  18.449  0.00  0.00    +0.000 NA
ATOM     25  C   UNL     1       5.674   4.308  17.048  0.00  0.00    +0.000 C 
ATOM     26  C   UNL     1       7.160   4.660  16.903  0.00  0.00    +0.000 C 
ATOM     27  C   UNL     1       7.564   5.867  17.758  0.00  0.00    +0.000 C 
ATOM     28  C   UNL     1       7.153   5.572  19.205  0.00  0.00    +0.000 C 
ATOM     29  C   UNL     1       5.674   5.197  19.331  0.00  0.00    +0.000 C 
BRANCH  27  30
ATOM     30  C   UNL     1       6.970   7.203  17.266  0.00  0.00    +0.000 C 
BRANCH  30  31
ATOM     31  N   UNL     1       7.905   8.310  17.433  0.00  0.00    +0.000 NA
ATOM     32  H   UNL     1       8.095   8.451  18.425  0.00  0.00    +0.000 HD
ATOM     33  H   UNL     1       7.472   9.173  17.104  0.00  0.00    +0.000 HD
ENDBRANCH  30  31
ENDBRANCH  27  30
ENDBRANCH  23  24
ENDBRANCH   5  23
TORSDOF 6
ENDMDL
