MODEL 1
REMARK VINA RESULT:      -8.8      0.000      0.000
REMARK  Name = 
REMARK  5 active torsions:
REMARK  status: ('A' for Active; 'I' for Inactive)
REMARK    1  A    between atoms: C_1  and  C_2
REMARK    2  A    between atoms: N_5  and  C_6
REMARK    3  A    between atoms: C_6  and  C_7
REMARK    4  A    between atoms: C_12  and  C_13
REMARK    5  A    between atoms: C_13  and  N_14
REMARK                            x       y       z     vdW  Elec       q    Type
REMARK                         _______ _______ _______ _____ _____    ______ ____
ROOT
ATOM      1  C   UNL     1       2.733   4.285  18.489  0.00  0.00    +0.000 A 
ATOM      2  C   UNL     1       2.114   2.995  18.447  0.00  0.00    +0.000 A 
ATOM      3  C   UNL     1       1.149   2.571  19.347  0.00  0.00    +0.000 A 
ATOM      4  C   UNL     1       0.738   3.447  20.341  0.00  0.00    +0.000 A 
ATOM      5  C   UNL     1       1.290   4.728  20.394  0.00  0.00    +0.000 A 
ATOM      6  C   UNL     1       2.283   5.190  19.483  0.00  0.00    +0.000 A 
ENDROOT
BRANCH   1   7
ATOM      7  C   UNL     1       3.639   4.519  17.296  0.00  0.00    +0.000 C 
BRANCH   7  12
ATOM      8  C   UNL     1       7.412   7.465  17.538  0.00  0.00    +0.000 C 
ATOM      9  C   UNL     1       7.051   5.987  17.355  0.00  0.00    +0.000 C 
ATOM     10  C   UNL     1       6.328   5.752  16.018  0.00  0.00    +0.000 C 
ATOM     11  C   UNL     1       5.700   4.353  15.885  0.00  0.00    +0.000 C 
ATOM     12  N   UNL     1       4.923   3.862  17.033  0.00  0.00    +0.000 NA
ATOM     13  C   UNL     1       5.757   4.027  18.259  0.00  0.00    +0.000 C 
ATOM     14  C   UNL     1       6.205   5.479  18.521  0.00  0.00    +0.000 C 
ENDBRANCH   7  12
ENDBRANCH   1   7
BRANCH   6  15
ATOM     15  C   UNL     1       2.832   6.589  19.708  0.00  0.00    +0.000 C 
BRANCH  15  16
ATOM     16  N   UNL     1       1.906   7.644  19.268  0.00  0.00    +0.000 N 
ATOM     17  C   UNL     1       1.492   8.698  20.059  0.00  0.00    +0.000 A 
ATOM     18  C   UNL     1       1.140   9.971  19.329  0.00  0.00    +0.000 A 
ATOM     19  C   UNL     1       0.526  10.964  19.982  0.00  0.00    +0.000 A 
ATOM     20  C   UNL     1       0.259  10.787  21.351  0.00  0.00    +0.000 A 
ATOM     21  N   UNL     1      -0.376  11.493  22.246  0.00  0.00    +0.000 NA
ATOM     22  N   UNL     1      -0.307  10.766  23.411  0.00  0.00    +0.000 NA
ATOM     23  N   UNL     1       0.354   9.628  23.231  0.00  0.00    +0.000 NA
ATOM     24  N   UNL     1       0.717   9.627  21.934  0.00  0.00    +0.000 N 
ATOM     25  N   UNL     1       1.319   8.551  21.346  0.00  0.00    +0.000 NA
ATOM     26  H   UNL     1       1.055   7.158  18.979  0.00  0.00    +0.000 HD
ENDBRANCH  15  16
ENDBRANCH   6  15
TORSDOF 4
ENDMDL
MODEL 2
REMARK VINA RESULT:      -8.8      1.547      1.939
REMARK  Name = 
REMARK  5 active torsions:
REMARK  status: ('A' for Active; 'I' for Inactive)
REMARK    1  A    between atoms: C_1  and  C_2
REMARK    2  A    between atoms: N_5  and  C_6
REMARK    3  A    between atoms: C_6  and  C_7
REMARK    4  A    between atoms: C_12  and  C_13
REMARK    5  A    between atoms: C_13  and  N_14
REMARK                            x       y       z     vdW  Elec       q    Type
REMARK                         _______ _______ _______ _____ _____    ______ ____
ROOT
ATOM      1  C   UNL     1       3.477   4.688  19.872  0.00  0.00    +0.000 A 
ATOM      2  C   UNL     1       3.382   3.274  20.074  0.00  0.00    +0.000 A 
ATOM      3  C   UNL     1       2.219   2.625  20.457  0.00  0.00    +0.000 A 
ATOM      4  C   UNL     1       1.068   3.377  20.641  0.00  0.00    +0.000 A 
ATOM      5  C   UNL     1       1.111   4.755  20.418  0.00  0.00    +0.000 A 
ATOM      6  C   UNL     1       2.291   5.448  20.024  0.00  0.00    +0.000 A 
ENDROOT
BRANCH   1   7
ATOM      7  C   UNL     1       4.829   5.091  19.317  0.00  0.00    +0.000 C 
BRANCH   7  12
ATOM      8  C   UNL     1       7.953   8.353  17.711  0.00  0.00    +0.000 C 
ATOM      9  C   UNL     1       7.321   7.008  17.337  0.00  0.00    +0.000 C 
ATOM     10  C   UNL     1       5.817   7.161  17.052  0.00  0.00    +0.000 C 
ATOM     11  C   UNL     1       5.065   5.823  16.935  0.00  0.00    +0.000 C 
ATOM     12  N   UNL     1       5.338   4.814  17.970  0.00  0.00    +0.000 NA
ATOM     13  C   UNL     1       6.817   4.659  18.084  0.00  0.00    +0.000 C 
ATOM     14  C   UNL     1       7.559   5.965  18.427  0.00  0.00    +0.000 C 
ENDBRANCH   7  12
ENDBRANCH   1   7
BRANCH   6  15
ATOM     15  C   UNL     1       2.193   6.957  19.881  0.00  0.00    +0.000 C 
BRANCH  15  16
ATOM     16  N   UNL     1       1.811   7.627  21.134  0.00  0.00    +0.000 N 
ATOM     17  C   UNL     1       0.998   8.740  21.207  0.00  0.00    +0.000 A 
ATOM     18  C   UNL     1       0.187   8.882  22.473  0.00  0.00    +0.000 A 
ATOM     19  C   UNL     1      -0.455  10.029  22.725  0.00  0.00    +0.000 A 
ATOM     20  C   UNL     1      -0.370  11.057  21.770  0.00  0.00    +0.000 A 
ATOM     21  N   UNL     1      -0.792  12.291  21.732  0.00  0.00    +0.000 NA
ATOM     22  N   UNL     1      -0.373  12.790  20.522  0.00  0.00    +0.000 NA
ATOM     23  N   UNL     1       0.302  11.878  19.831  0.00  0.00    +0.000 NA
ATOM     24  N   UNL     1       0.312  10.777  20.608  0.00  0.00    +0.000 N 
ATOM     25  N   UNL     1       1.022   9.658  20.277  0.00  0.00    +0.000 NA
ATOM     26  H   UNL     1       2.691   7.890  21.582  0.00  0.00    +0.000 HD
ENDBRANCH  15  16
ENDBRANCH   6  15
TORSDOF 4
ENDMDL
MODEL 3
REMARK VINA RESULT:      -8.7      1.515      2.028
REMARK  Name = 
REMARK  5 active torsions:
REMARK  status: ('A' for Active; 'I' for Inactive)
REMARK    1  A    between atoms: C_1  and  C_2
REMARK    2  A    between atoms: N_5  and  C_6
REMARK    3  A    between atoms: C_6  and  C_7
REMARK    4  A    between atoms: C_12  and  C_13
REMARK    5  A    between atoms: C_13  and  N_14
REMARK                            x       y       z     vdW  Elec       q    Type
REMARK                         _______ _______ _______ _____ _____    ______ ____
ROOT
ATOM      1  C   UNL     1       3.859   4.041  18.755  0.00  0.00    +0.000 A 
ATOM      2  C   UNL     1       3.699   2.621  18.844  0.00  0.00    +0.000 A 
ATOM      3  C   UNL     1       2.473   1.977  18.799  0.00  0.00    +0.000 A 
ATOM      4  C   UNL     1       1.327   2.741  18.639  0.00  0.00    +0.000 A 
ATOM      5  C   UNL     1       1.443   4.127  18.511  0.00  0.00    +0.000 A 
ATOM      6  C   UNL     1       2.689   4.815  18.555  0.00  0.00    +0.000 A 
ENDROOT
BRANCH   1   7
ATOM      7  C   UNL     1       5.319   4.444  18.688  0.00  0.00    +0.000 C 
BRANCH   7  12
ATOM      8  C   UNL     1       7.655   8.539  17.824  0.00  0.00    +0.000 C 
ATOM      9  C   UNL     1       7.541   7.093  17.329  0.00  0.00    +0.000 C 
ATOM     10  C   UNL     1       6.166   6.829  16.693  0.00  0.00    +0.000 C 
ATOM     11  C   UNL     1       5.880   5.342  16.420  0.00  0.00    +0.000 C 
ATOM     12  N   UNL     1       6.183   4.396  17.504  0.00  0.00    +0.000 NA
ATOM     13  C   UNL     1       7.576   4.660  17.970  0.00  0.00    +0.000 C 
ATOM     14  C   UNL     1       7.810   6.102  18.461  0.00  0.00    +0.000 C 
ENDBRANCH   7  12
ENDBRANCH   1   7
BRANCH   6  15
ATOM     15  C   UNL     1       2.647   6.331  18.464  0.00  0.00    +0.000 C 
BRANCH  15  16
ATOM     16  N   UNL     1       2.500   6.978  19.777  0.00  0.00    +0.000 N 
ATOM     17  C   UNL     1       1.705   8.081  20.019  0.00  0.00    +0.000 A 
ATOM     18  C   UNL     1       1.144   8.196  21.416  0.00  0.00    +0.000 A 
ATOM     19  C   UNL     1       0.550   9.331  21.802  0.00  0.00    +0.000 A 
ATOM     20  C   UNL     1       0.445  10.374  20.865  0.00  0.00    +0.000 A 
ATOM     21  N   UNL     1       0.013  11.603  20.926  0.00  0.00    +0.000 NA
ATOM     22  N   UNL     1       0.194  12.124  19.666  0.00  0.00    +0.000 NA
ATOM     23  N   UNL     1       0.736  11.230  18.848  0.00  0.00    +0.000 NA
ATOM     24  N   UNL     1       0.901  10.118  19.591  0.00  0.00    +0.000 N 
ATOM     25  N   UNL     1       1.546   9.012  19.116  0.00  0.00    +0.000 NA
ATOM     26  H   UNL     1       3.445   7.246  20.058  0.00  0.00    +0.000 HD
ENDBRANCH  15  16
ENDBRANCH   6  15
TORSDOF 4
ENDMDL
MODEL 4
REMARK VINA RESULT:      -8.7      1.425      4.023
REMARK  Name = 
REMARK  5 active torsions:
REMARK  status: ('A' for Active; 'I' for Inactive)
REMARK    1  A    between atoms: C_1  and  C_2
REMARK    2  A    between atoms: N_5  and  C_6
REMARK    3  A    between atoms: C_6  and  C_7
REMARK    4  A    between atoms: C_12  and  C_13
REMARK    5  A    between atoms: C_13  and  N_14
REMARK                            x       y       z     vdW  Elec       q    Type
REMARK                         _______ _______ _______ _____ _____    ______ ____
ROOT
ATOM      1  C   UNL     1       4.193   4.303  17.016  0.00  0.00    +0.000 A 
ATOM      2  C   UNL     1       5.112   3.727  16.082  0.00  0.00    +0.000 A 
ATOM      3  C   UNL     1       6.410   4.177  15.897  0.00  0.00    +0.000 A 
ATOM      4  C   UNL     1       6.862   5.236  16.670  0.00  0.00    +0.000 A 
ATOM      5  C   UNL     1       6.008   5.801  17.619  0.00  0.00    +0.000 A 
ATOM      6  C   UNL     1       4.670   5.360  17.831  0.00  0.00    +0.000 A 
ENDROOT
BRANCH   1   7
ATOM      7  C   UNL     1       2.902   3.513  17.102  0.00  0.00    +0.000 C 
BRANCH   7  12
ATOM      8  C   UNL     1       2.214   3.684  21.843  0.00  0.00    +0.000 C 
ATOM      9  C   UNL     1       2.234   2.702  20.666  0.00  0.00    +0.000 C 
ATOM     10  C   UNL     1       3.652   2.558  20.088  0.00  0.00    +0.000 C 
ATOM     11  C   UNL     1       3.705   1.805  18.746  0.00  0.00    +0.000 C 
ATOM     12  N   UNL     1       2.723   2.198  17.724  0.00  0.00    +0.000 NA
ATOM     13  C   UNL     1       1.372   2.194  18.357  0.00  0.00    +0.000 C 
ATOM     14  C   UNL     1       1.250   3.127  19.578  0.00  0.00    +0.000 C 
ENDBRANCH   7  12
ENDBRANCH   1   7
BRANCH   6  15
ATOM     15  C   UNL     1       3.845   6.117  18.857  0.00  0.00    +0.000 C 
BRANCH  15  16
ATOM     16  N   UNL     1       2.806   6.960  18.246  0.00  0.00    +0.000 N 
ATOM     17  C   UNL     1       2.152   7.988  18.896  0.00  0.00    +0.000 A 
ATOM     18  C   UNL     1       1.669   9.119  18.022  0.00  0.00    +0.000 A 
ATOM     19  C   UNL     1       0.842  10.043  18.527  0.00  0.00    +0.000 A 
ATOM     20  C   UNL     1       0.477   9.933  19.880  0.00  0.00    +0.000 A 
ATOM     21  N   UNL     1      -0.347  10.590  20.650  0.00  0.00    +0.000 NA
ATOM     22  N   UNL     1      -0.272   9.981  21.880  0.00  0.00    +0.000 NA
ATOM     23  N   UNL     1       0.579   8.962  21.863  0.00  0.00    +0.000 NA
ATOM     24  N   UNL     1       1.061   8.919  20.605  0.00  0.00    +0.000 N 
ATOM     25  N   UNL     1       1.883   7.918  20.174  0.00  0.00    +0.000 NA
ATOM     26  H   UNL     1       2.077   6.314  17.936  0.00  0.00    +0.000 HD
ENDBRANCH  15  16
ENDBRANCH   6  15
TORSDOF 4
ENDMDL
MODEL 5
REMARK VINA RESULT:      -8.6      0.971      1.725
REMARK  Name = 
REMARK  5 active torsions:
REMARK  status: ('A' for Active; 'I' for Inactive)
REMARK    1  A    between atoms: C_1  and  C_2
REMARK    2  A    between atoms: N_5  and  C_6
REMARK    3  A    between atoms: C_6  and  C_7
REMARK    4  A    between atoms: C_12  and  C_13
REMARK    5  A    between atoms: C_13  and  N_14
REMARK                            x       y       z     vdW  Elec       q    Type
REMARK                         _______ _______ _______ _____ _____    ______ ____
ROOT
ATOM      1  C   UNL     1       2.676   4.640  18.458  0.00  0.00    +0.000 A 
ATOM      2  C   UNL     1       2.319   3.356  17.934  0.00  0.00    +0.000 A 
ATOM      3  C   UNL     1       1.417   2.497  18.542  0.00  0.00    +0.000 A 
ATOM      4  C   UNL     1       0.803   2.902  19.717  0.00  0.00    +0.000 A 
ATOM      5  C   UNL     1       1.096   4.162  20.241  0.00  0.00    +0.000 A 
ATOM      6  C   UNL     1       2.019   5.065  19.639  0.00  0.00    +0.000 A 
ENDROOT
BRANCH   1   7
ATOM      7  C   UNL     1       3.569   5.411  17.507  0.00  0.00    +0.000 C 
BRANCH   7  12
ATOM      8  C   UNL     1       6.123   3.999  13.704  0.00  0.00    +0.000 C 
ATOM      9  C   UNL     1       6.270   4.708  15.054  0.00  0.00    +0.000 C 
ATOM     10  C   UNL     1       6.008   3.742  16.221  0.00  0.00    +0.000 C 
ATOM     11  C   UNL     1       5.873   4.436  17.588  0.00  0.00    +0.000 C 
ATOM     12  N   UNL     1       5.013   5.628  17.646  0.00  0.00    +0.000 NA
ATOM     13  C   UNL     1       5.425   6.549  16.548  0.00  0.00    +0.000 C 
ATOM     14  C   UNL     1       5.346   5.921  15.142  0.00  0.00    +0.000 C 
ENDBRANCH   7  12
ENDBRANCH   1   7
BRANCH   6  15
ATOM     15  C   UNL     1       2.278   6.376  20.363  0.00  0.00    +0.000 C 
BRANCH  15  16
ATOM     16  N   UNL     1       1.597   7.519  19.736  0.00  0.00    +0.000 N 
ATOM     17  C   UNL     1       1.269   8.688  20.393  0.00  0.00    +0.000 A 
ATOM     18  C   UNL     1       1.222   9.933  19.541  0.00  0.00    +0.000 A 
ATOM     19  C   UNL     1       0.705  11.062  20.041  0.00  0.00    +0.000 A 
ATOM     20  C   UNL     1       0.248  11.046  21.371  0.00  0.00    +0.000 A 
ATOM     21  N   UNL     1      -0.366  11.916  22.125  0.00  0.00    +0.000 NA
ATOM     22  N   UNL     1      -0.558  11.289  23.334  0.00  0.00    +0.000 NA
ATOM     23  N   UNL     1      -0.076  10.052  23.318  0.00  0.00    +0.000 NA
ATOM     24  N   UNL     1       0.436   9.884  22.084  0.00  0.00    +0.000 N 
ATOM     25  N   UNL     1       0.920   8.681  21.653  0.00  0.00    +0.000 NA
ATOM     26  H   UNL     1       0.720   7.147  19.368  0.00  0.00    +0.000 HD
ENDBRANCH  15  16
ENDBRANCH   6  15
TORSDOF 4
ENDMDL
MODEL 6
REMARK VINA RESULT:      -8.6      1.416      2.211
REMARK  Name = 
REMARK  5 active torsions:
REMARK  status: ('A' for Active; 'I' for Inactive)
REMARK    1  A    between atoms: C_1  and  C_2
REMARK    2  A    between atoms: N_5  and  C_6
REMARK    3  A    between atoms: C_6  and  C_7
REMARK    4  A    between atoms: C_12  and  C_13
REMARK    5  A    between atoms: C_13  and  N_14
REMARK                            x       y       z     vdW  Elec       q    Type
REMARK                         _______ _______ _______ _____ _____    ______ ____
ROOT
ATOM      1  C   UNL     1       2.766   4.685  18.663  0.00  0.00    +0.000 A 
ATOM      2  C   UNL     1       2.477   3.288  18.544  0.00  0.00    +0.000 A 
ATOM      3  C   UNL     1       1.600   2.607  19.372  0.00  0.00    +0.000 A 
ATOM      4  C   UNL     1       0.942   3.314  20.368  0.00  0.00    +0.000 A 
ATOM      5  C   UNL     1       1.168   4.686  20.493  0.00  0.00    +0.000 A 
ATOM      6  C   UNL     1       2.065   5.412  19.657  0.00  0.00    +0.000 A 
ENDROOT
BRANCH   1   7
ATOM      7  C   UNL     1       3.647   5.180  17.532  0.00  0.00    +0.000 C 
BRANCH   7  12
ATOM      8  C   UNL     1       6.389   4.099  13.753  0.00  0.00    +0.000 C 
ATOM      9  C   UNL     1       6.416   4.875  15.074  0.00  0.00    +0.000 C 
ATOM     10  C   UNL     1       6.336   3.922  16.279  0.00  0.00    +0.000 C 
ATOM     11  C   UNL     1       6.088   4.633  17.622  0.00  0.00    +0.000 C 
ATOM     12  N   UNL     1       5.029   5.654  17.647  0.00  0.00    +0.000 NA
ATOM     13  C   UNL     1       5.266   6.591  16.510  0.00  0.00    +0.000 C 
ATOM     14  C   UNL     1       5.291   5.907  15.129  0.00  0.00    +0.000 C 
ENDBRANCH   7  12
ENDBRANCH   1   7
BRANCH   6  15
ATOM     15  C   UNL     1       2.250   6.889  19.958  0.00  0.00    +0.000 C 
BRANCH  15  16
ATOM     16  N   UNL     1       1.567   7.312  21.190  0.00  0.00    +0.000 N 
ATOM     17  C   UNL     1       0.958   8.539  21.364  0.00  0.00    +0.000 A 
ATOM     18  C   UNL     1      -0.207   8.568  22.322  0.00  0.00    +0.000 A 
ATOM     19  C   UNL     1      -0.715   9.741  22.717  0.00  0.00    +0.000 A 
ATOM     20  C   UNL     1      -0.150  10.916  22.189  0.00  0.00    +0.000 A 
ATOM     21  N   UNL     1      -0.338  12.187  22.411  0.00  0.00    +0.000 NA
ATOM     22  N   UNL     1       0.544  12.843  21.585  0.00  0.00    +0.000 NA
ATOM     23  N   UNL     1       1.267  11.987  20.874  0.00  0.00    +0.000 NA
ATOM     24  N   UNL     1       0.840  10.764  21.245  0.00  0.00    +0.000 N 
ATOM     25  N   UNL     1       1.441   9.619  20.807  0.00  0.00    +0.000 NA
ATOM     26  H   UNL     1       2.267   7.237  21.931  0.00  0.00    +0.000 HD
ENDBRANCH  15  16
ENDBRANCH   6  15
TORSDOF 4
ENDMDL
MODEL 7
REMARK VINA RESULT:      -8.6      1.017      1.263
REMARK  Name = 
REMARK  5 active torsions:
REMARK  status: ('A' for Active; 'I' for Inactive)
REMARK    1  A    between atoms: C_1  and  C_2
REMARK    2  A    between atoms: N_5  and  C_6
REMARK    3  A    between atoms: C_6  and  C_7
REMARK    4  A    between atoms: C_12  and  C_13
REMARK    5  A    between atoms: C_13  and  N_14
REMARK                            x       y       z     vdW  Elec       q    Type
REMARK                         _______ _______ _______ _____ _____    ______ ____
ROOT
ATOM      1  C   UNL     1       3.422   3.606  18.607  0.00  0.00    +0.000 A 
ATOM      2  C   UNL     1       2.912   2.304  18.300  0.00  0.00    +0.000 A 
ATOM      3  C   UNL     1       1.634   1.878  18.622  0.00  0.00    +0.000 A 
ATOM      4  C   UNL     1       0.781   2.764  19.264  0.00  0.00    +0.000 A 
ATOM      5  C   UNL     1       1.228   4.056  19.549  0.00  0.00    +0.000 A 
ATOM      6  C   UNL     1       2.536   4.520  19.230  0.00  0.00    +0.000 A 
ENDROOT
BRANCH   1   7
ATOM      7  C   UNL     1       4.795   3.834  18.006  0.00  0.00    +0.000 C 
BRANCH   7  12
ATOM      8  C   UNL     1       7.940   7.450  18.108  0.00  0.00    +0.000 C 
ATOM      9  C   UNL     1       7.147   6.574  17.132  0.00  0.00    +0.000 C 
ATOM     10  C   UNL     1       5.637   6.849  17.239  0.00  0.00    +0.000 C 
ATOM     11  C   UNL     1       4.762   5.827  16.491  0.00  0.00    +0.000 C 
ATOM     12  N   UNL     1       5.086   4.406  16.688  0.00  0.00    +0.000 NA
ATOM     13  C   UNL     1       6.547   4.228  16.447  0.00  0.00    +0.000 C 
ATOM     14  C   UNL     1       7.441   5.092  17.359  0.00  0.00    +0.000 C 
ENDBRANCH   7  12
ENDBRANCH   1   7
BRANCH   6  15
ATOM     15  C   UNL     1       2.894   5.932  19.660  0.00  0.00    +0.000 C 
BRANCH  15  16
ATOM     16  N   UNL     1       2.155   6.962  18.912  0.00  0.00    +0.000 N 
ATOM     17  C   UNL     1       1.847   8.214  19.405  0.00  0.00    +0.000 A 
ATOM     18  C   UNL     1       1.724   9.315  18.380  0.00  0.00    +0.000 A 
ATOM     19  C   UNL     1       1.219  10.502  18.735  0.00  0.00    +0.000 A 
ATOM     20  C   UNL     1       0.845  10.684  20.078  0.00  0.00    +0.000 A 
ATOM     21  N   UNL     1       0.262  11.653  20.730  0.00  0.00    +0.000 NA
ATOM     22  N   UNL     1       0.156  11.215  22.029  0.00  0.00    +0.000 NA
ATOM     23  N   UNL     1       0.658   9.994  22.170  0.00  0.00    +0.000 NA
ATOM     24  N   UNL     1       1.097   9.645  20.945  0.00  0.00    +0.000 N 
ATOM     25  N   UNL     1       1.576   8.395  20.671  0.00  0.00    +0.000 NA
ATOM     26  H   UNL     1       1.264   6.531  18.661  0.00  0.00    +0.000 HD
ENDBRANCH  15  16
ENDBRANCH   6  15
TORSDOF 4
ENDMDL
MODEL 8
REMARK VINA RESULT:      -8.5      1.016      1.745
REMARK  Name = 
REMARK  5 active torsions:
REMARK  status: ('A' for Active; 'I' for Inactive)
REMARK    1  A    between atoms: C_1  and  C_2
REMARK    2  A    between atoms: N_5  and  C_6
REMARK    3  A    between atoms: C_6  and  C_7
REMARK    4  A    between atoms: C_12  and  C_13
REMARK    5  A    between atoms: C_13  and  N_14
REMARK                            x       y       z     vdW  Elec       q    Type
REMARK                         _______ _______ _______ _____ _____    ______ ____
ROOT
ATOM      1  C   UNL     1       3.687   3.816  19.076  0.00  0.00    +0.000 A 
ATOM      2  C   UNL     1       3.368   2.565  18.457  0.00  0.00    +0.000 A 
ATOM      3  C   UNL     1       2.085   2.046  18.379  0.00  0.00    +0.000 A 
ATOM      4  C   UNL     1       1.038   2.782  18.912  0.00  0.00    +0.000 A 
ATOM      5  C   UNL     1       1.302   4.024  19.493  0.00  0.00    +0.000 A 
ATOM      6  C   UNL     1       2.609   4.582  19.587  0.00  0.00    +0.000 A 
ENDROOT
BRANCH   1   7
ATOM      7  C   UNL     1       5.143   4.190  18.881  0.00  0.00    +0.000 C 
BRANCH   7  12
ATOM      8  C   UNL     1       6.327   3.869  14.248  0.00  0.00    +0.000 C 
ATOM      9  C   UNL     1       6.207   4.884  15.390  0.00  0.00    +0.000 C 
ATOM     10  C   UNL     1       7.255   4.616  16.484  0.00  0.00    +0.000 C 
ATOM     11  C   UNL     1       7.024   5.418  17.778  0.00  0.00    +0.000 C 
ATOM     12  N   UNL     1       5.654   5.440  18.311  0.00  0.00    +0.000 NA
ATOM     13  C   UNL     1       4.733   5.823  17.201  0.00  0.00    +0.000 C 
ATOM     14  C   UNL     1       4.799   4.882  15.981  0.00  0.00    +0.000 C 
ENDBRANCH   7  12
ENDBRANCH   1   7
BRANCH   6  15
ATOM     15  C   UNL     1       2.743   5.915  20.302  0.00  0.00    +0.000 C 
BRANCH  15  16
ATOM     16  N   UNL     1       1.928   6.976  19.690  0.00  0.00    +0.000 N 
ATOM     17  C   UNL     1       1.569   8.149  20.325  0.00  0.00    +0.000 A 
ATOM     18  C   UNL     1       1.356   9.345  19.430  0.00  0.00    +0.000 A 
ATOM     19  C   UNL     1       0.800  10.456  19.926  0.00  0.00    +0.000 A 
ATOM     20  C   UNL     1       0.460  10.472  21.290  0.00  0.00    +0.000 A 
ATOM     21  N   UNL     1      -0.152  11.331  22.058  0.00  0.00    +0.000 NA
ATOM     22  N   UNL     1      -0.194  10.750  23.304  0.00  0.00    +0.000 NA
ATOM     23  N   UNL     1       0.377   9.551  23.298  0.00  0.00    +0.000 NA
ATOM     24  N   UNL     1       0.794   9.361  22.031  0.00  0.00    +0.000 N 
ATOM     25  N   UNL     1       1.329   8.177  21.610  0.00  0.00    +0.000 NA
ATOM     26  H   UNL     1       1.053   6.525  19.417  0.00  0.00    +0.000 HD
ENDBRANCH  15  16
ENDBRANCH   6  15
TORSDOF 4
ENDMDL
MODEL 9
REMARK VINA RESULT:      -8.5      1.199      1.602
REMARK  Name = 
REMARK  5 active torsions:
REMARK  status: ('A' for Active; 'I' for Inactive)
REMARK    1  A    between atoms: C_1  and  C_2
REMARK    2  A    between atoms: N_5  and  C_6
REMARK    3  A    between atoms: C_6  and  C_7
REMARK    4  A    between atoms: C_12  and  C_13
REMARK    5  A    between atoms: C_13  and  N_14
REMARK                            x       y       z     vdW  Elec       q    Type
REMARK                         _______ _______ _______ _____ _____    ______ ____
ROOT
ATOM      1  C   UNL     1       2.867   4.373  18.644  0.00  0.00    +0.000 A 
ATOM      2  C   UNL     1       2.489   3.001  18.800  0.00  0.00    +0.000 A 
ATOM      3  C   UNL     1       1.567   2.555  19.734  0.00  0.00    +0.000 A 
ATOM      4  C   UNL     1       0.955   3.487  20.559  0.00  0.00    +0.000 A 
ATOM      5  C   UNL     1       1.269   4.839  20.413  0.00  0.00    +0.000 A 
ATOM      6  C   UNL     1       2.212   5.326  19.463  0.00  0.00    +0.000 A 
ENDROOT
BRANCH   1   7
ATOM      7  C   UNL     1       3.781   4.577  17.451  0.00  0.00    +0.000 C 
BRANCH   7  12
ATOM      8  C   UNL     1       7.525   7.569  17.474  0.00  0.00    +0.000 C 
ATOM      9  C   UNL     1       7.178   6.079  17.386  0.00  0.00    +0.000 C 
ATOM     10  C   UNL     1       6.445   5.757  16.073  0.00  0.00    +0.000 C 
ATOM     11  C   UNL     1       5.830   4.346  16.032  0.00  0.00    +0.000 C 
ATOM     12  N   UNL     1       5.070   3.918  17.216  0.00  0.00    +0.000 NA
ATOM     13  C   UNL     1       5.913   4.166  18.421  0.00  0.00    +0.000 C 
ATOM     14  C   UNL     1       6.348   5.635  18.589  0.00  0.00    +0.000 C 
ENDBRANCH   7  12
ENDBRANCH   1   7
BRANCH   6  15
ATOM     15  C   UNL     1       2.493   6.818  19.468  0.00  0.00    +0.000 C 
BRANCH  15  16
ATOM     16  N   UNL     1       2.059   7.478  20.709  0.00  0.00    +0.000 N 
ATOM     17  C   UNL     1       1.156   8.521  20.764  0.00  0.00    +0.000 A 
ATOM     18  C   UNL     1       0.338   8.620  22.029  0.00  0.00    +0.000 A 
ATOM     19  C   UNL     1      -0.398   9.713  22.261  0.00  0.00    +0.000 A 
ATOM     20  C   UNL     1      -0.400  10.726  21.287  0.00  0.00    +0.000 A 
ATOM     21  N   UNL     1      -0.923  11.920  21.227  0.00  0.00    +0.000 NA
ATOM     22  N   UNL     1      -0.548  12.429  20.006  0.00  0.00    +0.000 NA
ATOM     23  N   UNL     1       0.199  11.563  19.331  0.00  0.00    +0.000 NA
ATOM     24  N   UNL     1       0.302  10.482  20.128  0.00  0.00    +0.000 N 
ATOM     25  N   UNL     1       1.102   9.420  19.817  0.00  0.00    +0.000 NA
ATOM     26  H   UNL     1       2.913   7.822  21.150  0.00  0.00    +0.000 HD
ENDBRANCH  15  16
ENDBRANCH   6  15
TORSDOF 4
ENDMDL
