MODEL 1
REMARK VINA RESULT:      -8.5      0.000      0.000
REMARK  Name = 
REMARK  3 active torsions:
REMARK  status: ('A' for Active; 'I' for Inactive)
REMARK    1  A    between atoms: C_1  and  N_2
REMARK    2  A    between atoms: C_4  and  C_5
REMARK    3  A    between atoms: C_6  and  C_7
REMARK                            x       y       z     vdW  Elec       q    Type
REMARK                         _______ _______ _______ _____ _____    ______ ____
ROOT
ATOM      1  C   UNL     1       3.557   3.866  19.033  0.00  0.00    +0.000 C 
ATOM      2  C   UNL     1       2.456   4.497  19.464  0.00  0.00    +0.000 C 
ATOM      3  C   UNL     1       1.479   3.463  19.866  0.00  0.00    +0.000 C 
ATOM      4  O   UNL     1       0.377   3.666  20.338  0.00  0.00    +0.000 OA
ATOM      5  N   UNL     1       2.043   2.263  19.618  0.00  0.00    +0.000 N 
ATOM      6  C   UNL     1       3.288   2.412  19.115  0.00  0.00    +0.000 C 
ATOM      7  O   UNL     1       4.036   1.511  18.785  0.00  0.00    +0.000 OA
ATOM      8  H   UNL     1       1.603   1.376  19.791  0.00  0.00    +0.000 HD
ENDROOT
BRANCH   1  12
ATOM      9  C   UNL     1       7.927   6.128  19.051  0.00  0.00    +0.000 C 
ATOM     10  N   UNL     1       6.743   5.443  18.582  0.00  0.00    +0.000 N 
ATOM     11  C   UNL     1       5.712   5.025  19.383  0.00  0.00    +0.000 A 
ATOM     12  C   UNL     1       4.779   4.414  18.575  0.00  0.00    +0.000 A 
ATOM     13  C   UNL     1       5.261   4.452  17.234  0.00  0.00    +0.000 A 
ATOM     14  C   UNL     1       4.771   3.995  15.992  0.00  0.00    +0.000 A 
ATOM     15  C   UNL     1       5.510   4.231  14.827  0.00  0.00    +0.000 A 
ATOM     16  C   UNL     1       6.723   4.911  14.882  0.00  0.00    +0.000 A 
ATOM     17  C   UNL     1       7.235   5.366  16.099  0.00  0.00    +0.000 A 
ATOM     18  C   UNL     1       6.490   5.121  17.263  0.00  0.00    +0.000 A 
ENDBRANCH   1  12
BRANCH   2  19
ATOM     19  C   UNL     1       2.223   5.934  19.565  0.00  0.00    +0.000 A 
ATOM     20  C   UNL     1       2.454   6.766  18.462  0.00  0.00    +0.000 A 
ATOM     21  C   UNL     1       2.167   8.130  18.548  0.00  0.00    +0.000 A 
ATOM     22 CL   UNL     1       2.408   9.137  17.174  0.00  0.00    +0.000 Cl
ATOM     23  C   UNL     1       1.671   8.680  19.727  0.00  0.00    +0.000 A 
ATOM     24  C   UNL     1       1.469   7.853  20.829  0.00  0.00    +0.000 A 
ATOM     25 CL   UNL     1       0.848   8.518  22.290  0.00  0.00    +0.000 Cl
ATOM     26  C   UNL     1       1.746   6.488  20.758  0.00  0.00    +0.000 A 
ENDBRANCH   2  19
TORSDOF 2
ENDMDL
MODEL 2
REMARK VINA RESULT:      -8.5      0.215      1.815
REMARK  Name = 
REMARK  3 active torsions:
REMARK  status: ('A' for Active; 'I' for Inactive)
REMARK    1  A    between atoms: C_1  and  N_2
REMARK    2  A    between atoms: C_4  and  C_5
REMARK    3  A    between atoms: C_6  and  C_7
REMARK                            x       y       z     vdW  Elec       q    Type
REMARK                         _______ _______ _______ _____ _____    ______ ____
ROOT
ATOM      1  C   UNL     1       3.525   3.689  18.899  0.00  0.00    +0.000 C 
ATOM      2  C   UNL     1       2.407   4.307  19.302  0.00  0.00    +0.000 C 
ATOM      3  C   UNL     1       1.422   3.262  19.655  0.00  0.00    +0.000 C 
ATOM      4  O   UNL     1       0.304   3.452  20.092  0.00  0.00    +0.000 OA
ATOM      5  N   UNL     1       2.001   2.070  19.407  0.00  0.00    +0.000 N 
ATOM      6  C   UNL     1       3.262   2.232  18.949  0.00  0.00    +0.000 C 
ATOM      7  O   UNL     1       4.025   1.340  18.631  0.00  0.00    +0.000 OA
ATOM      8  H   UNL     1       1.560   1.177  19.551  0.00  0.00    +0.000 HD
ENDROOT
BRANCH   1  12
ATOM      9  C   UNL     1       7.894   5.942  19.104  0.00  0.00    +0.000 C 
ATOM     10  N   UNL     1       6.722   5.276  18.583  0.00  0.00    +0.000 N 
ATOM     11  C   UNL     1       5.671   4.832  19.342  0.00  0.00    +0.000 A 
ATOM     12  C   UNL     1       4.758   4.250  18.491  0.00  0.00    +0.000 A 
ATOM     13  C   UNL     1       5.275   4.333  17.165  0.00  0.00    +0.000 A 
ATOM     14  C   UNL     1       4.817   3.919  15.896  0.00  0.00    +0.000 A 
ATOM     15  C   UNL     1       5.585   4.194  14.759  0.00  0.00    +0.000 A 
ATOM     16  C   UNL     1       6.797   4.869  14.867  0.00  0.00    +0.000 A 
ATOM     17  C   UNL     1       7.278   5.282  16.112  0.00  0.00    +0.000 A 
ATOM     18  C   UNL     1       6.503   4.999  17.248  0.00  0.00    +0.000 A 
ENDBRANCH   1  12
BRANCH   2  19
ATOM     19  C   UNL     1       2.162   5.741  19.417  0.00  0.00    +0.000 A 
ATOM     20  C   UNL     1       1.688   6.284  20.618  0.00  0.00    +0.000 A 
ATOM     21  C   UNL     1       1.517   7.664  20.737  0.00  0.00    +0.000 A 
ATOM     22 CL   UNL     1       0.980   8.328  22.232  0.00  0.00    +0.000 Cl
ATOM     23  C   UNL     1       1.795   8.512  19.668  0.00  0.00    +0.000 A 
ATOM     24  C   UNL     1       2.240   7.964  18.467  0.00  0.00    +0.000 A 
ATOM     25 CL   UNL     1       2.596   9.001  17.140  0.00  0.00    +0.000 Cl
ATOM     26  C   UNL     1       2.420   6.588  18.333  0.00  0.00    +0.000 A 
ENDBRANCH   2  19
TORSDOF 2
ENDMDL
MODEL 3
REMARK VINA RESULT:      -7.9      0.827      2.096
REMARK  Name = 
REMARK  3 active torsions:
REMARK  status: ('A' for Active; 'I' for Inactive)
REMARK    1  A    between atoms: C_1  and  N_2
REMARK    2  A    between atoms: C_4  and  C_5
REMARK    3  A    between atoms: C_6  and  C_7
REMARK                            x       y       z     vdW  Elec       q    Type
REMARK                         _______ _______ _______ _____ _____    ______ ____
ROOT
ATOM      1  C   UNL     1       3.265   3.571  18.559  0.00  0.00    +0.000 C 
ATOM      2  C   UNL     1       2.358   4.227  19.294  0.00  0.00    +0.000 C 
ATOM      3  C   UNL     1       1.536   3.217  19.994  0.00  0.00    +0.000 C 
ATOM      4  O   UNL     1       0.634   3.446  20.777  0.00  0.00    +0.000 OA
ATOM      5  N   UNL     1       1.982   2.004  19.609  0.00  0.00    +0.000 N 
ATOM      6  C   UNL     1       3.016   2.123  18.747  0.00  0.00    +0.000 C 
ATOM      7  O   UNL     1       3.615   1.204  18.222  0.00  0.00    +0.000 OA
ATOM      8  H   UNL     1       1.604   1.127  19.924  0.00  0.00    +0.000 HD
ENDROOT
BRANCH   1  12
ATOM      9  C   UNL     1       5.884   4.703  14.550  0.00  0.00    +0.000 C 
ATOM     10  N   UNL     1       5.482   4.590  15.934  0.00  0.00    +0.000 N 
ATOM     11  C   UNL     1       4.326   3.994  16.367  0.00  0.00    +0.000 A 
ATOM     12  C   UNL     1       4.296   4.090  17.740  0.00  0.00    +0.000 A 
ATOM     13  C   UNL     1       5.472   4.778  18.161  0.00  0.00    +0.000 A 
ATOM     14  C   UNL     1       5.992   5.177  19.411  0.00  0.00    +0.000 A 
ATOM     15  C   UNL     1       7.229   5.830  19.469  0.00  0.00    +0.000 A 
ATOM     16  C   UNL     1       7.949   6.092  18.308  0.00  0.00    +0.000 A 
ATOM     17  C   UNL     1       7.452   5.716  17.057  0.00  0.00    +0.000 A 
ATOM     18  C   UNL     1       6.210   5.065  17.007  0.00  0.00    +0.000 A 
ENDBRANCH   1  12
BRANCH   2  19
ATOM     19  C   UNL     1       2.185   5.669  19.434  0.00  0.00    +0.000 A 
ATOM     20  C   UNL     1       2.458   6.522  18.356  0.00  0.00    +0.000 A 
ATOM     21  C   UNL     1       2.229   7.893  18.479  0.00  0.00    +0.000 A 
ATOM     22 CL   UNL     1       2.521   8.928  17.135  0.00  0.00    +0.000 Cl
ATOM     23  C   UNL     1       1.749   8.431  19.670  0.00  0.00    +0.000 A 
ATOM     24  C   UNL     1       1.505   7.583  20.748  0.00  0.00    +0.000 A 
ATOM     25 CL   UNL     1       0.903   8.233  22.224  0.00  0.00    +0.000 Cl
ATOM     26  C   UNL     1       1.724   6.210  20.639  0.00  0.00    +0.000 A 
ENDBRANCH   2  19
TORSDOF 2
ENDMDL
MODEL 4
REMARK VINA RESULT:      -7.8      0.838      2.766
REMARK  Name = 
REMARK  3 active torsions:
REMARK  status: ('A' for Active; 'I' for Inactive)
REMARK    1  A    between atoms: C_1  and  N_2
REMARK    2  A    between atoms: C_4  and  C_5
REMARK    3  A    between atoms: C_6  and  C_7
REMARK                            x       y       z     vdW  Elec       q    Type
REMARK                         _______ _______ _______ _____ _____    ______ ____
ROOT
ATOM      1  C   UNL     1       3.269   3.531  18.596  0.00  0.00    +0.000 C 
ATOM      2  C   UNL     1       2.343   4.179  19.316  0.00  0.00    +0.000 C 
ATOM      3  C   UNL     1       1.552   3.165  20.043  0.00  0.00    +0.000 C 
ATOM      4  O   UNL     1       0.644   3.388  20.821  0.00  0.00    +0.000 OA
ATOM      5  N   UNL     1       2.032   1.955  19.687  0.00  0.00    +0.000 N 
ATOM      6  C   UNL     1       3.061   2.081  18.821  0.00  0.00    +0.000 C 
ATOM      7  O   UNL     1       3.685   1.166  18.319  0.00  0.00    +0.000 OA
ATOM      8  H   UNL     1       1.679   1.076  20.026  0.00  0.00    +0.000 HD
ENDROOT
BRANCH   1  12
ATOM      9  C   UNL     1       5.826   4.673  14.551  0.00  0.00    +0.000 C 
ATOM     10  N   UNL     1       5.441   4.562  15.940  0.00  0.00    +0.000 N 
ATOM     11  C   UNL     1       4.298   3.955  16.389  0.00  0.00    +0.000 A 
ATOM     12  C   UNL     1       4.283   4.057  17.762  0.00  0.00    +0.000 A 
ATOM     13  C   UNL     1       5.456   4.761  18.166  0.00  0.00    +0.000 A 
ATOM     14  C   UNL     1       5.986   5.172  19.407  0.00  0.00    +0.000 A 
ATOM     15  C   UNL     1       7.216   5.840  19.448  0.00  0.00    +0.000 A 
ATOM     16  C   UNL     1       7.918   6.105  18.276  0.00  0.00    +0.000 A 
ATOM     17  C   UNL     1       7.412   5.717  17.033  0.00  0.00    +0.000 A 
ATOM     18  C   UNL     1       6.177   5.051  17.001  0.00  0.00    +0.000 A 
ENDBRANCH   1  12
BRANCH   2  19
ATOM     19  C   UNL     1       2.130   5.619  19.419  0.00  0.00    +0.000 A 
ATOM     20  C   UNL     1       1.665   6.181  20.614  0.00  0.00    +0.000 A 
ATOM     21  C   UNL     1       1.524   7.566  20.723  0.00  0.00    +0.000 A 
ATOM     22 CL   UNL     1       0.999   8.253  22.211  0.00  0.00    +0.000 Cl
ATOM     23  C   UNL     1       1.823   8.399  19.648  0.00  0.00    +0.000 A 
ATOM     24  C   UNL     1       2.259   7.833  18.453  0.00  0.00    +0.000 A 
ATOM     25 CL   UNL     1       2.640   8.851  17.118  0.00  0.00    +0.000 Cl
ATOM     26  C   UNL     1       2.409   6.451  18.329  0.00  0.00    +0.000 A 
ENDBRANCH   2  19
TORSDOF 2
ENDMDL
MODEL 5
REMARK VINA RESULT:      -7.6      3.172      5.989
REMARK  Name = 
REMARK  3 active torsions:
REMARK  status: ('A' for Active; 'I' for Inactive)
REMARK    1  A    between atoms: C_1  and  N_2
REMARK    2  A    between atoms: C_4  and  C_5
REMARK    3  A    between atoms: C_6  and  C_7
REMARK                            x       y       z     vdW  Elec       q    Type
REMARK                         _______ _______ _______ _____ _____    ______ ____
ROOT
ATOM      1  C   UNL     1       5.552   4.578  15.640  0.00  0.00    +0.000 C 
ATOM      2  C   UNL     1       6.706   5.257  15.691  0.00  0.00    +0.000 C 
ATOM      3  C   UNL     1       7.316   5.201  14.346  0.00  0.00    +0.000 C 
ATOM      4  O   UNL     1       8.355   5.735  14.009  0.00  0.00    +0.000 OA
ATOM      5  N   UNL     1       6.501   4.457  13.570  0.00  0.00    +0.000 N 
ATOM      6  C   UNL     1       5.421   4.041  14.266  0.00  0.00    +0.000 C 
ATOM      7  O   UNL     1       4.520   3.346  13.836  0.00  0.00    +0.000 OA
ATOM      8  H   UNL     1       6.668   4.245  12.601  0.00  0.00    +0.000 HD
ENDROOT
BRANCH   1  12
ATOM      9  C   UNL     1       2.552   2.292  18.801  0.00  0.00    +0.000 C 
ATOM     10  N   UNL     1       3.230   3.342  18.075  0.00  0.00    +0.000 N 
ATOM     11  C   UNL     1       4.180   3.138  17.108  0.00  0.00    +0.000 A 
ATOM     12  C   UNL     1       4.591   4.373  16.658  0.00  0.00    +0.000 A 
ATOM     13  C   UNL     1       3.873   5.368  17.384  0.00  0.00    +0.000 A 
ATOM     14  C   UNL     1       3.860   6.780  17.380  0.00  0.00    +0.000 A 
ATOM     15  C   UNL     1       2.983   7.466  18.228  0.00  0.00    +0.000 A 
ATOM     16  C   UNL     1       2.126   6.771  19.076  0.00  0.00    +0.000 A 
ATOM     17  C   UNL     1       2.125   5.374  19.106  0.00  0.00    +0.000 A 
ATOM     18  C   UNL     1       3.010   4.694  18.256  0.00  0.00    +0.000 A 
ENDBRANCH   1  12
BRANCH   2  19
ATOM     19  C   UNL     1       7.287   5.961  16.830  0.00  0.00    +0.000 A 
ATOM     20  C   UNL     1       7.498   7.344  16.773  0.00  0.00    +0.000 A 
ATOM     21  C   UNL     1       7.995   8.018  17.890  0.00  0.00    +0.000 A 
ATOM     22 CL   UNL     1       8.206   9.725  17.828  0.00  0.00    +0.000 Cl
ATOM     23  C   UNL     1       8.303   7.328  19.059  0.00  0.00    +0.000 A 
ATOM     24  C   UNL     1       8.117   5.949  19.102  0.00  0.00    +0.000 A 
ATOM     25 CL   UNL     1       8.485   5.084  20.544  0.00  0.00    +0.000 Cl
ATOM     26  C   UNL     1       7.617   5.261  17.996  0.00  0.00    +0.000 A 
ENDBRANCH   2  19
TORSDOF 2
ENDMDL
MODEL 6
REMARK VINA RESULT:      -7.5      2.525      5.238
REMARK  Name = 
REMARK  3 active torsions:
REMARK  status: ('A' for Active; 'I' for Inactive)
REMARK    1  A    between atoms: C_1  and  N_2
REMARK    2  A    between atoms: C_4  and  C_5
REMARK    3  A    between atoms: C_6  and  C_7
REMARK                            x       y       z     vdW  Elec       q    Type
REMARK                         _______ _______ _______ _____ _____    ______ ____
ROOT
ATOM      1  C   UNL     1       2.401   3.932  19.309  0.00  0.00    +0.000 C 
ATOM      2  C   UNL     1       3.449   3.367  18.694  0.00  0.00    +0.000 C 
ATOM      3  C   UNL     1       3.171   1.920  18.578  0.00  0.00    +0.000 C 
ATOM      4  O   UNL     1       3.887   1.095  18.044  0.00  0.00    +0.000 OA
ATOM      5  N   UNL     1       1.978   1.695  19.165  0.00  0.00    +0.000 N 
ATOM      6  C   UNL     1       1.446   2.845  19.633  0.00  0.00    +0.000 C 
ATOM      7  O   UNL     1       0.386   2.954  20.219  0.00  0.00    +0.000 OA
ATOM      8  H   UNL     1       1.536   0.794  19.239  0.00  0.00    +0.000 HD
ENDROOT
BRANCH   1  12
ATOM      9  C   UNL     1       1.058   7.967  21.784  0.00  0.00    +0.000 C 
ATOM     10  N   UNL     1       1.559   7.111  20.732  0.00  0.00    +0.000 N 
ATOM     11  C   UNL     1       1.648   5.745  20.810  0.00  0.00    +0.000 A 
ATOM     12  C   UNL     1       2.174   5.293  19.621  0.00  0.00    +0.000 A 
ATOM     13  C   UNL     1       2.425   6.424  18.790  0.00  0.00    +0.000 A 
ATOM     14  C   UNL     1       2.953   6.603  17.493  0.00  0.00    +0.000 A 
ATOM     15  C   UNL     1       3.036   7.891  16.951  0.00  0.00    +0.000 A 
ATOM     16  C   UNL     1       2.606   8.996  17.679  0.00  0.00    +0.000 A 
ATOM     17  C   UNL     1       2.088   8.848  18.968  0.00  0.00    +0.000 A 
ATOM     18  C   UNL     1       2.013   7.554  19.506  0.00  0.00    +0.000 A 
ENDBRANCH   1  12
BRANCH   2  19
ATOM     19  C   UNL     1       4.653   4.018  18.189  0.00  0.00    +0.000 A 
ATOM     20  C   UNL     1       5.582   4.574  19.078  0.00  0.00    +0.000 A 
ATOM     21  C   UNL     1       6.761   5.138  18.589  0.00  0.00    +0.000 A 
ATOM     22 CL   UNL     1       7.920   5.775  19.691  0.00  0.00    +0.000 Cl
ATOM     23  C   UNL     1       7.020   5.172  17.221  0.00  0.00    +0.000 A 
ATOM     24  C   UNL     1       6.081   4.643  16.340  0.00  0.00    +0.000 A 
ATOM     25 CL   UNL     1       6.392   4.672  14.647  0.00  0.00    +0.000 Cl
ATOM     26  C   UNL     1       4.900   4.072  16.813  0.00  0.00    +0.000 A 
ENDBRANCH   2  19
TORSDOF 2
ENDMDL
MODEL 7
REMARK VINA RESULT:      -7.5      3.232      6.171
REMARK  Name = 
REMARK  3 active torsions:
REMARK  status: ('A' for Active; 'I' for Inactive)
REMARK    1  A    between atoms: C_1  and  N_2
REMARK    2  A    between atoms: C_4  and  C_5
REMARK    3  A    between atoms: C_6  and  C_7
REMARK                            x       y       z     vdW  Elec       q    Type
REMARK                         _______ _______ _______ _____ _____    ______ ____
ROOT
ATOM      1  C   UNL     1       5.577   4.580  15.584  0.00  0.00    +0.000 C 
ATOM      2  C   UNL     1       6.720   5.271  15.684  0.00  0.00    +0.000 C 
ATOM      3  C   UNL     1       7.387   5.222  14.365  0.00  0.00    +0.000 C 
ATOM      4  O   UNL     1       8.433   5.768  14.072  0.00  0.00    +0.000 OA
ATOM      5  N   UNL     1       6.614   4.469  13.556  0.00  0.00    +0.000 N 
ATOM      6  C   UNL     1       5.509   4.041  14.206  0.00  0.00    +0.000 C 
ATOM      7  O   UNL     1       4.635   3.337  13.738  0.00  0.00    +0.000 OA
ATOM      8  H   UNL     1       6.823   4.260  12.594  0.00  0.00    +0.000 HD
ENDROOT
BRANCH   1  12
ATOM      9  C   UNL     1       2.417   2.262  18.559  0.00  0.00    +0.000 C 
ATOM     10  N   UNL     1       3.144   3.319  17.893  0.00  0.00    +0.000 N 
ATOM     11  C   UNL     1       4.122   3.124  16.953  0.00  0.00    +0.000 A 
ATOM     12  C   UNL     1       4.576   4.363  16.561  0.00  0.00    +0.000 A 
ATOM     13  C   UNL     1       3.857   5.351  17.296  0.00  0.00    +0.000 A 
ATOM     14  C   UNL     1       3.877   6.761  17.341  0.00  0.00    +0.000 A 
ATOM     15  C   UNL     1       2.987   7.440  18.182  0.00  0.00    +0.000 A 
ATOM     16  C   UNL     1       2.085   6.737  18.976  0.00  0.00    +0.000 A 
ATOM     17  C   UNL     1       2.051   5.340  18.957  0.00  0.00    +0.000 A 
ATOM     18  C   UNL     1       2.949   4.668  18.114  0.00  0.00    +0.000 A 
ENDBRANCH   1  12
BRANCH   2  19
ATOM     19  C   UNL     1       7.245   5.981  16.845  0.00  0.00    +0.000 A 
ATOM     20  C   UNL     1       7.581   5.280  18.010  0.00  0.00    +0.000 A 
ATOM     21  C   UNL     1       8.141   5.959  19.094  0.00  0.00    +0.000 A 
ATOM     22 CL   UNL     1       8.596   5.083  20.504  0.00  0.00    +0.000 Cl
ATOM     23  C   UNL     1       8.354   7.334  19.039  0.00  0.00    +0.000 A 
ATOM     24  C   UNL     1       7.993   8.031  17.889  0.00  0.00    +0.000 A 
ATOM     25 CL   UNL     1       8.258   9.730  17.804  0.00  0.00    +0.000 Cl
ATOM     26  C   UNL     1       7.436   7.366  16.796  0.00  0.00    +0.000 A 
ENDBRANCH   2  19
TORSDOF 2
ENDMDL
MODEL 8
REMARK VINA RESULT:      -7.4      2.482      4.944
REMARK  Name = 
REMARK  3 active torsions:
REMARK  status: ('A' for Active; 'I' for Inactive)
REMARK    1  A    between atoms: C_1  and  N_2
REMARK    2  A    between atoms: C_4  and  C_5
REMARK    3  A    between atoms: C_6  and  C_7
REMARK                            x       y       z     vdW  Elec       q    Type
REMARK                         _______ _______ _______ _____ _____    ______ ____
ROOT
ATOM      1  C   UNL     1       2.370   3.936  19.346  0.00  0.00    +0.000 C 
ATOM      2  C   UNL     1       3.412   3.359  18.732  0.00  0.00    +0.000 C 
ATOM      3  C   UNL     1       3.122   1.913  18.627  0.00  0.00    +0.000 C 
ATOM      4  O   UNL     1       3.831   1.079  18.097  0.00  0.00    +0.000 OA
ATOM      5  N   UNL     1       1.929   1.702  19.219  0.00  0.00    +0.000 N 
ATOM      6  C   UNL     1       1.408   2.860  19.680  0.00  0.00    +0.000 C 
ATOM      7  O   UNL     1       0.350   2.981  20.268  0.00  0.00    +0.000 OA
ATOM      8  H   UNL     1       1.480   0.805  19.300  0.00  0.00    +0.000 HD
ENDROOT
BRANCH   1  12
ATOM      9  C   UNL     1       1.074   8.000  21.800  0.00  0.00    +0.000 C 
ATOM     10  N   UNL     1       1.560   7.132  20.750  0.00  0.00    +0.000 N 
ATOM     11  C   UNL     1       1.641   5.766  20.839  0.00  0.00    +0.000 A 
ATOM     12  C   UNL     1       2.155   5.301  19.649  0.00  0.00    +0.000 A 
ATOM     13  C   UNL     1       2.407   6.424  18.807  0.00  0.00    +0.000 A 
ATOM     14  C   UNL     1       2.926   6.589  17.505  0.00  0.00    +0.000 A 
ATOM     15  C   UNL     1       3.013   7.872  16.952  0.00  0.00    +0.000 A 
ATOM     16  C   UNL     1       2.596   8.986  17.674  0.00  0.00    +0.000 A 
ATOM     17  C   UNL     1       2.088   8.852  18.968  0.00  0.00    +0.000 A 
ATOM     18  C   UNL     1       2.008   7.563  19.517  0.00  0.00    +0.000 A 
ENDBRANCH   1  12
BRANCH   2  19
ATOM     19  C   UNL     1       4.620   3.996  18.220  0.00  0.00    +0.000 A 
ATOM     20  C   UNL     1       4.823   4.121  16.840  0.00  0.00    +0.000 A 
ATOM     21  C   UNL     1       5.951   4.788  16.360  0.00  0.00    +0.000 A 
ATOM     22 CL   UNL     1       6.169   4.980  14.664  0.00  0.00    +0.000 Cl
ATOM     23  C   UNL     1       6.892   5.318  17.239  0.00  0.00    +0.000 A 
ATOM     24  C   UNL     1       6.700   5.168  18.610  0.00  0.00    +0.000 A 
ATOM     25 CL   UNL     1       7.851   5.825  19.708  0.00  0.00    +0.000 Cl
ATOM     26  C   UNL     1       5.575   4.508  19.105  0.00  0.00    +0.000 A 
ENDBRANCH   2  19
TORSDOF 2
ENDMDL
MODEL 9
REMARK VINA RESULT:      -7.0      9.486     12.015
REMARK  Name = 
REMARK  3 active torsions:
REMARK  status: ('A' for Active; 'I' for Inactive)
REMARK    1  A    between atoms: C_1  and  N_2
REMARK    2  A    between atoms: C_4  and  C_5
REMARK    3  A    between atoms: C_6  and  C_7
REMARK                            x       y       z     vdW  Elec       q    Type
REMARK                         _______ _______ _______ _____ _____    ______ ____
ROOT
ATOM      1  C   UNL     1       9.946  15.369  18.030  0.00  0.00    +0.000 C 
ATOM      2  C   UNL     1      10.431  14.128  18.172  0.00  0.00    +0.000 C 
ATOM      3  C   UNL     1      11.617  14.010  17.297  0.00  0.00    +0.000 C 
ATOM      4  O   UNL     1      12.333  13.033  17.191  0.00  0.00    +0.000 OA
ATOM      5  N   UNL     1      11.754  15.187  16.652  0.00  0.00    +0.000 N 
ATOM      6  C   UNL     1      10.794  16.059  17.030  0.00  0.00    +0.000 C 
ATOM      7  O   UNL     1      10.655  17.192  16.612  0.00  0.00    +0.000 OA
ATOM      8  H   UNL     1      12.478  15.394  15.985  0.00  0.00    +0.000 HD
ENDROOT
BRANCH   1  12
ATOM      9  C   UNL     1       7.353  18.330  20.982  0.00  0.00    +0.000 C 
ATOM     10  N   UNL     1       7.677  17.304  20.018  0.00  0.00    +0.000 N 
ATOM     11  C   UNL     1       8.946  16.997  19.598  0.00  0.00    +0.000 A 
ATOM     12  C   UNL     1       8.845  15.977  18.679  0.00  0.00    +0.000 A 
ATOM     13  C   UNL     1       7.465  15.656  18.523  0.00  0.00    +0.000 A 
ATOM     14  C   UNL     1       6.746  14.728  17.739  0.00  0.00    +0.000 A 
ATOM     15  C   UNL     1       5.353  14.655  17.856  0.00  0.00    +0.000 A 
ATOM     16  C   UNL     1       4.670  15.490  18.736  0.00  0.00    +0.000 A 
ATOM     17  C   UNL     1       5.357  16.424  19.517  0.00  0.00    +0.000 A 
ATOM     18  C   UNL     1       6.752  16.493  19.390  0.00  0.00    +0.000 A 
ENDBRANCH   1  12
BRANCH   2  19
ATOM     19  C   UNL     1       9.935  13.060  19.034  0.00  0.00    +0.000 A 
ATOM     20  C   UNL     1       9.622  11.805  18.496  0.00  0.00    +0.000 A 
ATOM     21  C   UNL     1       9.208  10.772  19.339  0.00  0.00    +0.000 A 
ATOM     22 CL   UNL     1       8.872   9.219  18.678  0.00  0.00    +0.000 Cl
ATOM     23  C   UNL     1       9.084  10.978  20.710  0.00  0.00    +0.000 A 
ATOM     24  C   UNL     1       9.370  12.235  21.236  0.00  0.00    +0.000 A 
ATOM     25 CL   UNL     1       9.229  12.501  22.931  0.00  0.00    +0.000 Cl
ATOM     26  C   UNL     1       9.789  13.277  20.408  0.00  0.00    +0.000 A 
ENDBRANCH   2  19
TORSDOF 2
ENDMDL
