MODEL 1
REMARK VINA RESULT:      -7.5      0.000      0.000
REMARK  Name = 
REMARK  9 active torsions:
REMARK  status: ('A' for Active; 'I' for Inactive)
REMARK    1  A    between atoms: C_1  and  C_2
REMARK    2  A    between atoms: C_2  and  C_3
REMARK    3  A    between atoms: C_3  and  C_4
REMARK    4  A    between atoms: C_4  and  C_5
REMARK    5  A    between atoms: C_5  and  C_6
REMARK    6  A    between atoms: C_6  and  C_7
REMARK    7  A    between atoms: C_7  and  C_8
REMARK    8  A    between atoms: C_8  and  N_9
REMARK    9  A    between atoms: C_10  and  C_11
REMARK                            x       y       z     vdW  Elec       q    Type
REMARK                         _______ _______ _______ _____ _____    ______ ____
ROOT
ATOM      1  N   UNL     1       5.763   5.536  17.054  0.00  0.00    +0.000 N 
ATOM      2  C   UNL     1       5.141   5.025  18.192  0.00  0.00    +0.000 A 
ATOM      3  C   UNL     1       5.942   5.498  19.219  0.00  0.00    +0.000 A 
ATOM      4  N   UNL     1       7.036   6.172  18.753  0.00  0.00    +0.000 NA
ATOM      5  C   UNL     1       6.922   6.160  17.452  0.00  0.00    +0.000 A 
ATOM      6  N   UNL     1       7.811   6.697  16.603  0.00  0.00    +0.000 N 
ATOM      7  H   UNL     1       8.554   7.253  17.013  0.00  0.00    +0.000 HD
ATOM      8  H   UNL     1       7.653   6.867  15.620  0.00  0.00    +0.000 HD
ENDROOT
BRANCH   2   9
ATOM      9  C   UNL     1       3.906   4.228  18.264  0.00  0.00    +0.000 A 
ATOM     10  C   UNL     1       2.643   4.836  18.315  0.00  0.00    +0.000 A 
ATOM     11  C   UNL     1       1.475   4.080  18.416  0.00  0.00    +0.000 A 
ATOM     12  C   UNL     1       1.556   2.697  18.403  0.00  0.00    +0.000 A 
ATOM     13  F   UNL     1       0.432   1.971  18.461  0.00  0.00    +0.000 F 
ATOM     14  C   UNL     1       2.786   2.061  18.315  0.00  0.00    +0.000 A 
ATOM     15  C   UNL     1       3.958   2.825  18.256  0.00  0.00    +0.000 A 
ENDBRANCH   2   9
BRANCH   1  16
ATOM     16  C   UNL     1       5.216   5.576  15.706  0.00  0.00    +0.000 C 
BRANCH  16  17
ATOM     17  C   UNL     1       5.243   4.225  14.992  0.00  0.00    +0.000 C 
BRANCH  17  18
ATOM     18  C   UNL     1       6.545   4.029  14.222  0.00  0.00    +0.000 C 
BRANCH  18  19
ATOM     19  C   UNL     1       6.272   3.871  12.735  0.00  0.00    +0.000 C 
BRANCH  19  20
ATOM     20  C   UNL     1       4.845   3.386  12.507  0.00  0.00    +0.000 C 
BRANCH  20  21
ATOM     21  C   UNL     1       4.627   3.038  11.041  0.00  0.00    +0.000 C 
BRANCH  21  23
ATOM     22  C   UNL     1       2.988   4.266   9.595  0.00  0.00    +0.000 C 
ATOM     23  C   UNL     1       3.159   3.193  10.654  0.00  0.00    +0.000 C 
ENDBRANCH  21  23
ENDBRANCH  20  21
ENDBRANCH  19  20
ENDBRANCH  18  19
ENDBRANCH  17  18
ENDBRANCH  16  17
ENDBRANCH   1  16
TORSDOF 8
ENDMDL
MODEL 2
REMARK VINA RESULT:      -7.3      0.981      1.050
REMARK  Name = 
REMARK  9 active torsions:
REMARK  status: ('A' for Active; 'I' for Inactive)
REMARK    1  A    between atoms: C_1  and  C_2
REMARK    2  A    between atoms: C_2  and  C_3
REMARK    3  A    between atoms: C_3  and  C_4
REMARK    4  A    between atoms: C_4  and  C_5
REMARK    5  A    between atoms: C_5  and  C_6
REMARK    6  A    between atoms: C_6  and  C_7
REMARK    7  A    between atoms: C_7  and  C_8
REMARK    8  A    between atoms: C_8  and  N_9
REMARK    9  A    between atoms: C_10  and  C_11
REMARK                            x       y       z     vdW  Elec       q    Type
REMARK                         _______ _______ _______ _____ _____    ______ ____
ROOT
ATOM      1  N   UNL     1       5.921   4.049  17.470  0.00  0.00    +0.000 N 
ATOM      2  C   UNL     1       4.997   4.219  18.499  0.00  0.00    +0.000 A 
ATOM      3  C   UNL     1       5.685   5.016  19.400  0.00  0.00    +0.000 A 
ATOM      4  N   UNL     1       6.974   5.244  19.009  0.00  0.00    +0.000 NA
ATOM      5  C   UNL     1       7.102   4.634  17.862  0.00  0.00    +0.000 A 
ATOM      6  N   UNL     1       8.233   4.588  17.143  0.00  0.00    +0.000 N 
ATOM      7  H   UNL     1       8.999   5.172  17.461  0.00  0.00    +0.000 HD
ATOM      8  H   UNL     1       8.303   4.292  16.180  0.00  0.00    +0.000 HD
ENDROOT
BRANCH   2   9
ATOM      9  C   UNL     1       3.616   3.715  18.565  0.00  0.00    +0.000 A 
ATOM     10  C   UNL     1       2.576   4.328  17.849  0.00  0.00    +0.000 A 
ATOM     11  C   UNL     1       1.263   3.868  17.938  0.00  0.00    +0.000 A 
ATOM     12  C   UNL     1       0.984   2.745  18.700  0.00  0.00    +0.000 A 
ATOM     13  F   UNL     1      -0.271   2.281  18.755  0.00  0.00    +0.000 F 
ATOM     14  C   UNL     1       1.994   2.091  19.392  0.00  0.00    +0.000 A 
ATOM     15  C   UNL     1       3.304   2.581  19.332  0.00  0.00    +0.000 A 
ENDBRANCH   2   9
BRANCH   1  16
ATOM     16  C   UNL     1       5.656   3.515  16.141  0.00  0.00    +0.000 C 
BRANCH  16  17
ATOM     17  C   UNL     1       5.451   4.590  15.076  0.00  0.00    +0.000 C 
BRANCH  17  18
ATOM     18  C   UNL     1       6.602   4.608  14.075  0.00  0.00    +0.000 C 
BRANCH  18  19
ATOM     19  C   UNL     1       6.330   3.649  12.926  0.00  0.00    +0.000 C 
BRANCH  19  20
ATOM     20  C   UNL     1       4.884   3.774  12.463  0.00  0.00    +0.000 C 
BRANCH  20  21
ATOM     21  C   UNL     1       4.647   2.928  11.219  0.00  0.00    +0.000 C 
BRANCH  21  23
ATOM     22  C   UNL     1       3.065   4.136   9.695  0.00  0.00    +0.000 C 
ATOM     23  C   UNL     1       3.203   3.048  10.743  0.00  0.00    +0.000 C 
ENDBRANCH  21  23
ENDBRANCH  20  21
ENDBRANCH  19  20
ENDBRANCH  18  19
ENDBRANCH  17  18
ENDBRANCH  16  17
ENDBRANCH   1  16
TORSDOF 8
ENDMDL
MODEL 3
REMARK VINA RESULT:      -7.1      0.711      1.344
REMARK  Name = 
REMARK  9 active torsions:
REMARK  status: ('A' for Active; 'I' for Inactive)
REMARK    1  A    between atoms: C_1  and  C_2
REMARK    2  A    between atoms: C_2  and  C_3
REMARK    3  A    between atoms: C_3  and  C_4
REMARK    4  A    between atoms: C_4  and  C_5
REMARK    5  A    between atoms: C_5  and  C_6
REMARK    6  A    between atoms: C_6  and  C_7
REMARK    7  A    between atoms: C_7  and  C_8
REMARK    8  A    between atoms: C_8  and  N_9
REMARK    9  A    between atoms: C_10  and  C_11
REMARK                            x       y       z     vdW  Elec       q    Type
REMARK                         _______ _______ _______ _____ _____    ______ ____
ROOT
ATOM      1  N   UNL     1       5.772   6.089  17.444  0.00  0.00    +0.000 N 
ATOM      2  C   UNL     1       5.374   5.166  18.410  0.00  0.00    +0.000 A 
ATOM      3  C   UNL     1       6.433   5.182  19.304  0.00  0.00    +0.000 A 
ATOM      4  N   UNL     1       7.457   5.980  18.878  0.00  0.00    +0.000 NA
ATOM      5  C   UNL     1       7.050   6.494  17.748  0.00  0.00    +0.000 A 
ATOM      6  N   UNL     1       7.775   7.323  16.982  0.00  0.00    +0.000 N 
ATOM      7  H   UNL     1       8.646   7.662  17.375  0.00  0.00    +0.000 HD
ATOM      8  H   UNL     1       7.416   7.875  16.216  0.00  0.00    +0.000 HD
ENDROOT
BRANCH   2   9
ATOM      9  C   UNL     1       4.111   4.415  18.473  0.00  0.00    +0.000 A 
ATOM     10  C   UNL     1       3.990   3.135  17.911  0.00  0.00    +0.000 A 
ATOM     11  C   UNL     1       2.782   2.437  17.943  0.00  0.00    +0.000 A 
ATOM     12  C   UNL     1       1.694   2.991  18.597  0.00  0.00    +0.000 A 
ATOM     13  F   UNL     1       0.545   2.305  18.661  0.00  0.00    +0.000 F 
ATOM     14  C   UNL     1       1.788   4.239  19.197  0.00  0.00    +0.000 A 
ATOM     15  C   UNL     1       2.991   4.952  19.126  0.00  0.00    +0.000 A 
ENDBRANCH   2   9
BRANCH   1  16
ATOM     16  C   UNL     1       4.940   6.671  16.400  0.00  0.00    +0.000 C 
BRANCH  16  17
ATOM     17  C   UNL     1       5.268   6.163  14.997  0.00  0.00    +0.000 C 
BRANCH  17  18
ATOM     18  C   UNL     1       5.689   4.697  15.021  0.00  0.00    +0.000 C 
BRANCH  18  19
ATOM     19  C   UNL     1       6.514   4.355  13.790  0.00  0.00    +0.000 C 
BRANCH  19  20
ATOM     20  C   UNL     1       5.876   3.198  13.029  0.00  0.00    +0.000 C 
BRANCH  20  21
ATOM     21  C   UNL     1       5.418   3.655  11.651  0.00  0.00    +0.000 C 
BRANCH  21  23
ATOM     22  C   UNL     1       3.368   3.919  10.233  0.00  0.00    +0.000 C 
ATOM     23  C   UNL     1       4.033   3.103  11.325  0.00  0.00    +0.000 C 
ENDBRANCH  21  23
ENDBRANCH  20  21
ENDBRANCH  19  20
ENDBRANCH  18  19
ENDBRANCH  17  18
ENDBRANCH  16  17
ENDBRANCH   1  16
TORSDOF 8
ENDMDL
MODEL 4
REMARK VINA RESULT:      -7.0      1.062      1.383
REMARK  Name = 
REMARK  9 active torsions:
REMARK  status: ('A' for Active; 'I' for Inactive)
REMARK    1  A    between atoms: C_1  and  C_2
REMARK    2  A    between atoms: C_2  and  C_3
REMARK    3  A    between atoms: C_3  and  C_4
REMARK    4  A    between atoms: C_4  and  C_5
REMARK    5  A    between atoms: C_5  and  C_6
REMARK    6  A    between atoms: C_6  and  C_7
REMARK    7  A    between atoms: C_7  and  C_8
REMARK    8  A    between atoms: C_8  and  N_9
REMARK    9  A    between atoms: C_10  and  C_11
REMARK                            x       y       z     vdW  Elec       q    Type
REMARK                         _______ _______ _______ _____ _____    ______ ____
ROOT
ATOM      1  N   UNL     1       5.907   6.065  17.621  0.00  0.00    +0.000 N 
ATOM      2  C   UNL     1       5.647   5.349  18.789  0.00  0.00    +0.000 A 
ATOM      3  C   UNL     1       6.811   5.521  19.520  0.00  0.00    +0.000 A 
ATOM      4  N   UNL     1       7.764   6.208  18.822  0.00  0.00    +0.000 NA
ATOM      5  C   UNL     1       7.210   6.502  17.676  0.00  0.00    +0.000 A 
ATOM      6  N   UNL     1       7.820   7.158  16.679  0.00  0.00    +0.000 N 
ATOM      7  H   UNL     1       8.731   7.554  16.884  0.00  0.00    +0.000 HD
ATOM      8  H   UNL     1       7.360   7.558  15.874  0.00  0.00    +0.000 HD
ENDROOT
BRANCH   2   9
ATOM      9  C   UNL     1       4.410   4.642  19.157  0.00  0.00    +0.000 A 
ATOM     10  C   UNL     1       3.366   5.291  19.833  0.00  0.00    +0.000 A 
ATOM     11  C   UNL     1       2.209   4.611  20.209  0.00  0.00    +0.000 A 
ATOM     12  C   UNL     1       2.056   3.280  19.856  0.00  0.00    +0.000 A 
ATOM     13  F   UNL     1       0.928   2.637  20.183  0.00  0.00    +0.000 F 
ATOM     14  C   UNL     1       3.051   2.615  19.154  0.00  0.00    +0.000 A 
ATOM     15  C   UNL     1       4.229   3.292  18.814  0.00  0.00    +0.000 A 
ENDBRANCH   2   9
BRANCH   1  16
ATOM     16  C   UNL     1       4.941   6.447  16.601  0.00  0.00    +0.000 C 
BRANCH  16  17
ATOM     17  C   UNL     1       5.222   5.838  15.229  0.00  0.00    +0.000 C 
BRANCH  17  18
ATOM     18  C   UNL     1       5.262   4.314  15.295  0.00  0.00    +0.000 C 
BRANCH  18  19
ATOM     19  C   UNL     1       6.405   3.770  14.451  0.00  0.00    +0.000 C 
BRANCH  19  20
ATOM     20  C   UNL     1       6.292   4.276  13.018  0.00  0.00    +0.000 C 
BRANCH  20  21
ATOM     21  C   UNL     1       5.756   3.180  12.107  0.00  0.00    +0.000 C 
BRANCH  21  23
ATOM     22  C   UNL     1       3.861   3.597  10.520  0.00  0.00    +0.000 C 
ATOM     23  C   UNL     1       4.241   3.287  11.956  0.00  0.00    +0.000 C 
ENDBRANCH  21  23
ENDBRANCH  20  21
ENDBRANCH  19  20
ENDBRANCH  18  19
ENDBRANCH  17  18
ENDBRANCH  16  17
ENDBRANCH   1  16
TORSDOF 8
ENDMDL
MODEL 5
REMARK VINA RESULT:      -7.0      1.384      1.661
REMARK  Name = 
REMARK  9 active torsions:
REMARK  status: ('A' for Active; 'I' for Inactive)
REMARK    1  A    between atoms: C_1  and  C_2
REMARK    2  A    between atoms: C_2  and  C_3
REMARK    3  A    between atoms: C_3  and  C_4
REMARK    4  A    between atoms: C_4  and  C_5
REMARK    5  A    between atoms: C_5  and  C_6
REMARK    6  A    between atoms: C_6  and  C_7
REMARK    7  A    between atoms: C_7  and  C_8
REMARK    8  A    between atoms: C_8  and  N_9
REMARK    9  A    between atoms: C_10  and  C_11
REMARK                            x       y       z     vdW  Elec       q    Type
REMARK                         _______ _______ _______ _____ _____    ______ ____
ROOT
ATOM      1  N   UNL     1       5.636   6.007  17.427  0.00  0.00    +0.000 N 
ATOM      2  C   UNL     1       5.198   5.081  18.373  0.00  0.00    +0.000 A 
ATOM      3  C   UNL     1       6.221   5.089  19.308  0.00  0.00    +0.000 A 
ATOM      4  N   UNL     1       7.264   5.886  18.926  0.00  0.00    +0.000 NA
ATOM      5  C   UNL     1       6.903   6.406  17.783  0.00  0.00    +0.000 A 
ATOM      6  N   UNL     1       7.660   7.234  17.049  0.00  0.00    +0.000 N 
ATOM      7  H   UNL     1       8.516   7.569  17.477  0.00  0.00    +0.000 HD
ATOM      8  H   UNL     1       7.333   7.791  16.272  0.00  0.00    +0.000 HD
ENDROOT
BRANCH   2   9
ATOM      9  C   UNL     1       3.931   4.334  18.384  0.00  0.00    +0.000 A 
ATOM     10  C   UNL     1       2.759   4.884  18.927  0.00  0.00    +0.000 A 
ATOM     11  C   UNL     1       1.566   4.162  18.965  0.00  0.00    +0.000 A 
ATOM     12  C   UNL     1       1.518   2.898  18.402  0.00  0.00    +0.000 A 
ATOM     13  F   UNL     1       0.363   2.219  18.405  0.00  0.00    +0.000 F 
ATOM     14  C   UNL     1       2.647   2.337  17.823  0.00  0.00    +0.000 A 
ATOM     15  C   UNL     1       3.852   3.049  17.823  0.00  0.00    +0.000 A 
ENDBRANCH   2   9
BRANCH   1  16
ATOM     16  C   UNL     1       4.847   6.596  16.355  0.00  0.00    +0.000 C 
BRANCH  16  17
ATOM     17  C   UNL     1       5.223   6.087  14.964  0.00  0.00    +0.000 C 
BRANCH  17  18
ATOM     18  C   UNL     1       5.253   4.562  14.919  0.00  0.00    +0.000 C 
BRANCH  18  19
ATOM     19  C   UNL     1       6.446   4.072  14.114  0.00  0.00    +0.000 C 
BRANCH  19  20
ATOM     20  C   UNL     1       5.996   3.590  12.740  0.00  0.00    +0.000 C 
BRANCH  20  21
ATOM     21  C   UNL     1       7.189   3.463  11.803  0.00  0.00    +0.000 C 
BRANCH  21  23
ATOM     22  C   UNL     1       5.865   1.387  11.332  0.00  0.00    +0.000 C 
ATOM     23  C   UNL     1       7.151   2.139  11.045  0.00  0.00    +0.000 C 
ENDBRANCH  21  23
ENDBRANCH  20  21
ENDBRANCH  19  20
ENDBRANCH  18  19
ENDBRANCH  17  18
ENDBRANCH  16  17
ENDBRANCH   1  16
TORSDOF 8
ENDMDL
MODEL 6
REMARK VINA RESULT:      -7.0      1.287      1.959
REMARK  Name = 
REMARK  9 active torsions:
REMARK  status: ('A' for Active; 'I' for Inactive)
REMARK    1  A    between atoms: C_1  and  C_2
REMARK    2  A    between atoms: C_2  and  C_3
REMARK    3  A    between atoms: C_3  and  C_4
REMARK    4  A    between atoms: C_4  and  C_5
REMARK    5  A    between atoms: C_5  and  C_6
REMARK    6  A    between atoms: C_6  and  C_7
REMARK    7  A    between atoms: C_7  and  C_8
REMARK    8  A    between atoms: C_8  and  N_9
REMARK    9  A    between atoms: C_10  and  C_11
REMARK                            x       y       z     vdW  Elec       q    Type
REMARK                         _______ _______ _______ _____ _____    ______ ____
ROOT
ATOM      1  N   UNL     1       5.903   6.225  17.453  0.00  0.00    +0.000 N 
ATOM      2  C   UNL     1       5.447   5.299  18.390  0.00  0.00    +0.000 A 
ATOM      3  C   UNL     1       6.472   5.276  19.323  0.00  0.00    +0.000 A 
ATOM      4  N   UNL     1       7.530   6.055  18.947  0.00  0.00    +0.000 NA
ATOM      5  C   UNL     1       7.178   6.595  17.811  0.00  0.00    +0.000 A 
ATOM      6  N   UNL     1       7.951   7.415  17.084  0.00  0.00    +0.000 N 
ATOM      7  H   UNL     1       8.814   7.728  17.513  0.00  0.00    +0.000 HD
ATOM      8  H   UNL     1       7.634   7.986  16.313  0.00  0.00    +0.000 HD
ENDROOT
BRANCH   2   9
ATOM      9  C   UNL     1       4.165   4.578  18.395  0.00  0.00    +0.000 A 
ATOM     10  C   UNL     1       4.004   3.360  17.716  0.00  0.00    +0.000 A 
ATOM     11  C   UNL     1       2.779   2.695  17.695  0.00  0.00    +0.000 A 
ATOM     12  C   UNL     1       1.711   3.212  18.410  0.00  0.00    +0.000 A 
ATOM     13  F   UNL     1       0.545   2.553  18.422  0.00  0.00    +0.000 F 
ATOM     14  C   UNL     1       1.844   4.395  19.124  0.00  0.00    +0.000 A 
ATOM     15  C   UNL     1       3.065   5.080  19.108  0.00  0.00    +0.000 A 
ENDBRANCH   2   9
BRANCH   1  16
ATOM     16  C   UNL     1       5.124   6.842  16.388  0.00  0.00    +0.000 C 
BRANCH  16  17
ATOM     17  C   UNL     1       4.949   5.951  15.160  0.00  0.00    +0.000 C 
BRANCH  17  18
ATOM     18  C   UNL     1       6.212   5.144  14.873  0.00  0.00    +0.000 C 
BRANCH  18  19
ATOM     19  C   UNL     1       5.866   3.824  14.202  0.00  0.00    +0.000 C 
BRANCH  19  20
ATOM     20  C   UNL     1       6.471   3.765  12.804  0.00  0.00    +0.000 C 
BRANCH  20  21
ATOM     21  C   UNL     1       5.675   2.817  11.918  0.00  0.00    +0.000 C 
BRANCH  21  23
ATOM     22  C   UNL     1       6.204   0.474  11.202  0.00  0.00    +0.000 C 
ATOM     23  C   UNL     1       6.603   1.933  11.090  0.00  0.00    +0.000 C 
ENDBRANCH  21  23
ENDBRANCH  20  21
ENDBRANCH  19  20
ENDBRANCH  18  19
ENDBRANCH  17  18
ENDBRANCH  16  17
ENDBRANCH   1  16
TORSDOF 8
ENDMDL
MODEL 7
REMARK VINA RESULT:      -6.9      3.096      5.352
REMARK  Name = 
REMARK  9 active torsions:
REMARK  status: ('A' for Active; 'I' for Inactive)
REMARK    1  A    between atoms: C_1  and  C_2
REMARK    2  A    between atoms: C_2  and  C_3
REMARK    3  A    between atoms: C_3  and  C_4
REMARK    4  A    between atoms: C_4  and  C_5
REMARK    5  A    between atoms: C_5  and  C_6
REMARK    6  A    between atoms: C_6  and  C_7
REMARK    7  A    between atoms: C_7  and  C_8
REMARK    8  A    between atoms: C_8  and  N_9
REMARK    9  A    between atoms: C_10  and  C_11
REMARK                            x       y       z     vdW  Elec       q    Type
REMARK                         _______ _______ _______ _____ _____    ______ ____
ROOT
ATOM      1  N   UNL     1       5.579   5.246  16.567  0.00  0.00    +0.000 N 
ATOM      2  C   UNL     1       5.366   6.327  17.422  0.00  0.00    +0.000 A 
ATOM      3  C   UNL     1       6.488   7.112  17.208  0.00  0.00    +0.000 A 
ATOM      4  N   UNL     1       7.379   6.520  16.358  0.00  0.00    +0.000 NA
ATOM      5  C   UNL     1       6.826   5.391  16.006  0.00  0.00    +0.000 A 
ATOM      6  N   UNL     1       7.389   4.486  15.192  0.00  0.00    +0.000 N 
ATOM      7  H   UNL     1       8.247   4.762  14.728  0.00  0.00    +0.000 HD
ATOM      8  H   UNL     1       6.910   3.709  14.761  0.00  0.00    +0.000 HD
ENDROOT
BRANCH   2   9
ATOM      9  C   UNL     1       4.203   6.577  18.287  0.00  0.00    +0.000 A 
ATOM     10  C   UNL     1       3.248   7.554  17.967  0.00  0.00    +0.000 A 
ATOM     11  C   UNL     1       2.163   7.813  18.804  0.00  0.00    +0.000 A 
ATOM     12  C   UNL     1       1.987   7.050  19.946  0.00  0.00    +0.000 A 
ATOM     13  F   UNL     1       0.925   7.272  20.731  0.00  0.00    +0.000 F 
ATOM     14  C   UNL     1       2.892   6.050  20.275  0.00  0.00    +0.000 A 
ATOM     15  C   UNL     1       4.001   5.821  19.452  0.00  0.00    +0.000 A 
ENDBRANCH   2   9
BRANCH   1  16
ATOM     16  C   UNL     1       4.604   4.236  16.182  0.00  0.00    +0.000 C 
BRANCH  16  17
ATOM     17  C   UNL     1       4.374   3.166  17.248  0.00  0.00    +0.000 C 
BRANCH  17  18
ATOM     18  C   UNL     1       2.933   2.665  17.232  0.00  0.00    +0.000 C 
BRANCH  18  19
ATOM     19  C   UNL     1       1.961   3.821  17.410  0.00  0.00    +0.000 C 
BRANCH  19  20
ATOM     20  C   UNL     1       0.927   3.484  18.478  0.00  0.00    +0.000 C 
BRANCH  20  21
ATOM     21  C   UNL     1       1.467   2.422  19.427  0.00  0.00    +0.000 C 
BRANCH  21  23
ATOM     22  C   UNL     1       2.493   2.729  21.693  0.00  0.00    +0.000 C 
ATOM     23  C   UNL     1       1.214   2.808  20.881  0.00  0.00    +0.000 C 
ENDBRANCH  21  23
ENDBRANCH  20  21
ENDBRANCH  19  20
ENDBRANCH  18  19
ENDBRANCH  17  18
ENDBRANCH  16  17
ENDBRANCH   1  16
TORSDOF 8
ENDMDL
MODEL 8
REMARK VINA RESULT:      -6.9      1.191      1.375
REMARK  Name = 
REMARK  9 active torsions:
REMARK  status: ('A' for Active; 'I' for Inactive)
REMARK    1  A    between atoms: C_1  and  C_2
REMARK    2  A    between atoms: C_2  and  C_3
REMARK    3  A    between atoms: C_3  and  C_4
REMARK    4  A    between atoms: C_4  and  C_5
REMARK    5  A    between atoms: C_5  and  C_6
REMARK    6  A    between atoms: C_6  and  C_7
REMARK    7  A    between atoms: C_7  and  C_8
REMARK    8  A    between atoms: C_8  and  N_9
REMARK    9  A    between atoms: C_10  and  C_11
REMARK                            x       y       z     vdW  Elec       q    Type
REMARK                         _______ _______ _______ _____ _____    ______ ____
ROOT
ATOM      1  N   UNL     1       5.945   5.478  17.286  0.00  0.00    +0.000 N 
ATOM      2  C   UNL     1       4.628   5.550  17.737  0.00  0.00    +0.000 A 
ATOM      3  C   UNL     1       4.330   6.897  17.600  0.00  0.00    +0.000 A 
ATOM      4  N   UNL     1       5.410   7.626  17.187  0.00  0.00    +0.000 NA
ATOM      5  C   UNL     1       6.375   6.759  17.030  0.00  0.00    +0.000 A 
ATOM      6  N   UNL     1       7.624   7.068  16.654  0.00  0.00    +0.000 N 
ATOM      7  H   UNL     1       7.788   8.023  16.358  0.00  0.00    +0.000 HD
ATOM      8  H   UNL     1       8.322   6.406  16.345  0.00  0.00    +0.000 HD
ENDROOT
BRANCH   2   9
ATOM      9  C   UNL     1       3.768   4.446  18.189  0.00  0.00    +0.000 A 
ATOM     10  C   UNL     1       2.673   4.010  17.428  0.00  0.00    +0.000 A 
ATOM     11  C   UNL     1       1.839   2.984  17.873  0.00  0.00    +0.000 A 
ATOM     12  C   UNL     1       2.130   2.339  19.064  0.00  0.00    +0.000 A 
ATOM     13  F   UNL     1       1.352   1.329  19.474  0.00  0.00    +0.000 F 
ATOM     14  C   UNL     1       3.227   2.719  19.826  0.00  0.00    +0.000 A 
ATOM     15  C   UNL     1       4.037   3.776  19.394  0.00  0.00    +0.000 A 
ENDBRANCH   2   9
BRANCH   1  16
ATOM     16  C   UNL     1       6.690   4.269  16.963  0.00  0.00    +0.000 C 
BRANCH  16  17
ATOM     17  C   UNL     1       6.161   3.532  15.734  0.00  0.00    +0.000 C 
BRANCH  17  18
ATOM     18  C   UNL     1       6.504   4.277  14.447  0.00  0.00    +0.000 C 
BRANCH  18  19
ATOM     19  C   UNL     1       5.459   4.010  13.376  0.00  0.00    +0.000 C 
BRANCH  19  20
ATOM     20  C   UNL     1       6.094   3.315  12.177  0.00  0.00    +0.000 C 
BRANCH  20  21
ATOM     21  C   UNL     1       5.032   2.605  11.348  0.00  0.00    +0.000 C 
BRANCH  21  23
ATOM     22  C   UNL     1       3.313   3.813   9.982  0.00  0.00    +0.000 C 
ATOM     23  C   UNL     1       3.713   3.373  11.377  0.00  0.00    +0.000 C 
ENDBRANCH  21  23
ENDBRANCH  20  21
ENDBRANCH  19  20
ENDBRANCH  18  19
ENDBRANCH  17  18
ENDBRANCH  16  17
ENDBRANCH   1  16
TORSDOF 8
ENDMDL
MODEL 9
REMARK VINA RESULT:      -6.9      3.764      5.748
REMARK  Name = 
REMARK  9 active torsions:
REMARK  status: ('A' for Active; 'I' for Inactive)
REMARK    1  A    between atoms: C_1  and  C_2
REMARK    2  A    between atoms: C_2  and  C_3
REMARK    3  A    between atoms: C_3  and  C_4
REMARK    4  A    between atoms: C_4  and  C_5
REMARK    5  A    between atoms: C_5  and  C_6
REMARK    6  A    between atoms: C_6  and  C_7
REMARK    7  A    between atoms: C_7  and  C_8
REMARK    8  A    between atoms: C_8  and  N_9
REMARK    9  A    between atoms: C_10  and  C_11
REMARK                            x       y       z     vdW  Elec       q    Type
REMARK                         _______ _______ _______ _____ _____    ______ ____
ROOT
ATOM      1  N   UNL     1       3.416   3.263  18.620  0.00  0.00    +0.000 N 
ATOM      2  C   UNL     1       2.389   4.003  19.206  0.00  0.00    +0.000 A 
ATOM      3  C   UNL     1       1.606   3.026  19.799  0.00  0.00    +0.000 A 
ATOM      4  N   UNL     1       2.055   1.765  19.521  0.00  0.00    +0.000 NA
ATOM      5  C   UNL     1       3.126   1.930  18.792  0.00  0.00    +0.000 A 
ATOM      6  N   UNL     1       3.863   0.933  18.282  0.00  0.00    +0.000 N 
ATOM      7  H   UNL     1       3.636  -0.006  18.590  0.00  0.00    +0.000 HD
ATOM      8  H   UNL     1       4.786   1.033  17.884  0.00  0.00    +0.000 HD
ENDROOT
BRANCH   2   9
ATOM      9  C   UNL     1       2.229   5.465  19.225  0.00  0.00    +0.000 A 
ATOM     10  C   UNL     1       2.357   6.233  18.058  0.00  0.00    +0.000 A 
ATOM     11  C   UNL     1       2.238   7.623  18.084  0.00  0.00    +0.000 A 
ATOM     12  C   UNL     1       1.925   8.257  19.275  0.00  0.00    +0.000 A 
ATOM     13  F   UNL     1       1.772   9.587  19.293  0.00  0.00    +0.000 F 
ATOM     14  C   UNL     1       1.754   7.526  20.443  0.00  0.00    +0.000 A 
ATOM     15  C   UNL     1       1.916   6.135  20.419  0.00  0.00    +0.000 A 
ENDBRANCH   2   9
BRANCH   1  16
ATOM     16  C   UNL     1       4.665   3.782  18.082  0.00  0.00    +0.000 C 
BRANCH  16  17
ATOM     17  C   UNL     1       4.701   3.838  16.556  0.00  0.00    +0.000 C 
BRANCH  17  18
ATOM     18  C   UNL     1       5.779   4.797  16.059  0.00  0.00    +0.000 C 
BRANCH  18  19
ATOM     19  C   UNL     1       5.249   6.221  16.009  0.00  0.00    +0.000 C 
BRANCH  19  20
ATOM     20  C   UNL     1       5.964   7.089  17.037  0.00  0.00    +0.000 C 
BRANCH  20  21
ATOM     21  C   UNL     1       7.374   6.570  17.284  0.00  0.00    +0.000 C 
BRANCH  21  23
ATOM     22  C   UNL     1       8.164   8.858  17.938  0.00  0.00    +0.000 C 
ATOM     23  C   UNL     1       8.084   7.400  18.350  0.00  0.00    +0.000 C 
ENDBRANCH  21  23
ENDBRANCH  20  21
ENDBRANCH  19  20
ENDBRANCH  18  19
ENDBRANCH  17  18
ENDBRANCH  16  17
ENDBRANCH   1  16
TORSDOF 8
ENDMDL
