MODEL 1
REMARK VINA RESULT:      -8.3      0.000      0.000
REMARK  Name = 
REMARK  7 active torsions:
REMARK  status: ('A' for Active; 'I' for Inactive)
REMARK    1  A    between atoms: C_2  and  C_3
REMARK    2  A    between atoms: C_3  and  O_4
REMARK    3  A    between atoms: O_4  and  C_5
REMARK    4  A    between atoms: C_5  and  C_7
REMARK    5  A    between atoms: C_10  and  S_11
REMARK    6  A    between atoms: S_11  and  N_14
REMARK    7  A    between atoms: N_22  and  C_23
REMARK                            x       y       z     vdW  Elec       q    Type
REMARK                         _______ _______ _______ _____ _____    ______ ____
ROOT
ATOM      1  C   UNL     1       1.935   7.271  20.094  0.00  0.00    +0.000 A 
ATOM      2  C   UNL     1       1.836   6.038  20.752  0.00  0.00    +0.000 A 
ATOM      3  C   UNL     1       2.225   4.860  20.108  0.00  0.00    +0.000 A 
ATOM      4  C   UNL     1       2.699   4.910  18.792  0.00  0.00    +0.000 A 
ATOM      5  C   UNL     1       2.844   6.140  18.142  0.00  0.00    +0.000 A 
ATOM      6  C   UNL     1       2.455   7.318  18.789  0.00  0.00    +0.000 A 
ENDROOT
BRANCH   4   7
ATOM      7  S   UNL     1       3.225   3.400  17.985  0.00  0.00    +0.000 S 
ATOM      8  O   UNL     1       3.321   2.381  19.011  0.00  0.00    +0.000 OA
ATOM      9  O   UNL     1       2.374   3.220  16.832  0.00  0.00    +0.000 OA
BRANCH   7  10
ATOM     10  N   UNL     1       4.809   3.754  17.427  0.00  0.00    +0.000 NA
ATOM     11  C   UNL     1       4.898   4.194  16.010  0.00  0.00    +0.000 C 
ATOM     12  C   UNL     1       6.344   4.306  15.542  0.00  0.00    +0.000 C 
ATOM     13  C   UNL     1       7.156   5.189  16.477  0.00  0.00    +0.000 C 
ATOM     14  C   UNL     1       7.103   4.609  17.884  0.00  0.00    +0.000 C 
ATOM     15  C   UNL     1       5.665   4.503  18.381  0.00  0.00    +0.000 C 
ENDBRANCH   7  10
ENDBRANCH   4   7
BRANCH   1  16
ATOM     16  C   UNL     1       1.407   8.478  20.789  0.00  0.00    +0.000 C 
ATOM     17  O   UNL     1       1.236   8.552  21.996  0.00  0.00    +0.000 OA
BRANCH  16  18
ATOM     18  O   UNL     1       1.032   9.414  19.886  0.00  0.00    +0.000 OA
BRANCH  18  19
ATOM     19  C   UNL     1       0.533  10.628  20.455  0.00  0.00    +0.000 C 
BRANCH  19  21
ATOM     20  O   UNL     1      -0.445  12.428  19.225  0.00  0.00    +0.000 OA
ATOM     21  C   UNL     1      -0.483  11.226  19.488  0.00  0.00    +0.000 C 
ATOM     22  N   UNL     1      -1.373  10.305  18.955  0.00  0.00    +0.000 N 
ATOM     23  H   UNL     1      -1.365   9.367  19.350  0.00  0.00    +0.000 HD
BRANCH  22  24
ATOM     24  C   UNL     1      -2.330  10.560  17.947  0.00  0.00    +0.000 A 
ATOM     25  C   UNL     1      -3.483  11.319  18.164  0.00  0.00    +0.000 A 
ATOM     26  C   UNL     1      -4.393  11.551  17.128  0.00  0.00    +0.000 A 
ATOM     27  C   UNL     1      -4.164  11.018  15.864  0.00  0.00    +0.000 A 
ATOM     28  C   UNL     1      -3.016  10.263  15.633  0.00  0.00    +0.000 A 
ATOM     29  C   UNL     1      -2.095  10.046  16.666  0.00  0.00    +0.000 A 
ENDBRANCH  22  24
ENDBRANCH  19  21
ENDBRANCH  18  19
ENDBRANCH  16  18
ENDBRANCH   1  16
TORSDOF 7
ENDMDL
MODEL 2
REMARK VINA RESULT:      -8.3      3.763      5.688
REMARK  Name = 
REMARK  7 active torsions:
REMARK  status: ('A' for Active; 'I' for Inactive)
REMARK    1  A    between atoms: C_2  and  C_3
REMARK    2  A    between atoms: C_3  and  O_4
REMARK    3  A    between atoms: O_4  and  C_5
REMARK    4  A    between atoms: C_5  and  C_7
REMARK    5  A    between atoms: C_10  and  S_11
REMARK    6  A    between atoms: S_11  and  N_14
REMARK    7  A    between atoms: N_22  and  C_23
REMARK                            x       y       z     vdW  Elec       q    Type
REMARK                         _______ _______ _______ _____ _____    ______ ____
ROOT
ATOM      1  C   UNL     1       4.609   3.314  19.165  0.00  0.00    +0.000 A 
ATOM      2  C   UNL     1       5.715   4.153  19.359  0.00  0.00    +0.000 A 
ATOM      3  C   UNL     1       6.194   4.944  18.311  0.00  0.00    +0.000 A 
ATOM      4  C   UNL     1       5.579   4.884  17.056  0.00  0.00    +0.000 A 
ATOM      5  C   UNL     1       4.448   4.083  16.863  0.00  0.00    +0.000 A 
ATOM      6  C   UNL     1       3.969   3.293  17.915  0.00  0.00    +0.000 A 
ENDROOT
BRANCH   4   7
ATOM      7  S   UNL     1       6.180   5.923  15.727  0.00  0.00    +0.000 S 
ATOM      8  O   UNL     1       5.107   6.831  15.378  0.00  0.00    +0.000 OA
ATOM      9  O   UNL     1       7.475   6.419  16.133  0.00  0.00    +0.000 OA
BRANCH   7  10
ATOM     10  N   UNL     1       6.413   4.836  14.419  0.00  0.00    +0.000 NA
ATOM     11  C   UNL     1       5.167   4.323  13.793  0.00  0.00    +0.000 C 
ATOM     12  C   UNL     1       5.457   3.228  12.772  0.00  0.00    +0.000 C 
ATOM     13  C   UNL     1       6.476   3.693  11.743  0.00  0.00    +0.000 C 
ATOM     14  C   UNL     1       7.758   4.096  12.457  0.00  0.00    +0.000 C 
ATOM     15  C   UNL     1       7.497   5.205  13.473  0.00  0.00    +0.000 C 
ENDBRANCH   7  10
ENDBRANCH   4   7
BRANCH   1  16
ATOM     16  C   UNL     1       4.209   2.416  20.284  0.00  0.00    +0.000 C 
ATOM     17  O   UNL     1       4.964   1.628  20.831  0.00  0.00    +0.000 OA
BRANCH  16  18
ATOM     18  O   UNL     1       2.879   2.513  20.513  0.00  0.00    +0.000 OA
BRANCH  18  19
ATOM     19  C   UNL     1       2.503   3.541  21.433  0.00  0.00    +0.000 C 
BRANCH  19  21
ATOM     20  O   UNL     1       0.647   4.531  20.299  0.00  0.00    +0.000 OA
ATOM     21  C   UNL     1       1.820   4.657  20.649  0.00  0.00    +0.000 C 
ATOM     22  N   UNL     1       2.622   5.767  20.422  0.00  0.00    +0.000 N 
ATOM     23  H   UNL     1       3.607   5.686  20.664  0.00  0.00    +0.000 HD
BRANCH  22  24
ATOM     24  C   UNL     1       2.209   6.985  19.837  0.00  0.00    +0.000 A 
ATOM     25  C   UNL     1       1.522   7.976  20.543  0.00  0.00    +0.000 A 
ATOM     26  C   UNL     1       1.145   9.169  19.920  0.00  0.00    +0.000 A 
ATOM     27  C   UNL     1       1.444   9.381  18.579  0.00  0.00    +0.000 A 
ATOM     28  C   UNL     1       2.133   8.403  17.864  0.00  0.00    +0.000 A 
ATOM     29  C   UNL     1       2.527   7.216  18.493  0.00  0.00    +0.000 A 
ENDBRANCH  22  24
ENDBRANCH  19  21
ENDBRANCH  18  19
ENDBRANCH  16  18
ENDBRANCH   1  16
TORSDOF 7
ENDMDL
MODEL 3
REMARK VINA RESULT:      -8.3      0.828      1.570
REMARK  Name = 
REMARK  7 active torsions:
REMARK  status: ('A' for Active; 'I' for Inactive)
REMARK    1  A    between atoms: C_2  and  C_3
REMARK    2  A    between atoms: C_3  and  O_4
REMARK    3  A    between atoms: O_4  and  C_5
REMARK    4  A    between atoms: C_5  and  C_7
REMARK    5  A    between atoms: C_10  and  S_11
REMARK    6  A    between atoms: S_11  and  N_14
REMARK    7  A    between atoms: N_22  and  C_23
REMARK                            x       y       z     vdW  Elec       q    Type
REMARK                         _______ _______ _______ _____ _____    ______ ____
ROOT
ATOM      1  C   UNL     1       1.633   7.193  20.322  0.00  0.00    +0.000 A 
ATOM      2  C   UNL     1       2.416   7.392  19.176  0.00  0.00    +0.000 A 
ATOM      3  C   UNL     1       3.187   6.348  18.658  0.00  0.00    +0.000 A 
ATOM      4  C   UNL     1       3.191   5.102  19.296  0.00  0.00    +0.000 A 
ATOM      5  C   UNL     1       2.379   4.881  20.413  0.00  0.00    +0.000 A 
ATOM      6  C   UNL     1       1.607   5.928  20.930  0.00  0.00    +0.000 A 
ENDROOT
BRANCH   4   7
ATOM      7  S   UNL     1       4.157   3.761  18.607  0.00  0.00    +0.000 S 
ATOM      8  O   UNL     1       5.063   3.313  19.646  0.00  0.00    +0.000 OA
ATOM      9  O   UNL     1       3.227   2.848  17.983  0.00  0.00    +0.000 OA
BRANCH   7  10
ATOM     10  N   UNL     1       5.083   4.506  17.368  0.00  0.00    +0.000 NA
ATOM     11  C   UNL     1       6.490   4.819  17.731  0.00  0.00    +0.000 C 
ATOM     12  C   UNL     1       7.182   5.643  16.651  0.00  0.00    +0.000 C 
ATOM     13  C   UNL     1       7.068   4.970  15.291  0.00  0.00    +0.000 C 
ATOM     14  C   UNL     1       5.597   4.785  14.947  0.00  0.00    +0.000 C 
ATOM     15  C   UNL     1       4.885   3.948  16.007  0.00  0.00    +0.000 C 
ENDBRANCH   7  10
ENDBRANCH   4   7
BRANCH   1  16
ATOM     16  C   UNL     1       0.917   8.370  20.890  0.00  0.00    +0.000 C 
ATOM     17  O   UNL     1      -0.136   8.298  21.504  0.00  0.00    +0.000 OA
BRANCH  16  18
ATOM     18  O   UNL     1       1.532   9.517  20.522  0.00  0.00    +0.000 OA
BRANCH  18  19
ATOM     19  C   UNL     1       0.776  10.707  20.766  0.00  0.00    +0.000 C 
BRANCH  19  21
ATOM     20  O   UNL     1       0.600  11.740  18.619  0.00  0.00    +0.000 OA
ATOM     21  C   UNL     1       0.035  11.073  19.484  0.00  0.00    +0.000 C 
ATOM     22  N   UNL     1      -1.256  10.569  19.409  0.00  0.00    +0.000 N 
ATOM     23  H   UNL     1      -1.635  10.135  20.247  0.00  0.00    +0.000 HD
BRANCH  22  24
ATOM     24  C   UNL     1      -2.115  10.648  18.290  0.00  0.00    +0.000 A 
ATOM     25  C   UNL     1      -3.262  11.446  18.264  0.00  0.00    +0.000 A 
ATOM     26  C   UNL     1      -4.073  11.496  17.127  0.00  0.00    +0.000 A 
ATOM     27  C   UNL     1      -3.751  10.741  16.004  0.00  0.00    +0.000 A 
ATOM     28  C   UNL     1      -2.608   9.944  16.016  0.00  0.00    +0.000 A 
ATOM     29  C   UNL     1      -1.785   9.908  17.149  0.00  0.00    +0.000 A 
ENDBRANCH  22  24
ENDBRANCH  19  21
ENDBRANCH  18  19
ENDBRANCH  16  18
ENDBRANCH   1  16
TORSDOF 7
ENDMDL
MODEL 4
REMARK VINA RESULT:      -8.1      0.973      1.387
REMARK  Name = 
REMARK  7 active torsions:
REMARK  status: ('A' for Active; 'I' for Inactive)
REMARK    1  A    between atoms: C_2  and  C_3
REMARK    2  A    between atoms: C_3  and  O_4
REMARK    3  A    between atoms: O_4  and  C_5
REMARK    4  A    between atoms: C_5  and  C_7
REMARK    5  A    between atoms: C_10  and  S_11
REMARK    6  A    between atoms: S_11  and  N_14
REMARK    7  A    between atoms: N_22  and  C_23
REMARK                            x       y       z     vdW  Elec       q    Type
REMARK                         _______ _______ _______ _____ _____    ______ ____
ROOT
ATOM      1  C   UNL     1       1.563   7.834  20.117  0.00  0.00    +0.000 A 
ATOM      2  C   UNL     1       1.646   6.610  20.796  0.00  0.00    +0.000 A 
ATOM      3  C   UNL     1       2.316   5.527  20.220  0.00  0.00    +0.000 A 
ATOM      4  C   UNL     1       2.892   5.659  18.951  0.00  0.00    +0.000 A 
ATOM      5  C   UNL     1       2.853   6.888  18.285  0.00  0.00    +0.000 A 
ATOM      6  C   UNL     1       2.183   7.972  18.864  0.00  0.00    +0.000 A 
ENDROOT
BRANCH   4   7
ATOM      7  S   UNL     1       3.775   4.276  18.234  0.00  0.00    +0.000 S 
ATOM      8  O   UNL     1       3.755   3.206  19.211  0.00  0.00    +0.000 OA
ATOM      9  O   UNL     1       3.247   4.082  16.904  0.00  0.00    +0.000 OA
BRANCH   7  10
ATOM     10  N   UNL     1       5.390   4.842  18.088  0.00  0.00    +0.000 NA
ATOM     11  C   UNL     1       5.671   5.644  16.868  0.00  0.00    +0.000 C 
ATOM     12  C   UNL     1       7.158   5.946  16.721  0.00  0.00    +0.000 C 
ATOM     13  C   UNL     1       7.714   6.590  17.982  0.00  0.00    +0.000 C 
ATOM     14  C   UNL     1       7.483   5.659  19.163  0.00  0.00    +0.000 C 
ATOM     15  C   UNL     1       5.998   5.355  19.341  0.00  0.00    +0.000 C 
ENDBRANCH   7  10
ENDBRANCH   4   7
BRANCH   1  16
ATOM     16  C   UNL     1       0.746   8.918  20.731  0.00  0.00    +0.000 C 
ATOM     17  O   UNL     1      -0.210   8.721  21.464  0.00  0.00    +0.000 OA
BRANCH  16  18
ATOM     18  O   UNL     1       1.137  10.125  20.261  0.00  0.00    +0.000 OA
BRANCH  18  19
ATOM     19  C   UNL     1       0.280  11.213  20.617  0.00  0.00    +0.000 C 
BRANCH  19  21
ATOM     20  O   UNL     1      -0.393  12.654  18.835  0.00  0.00    +0.000 OA
ATOM     21  C   UNL     1      -0.564  11.574  19.399  0.00  0.00    +0.000 C 
ATOM     22  N   UNL     1      -1.463  10.589  19.016  0.00  0.00    +0.000 N 
ATOM     23  H   UNL     1      -1.580   9.797  19.643  0.00  0.00    +0.000 HD
BRANCH  22  24
ATOM     24  C   UNL     1      -2.272  10.607  17.857  0.00  0.00    +0.000 A 
ATOM     25  C   UNL     1      -1.988   9.849  16.717  0.00  0.00    +0.000 A 
ATOM     26  C   UNL     1      -2.828   9.895  15.600  0.00  0.00    +0.000 A 
ATOM     27  C   UNL     1      -3.957  10.707  15.608  0.00  0.00    +0.000 A 
ATOM     28  C   UNL     1      -4.253  11.464  16.739  0.00  0.00    +0.000 A 
ATOM     29  C   UNL     1      -3.422  11.404  17.865  0.00  0.00    +0.000 A 
ENDBRANCH  22  24
ENDBRANCH  19  21
ENDBRANCH  18  19
ENDBRANCH  16  18
ENDBRANCH   1  16
TORSDOF 7
ENDMDL
MODEL 5
REMARK VINA RESULT:      -8.0      2.303      8.268
REMARK  Name = 
REMARK  7 active torsions:
REMARK  status: ('A' for Active; 'I' for Inactive)
REMARK    1  A    between atoms: C_2  and  C_3
REMARK    2  A    between atoms: C_3  and  O_4
REMARK    3  A    between atoms: O_4  and  C_5
REMARK    4  A    between atoms: C_5  and  C_7
REMARK    5  A    between atoms: C_10  and  S_11
REMARK    6  A    between atoms: S_11  and  N_14
REMARK    7  A    between atoms: N_22  and  C_23
REMARK                            x       y       z     vdW  Elec       q    Type
REMARK                         _______ _______ _______ _____ _____    ______ ____
ROOT
ATOM      1  C   UNL     1       1.644   6.751  20.472  0.00  0.00    +0.000 A 
ATOM      2  C   UNL     1       2.155   7.279  19.278  0.00  0.00    +0.000 A 
ATOM      3  C   UNL     1       1.900   8.607  18.927  0.00  0.00    +0.000 A 
ATOM      4  C   UNL     1       1.115   9.410  19.763  0.00  0.00    +0.000 A 
ATOM      5  C   UNL     1       0.637   8.906  20.977  0.00  0.00    +0.000 A 
ATOM      6  C   UNL     1       0.895   7.576  21.327  0.00  0.00    +0.000 A 
ENDROOT
BRANCH   4   7
ATOM      7  S   UNL     1       0.820  11.120  19.321  0.00  0.00    +0.000 S 
ATOM      8  O   UNL     1       0.657  11.857  20.558  0.00  0.00    +0.000 OA
ATOM      9  O   UNL     1       1.834  11.489  18.360  0.00  0.00    +0.000 OA
BRANCH   7  10
ATOM     10  N   UNL     1      -0.694  11.086  18.510  0.00  0.00    +0.000 NA
ATOM     11  C   UNL     1      -0.943   9.875  17.686  0.00  0.00    +0.000 C 
ATOM     12  C   UNL     1      -2.216  10.008  16.857  0.00  0.00    +0.000 C 
ATOM     13  C   UNL     1      -3.405  10.370  17.733  0.00  0.00    +0.000 C 
ATOM     14  C   UNL     1      -3.113  11.677  18.457  0.00  0.00    +0.000 C 
ATOM     15  C   UNL     1      -1.851  11.563  19.308  0.00  0.00    +0.000 C 
ENDBRANCH   7  10
ENDBRANCH   4   7
BRANCH   1  16
ATOM     16  C   UNL     1       1.856   5.301  20.741  0.00  0.00    +0.000 C 
ATOM     17  O   UNL     1       2.876   4.839  21.230  0.00  0.00    +0.000 OA
BRANCH  16  18
ATOM     18  O   UNL     1       0.822   4.576  20.257  0.00  0.00    +0.000 OA
BRANCH  18  19
ATOM     19  C   UNL     1       1.201   3.405  19.528  0.00  0.00    +0.000 C 
BRANCH  19  21
ATOM     20  O   UNL     1       1.169   4.111  17.246  0.00  0.00    +0.000 OA
ATOM     21  C   UNL     1       1.863   3.846  18.226  0.00  0.00    +0.000 C 
ATOM     22  N   UNL     1       3.246   3.933  18.291  0.00  0.00    +0.000 N 
ATOM     23  H   UNL     1       3.696   3.571  19.129  0.00  0.00    +0.000 HD
BRANCH  22  24
ATOM     24  C   UNL     1       4.096   4.433  17.279  0.00  0.00    +0.000 A 
ATOM     25  C   UNL     1       4.763   3.610  16.367  0.00  0.00    +0.000 A 
ATOM     26  C   UNL     1       5.585   4.157  15.378  0.00  0.00    +0.000 A 
ATOM     27  C   UNL     1       5.756   5.534  15.294  0.00  0.00    +0.000 A 
ATOM     28  C   UNL     1       5.094   6.366  16.194  0.00  0.00    +0.000 A 
ATOM     29  C   UNL     1       4.256   5.820  17.174  0.00  0.00    +0.000 A 
ENDBRANCH  22  24
ENDBRANCH  19  21
ENDBRANCH  18  19
ENDBRANCH  16  18
ENDBRANCH   1  16
TORSDOF 7
ENDMDL
MODEL 6
REMARK VINA RESULT:      -8.0      3.835      5.754
REMARK  Name = 
REMARK  7 active torsions:
REMARK  status: ('A' for Active; 'I' for Inactive)
REMARK    1  A    between atoms: C_2  and  C_3
REMARK    2  A    between atoms: C_3  and  O_4
REMARK    3  A    between atoms: O_4  and  C_5
REMARK    4  A    between atoms: C_5  and  C_7
REMARK    5  A    between atoms: C_10  and  S_11
REMARK    6  A    between atoms: S_11  and  N_14
REMARK    7  A    between atoms: N_22  and  C_23
REMARK                            x       y       z     vdW  Elec       q    Type
REMARK                         _______ _______ _______ _____ _____    ______ ____
ROOT
ATOM      1  C   UNL     1       3.858   3.153  18.759  0.00  0.00    +0.000 A 
ATOM      2  C   UNL     1       3.336   3.421  17.486  0.00  0.00    +0.000 A 
ATOM      3  C   UNL     1       4.030   4.250  16.599  0.00  0.00    +0.000 A 
ATOM      4  C   UNL     1       5.243   4.828  16.989  0.00  0.00    +0.000 A 
ATOM      5  C   UNL     1       5.793   4.531  18.240  0.00  0.00    +0.000 A 
ATOM      6  C   UNL     1       5.097   3.701  19.127  0.00  0.00    +0.000 A 
ENDROOT
BRANCH   4   7
ATOM      7  S   UNL     1       6.140   5.862  15.835  0.00  0.00    +0.000 S 
ATOM      8  O   UNL     1       5.232   6.907  15.406  0.00  0.00    +0.000 OA
ATOM      9  O   UNL     1       7.407   6.180  16.451  0.00  0.00    +0.000 OA
BRANCH   7  10
ATOM     10  N   UNL     1       6.443   4.829  14.498  0.00  0.00    +0.000 NA
ATOM     11  C   UNL     1       5.233   4.265  13.846  0.00  0.00    +0.000 C 
ATOM     12  C   UNL     1       5.591   3.219  12.796  0.00  0.00    +0.000 C 
ATOM     13  C   UNL     1       6.590   3.772  11.790  0.00  0.00    +0.000 C 
ATOM     14  C   UNL     1       7.842   4.226  12.527  0.00  0.00    +0.000 C 
ATOM     15  C   UNL     1       7.510   5.287  13.572  0.00  0.00    +0.000 C 
ENDBRANCH   7  10
ENDBRANCH   4   7
BRANCH   1  16
ATOM     16  C   UNL     1       3.025   2.353  19.700  0.00  0.00    +0.000 C 
ATOM     17  O   UNL     1       2.166   1.559  19.347  0.00  0.00    +0.000 OA
BRANCH  16  18
ATOM     18  O   UNL     1       3.270   2.724  20.977  0.00  0.00    +0.000 OA
BRANCH  18  19
ATOM     19  C   UNL     1       2.178   3.375  21.632  0.00  0.00    +0.000 C 
BRANCH  19  21
ATOM     20  O   UNL     1       0.576   4.334  20.141  0.00  0.00    +0.000 OA
ATOM     21  C   UNL     1       1.657   4.475  20.713  0.00  0.00    +0.000 C 
ATOM     22  N   UNL     1       2.482   5.587  20.631  0.00  0.00    +0.000 N 
ATOM     23  H   UNL     1       3.400   5.518  21.062  0.00  0.00    +0.000 HD
BRANCH  22  24
ATOM     24  C   UNL     1       2.186   6.794  19.958  0.00  0.00    +0.000 A 
ATOM     25  C   UNL     1       2.516   7.021  18.618  0.00  0.00    +0.000 A 
ATOM     26  C   UNL     1       2.191   8.230  17.996  0.00  0.00    +0.000 A 
ATOM     27  C   UNL     1       1.539   9.230  18.709  0.00  0.00    +0.000 A 
ATOM     28  C   UNL     1       1.201   9.014  20.044  0.00  0.00    +0.000 A 
ATOM     29  C   UNL     1       1.510   7.797  20.662  0.00  0.00    +0.000 A 
ENDBRANCH  22  24
ENDBRANCH  19  21
ENDBRANCH  18  19
ENDBRANCH  16  18
ENDBRANCH   1  16
TORSDOF 7
ENDMDL
MODEL 7
REMARK VINA RESULT:      -8.0      0.681      1.733
REMARK  Name = 
REMARK  7 active torsions:
REMARK  status: ('A' for Active; 'I' for Inactive)
REMARK    1  A    between atoms: C_2  and  C_3
REMARK    2  A    between atoms: C_3  and  O_4
REMARK    3  A    between atoms: O_4  and  C_5
REMARK    4  A    between atoms: C_5  and  C_7
REMARK    5  A    between atoms: C_10  and  S_11
REMARK    6  A    between atoms: S_11  and  N_14
REMARK    7  A    between atoms: N_22  and  C_23
REMARK                            x       y       z     vdW  Elec       q    Type
REMARK                         _______ _______ _______ _____ _____    ______ ____
ROOT
ATOM      1  C   UNL     1       1.576   7.611  20.250  0.00  0.00    +0.000 A 
ATOM      2  C   UNL     1       2.180   7.732  18.990  0.00  0.00    +0.000 A 
ATOM      3  C   UNL     1       2.823   6.636  18.408  0.00  0.00    +0.000 A 
ATOM      4  C   UNL     1       2.878   5.416  19.092  0.00  0.00    +0.000 A 
ATOM      5  C   UNL     1       2.240   5.273  20.328  0.00  0.00    +0.000 A 
ATOM      6  C   UNL     1       1.597   6.372  20.910  0.00  0.00    +0.000 A 
ENDROOT
BRANCH   4   7
ATOM      7  S   UNL     1       3.675   4.008  18.324  0.00  0.00    +0.000 S 
ATOM      8  O   UNL     1       4.324   3.259  19.381  0.00  0.00    +0.000 OA
ATOM      9  O   UNL     1       2.697   3.388  17.461  0.00  0.00    +0.000 OA
BRANCH   7  10
ATOM     10  N   UNL     1       4.891   4.707  17.333  0.00  0.00    +0.000 NA
ATOM     11  C   UNL     1       6.222   4.860  17.977  0.00  0.00    +0.000 C 
ATOM     12  C   UNL     1       7.186   5.653  17.101  0.00  0.00    +0.000 C 
ATOM     13  C   UNL     1       7.280   5.053  15.707  0.00  0.00    +0.000 C 
ATOM     14  C   UNL     1       5.895   5.033  15.077  0.00  0.00    +0.000 C 
ATOM     15  C   UNL     1       4.915   4.229  15.927  0.00  0.00    +0.000 C 
ENDBRANCH   7  10
ENDBRANCH   4   7
BRANCH   1  16
ATOM     16  C   UNL     1       1.001   8.838  20.868  0.00  0.00    +0.000 C 
ATOM     17  O   UNL     1       0.157   8.828  21.751  0.00  0.00    +0.000 OA
BRANCH  16  18
ATOM     18  O   UNL     1       1.452   9.942  20.230  0.00  0.00    +0.000 OA
BRANCH  18  19
ATOM     19  C   UNL     1       0.738  11.144  20.533  0.00  0.00    +0.000 C 
BRANCH  19  21
ATOM     20  O   UNL     1       0.158  12.450  18.619  0.00  0.00    +0.000 OA
ATOM     21  C   UNL     1      -0.138  11.494  19.334  0.00  0.00    +0.000 C 
ATOM     22  N   UNL     1      -1.216  10.641  19.148  0.00  0.00    +0.000 N 
ATOM     23  H   UNL     1      -1.406   9.964  19.883  0.00  0.00    +0.000 HD
BRANCH  22  24
ATOM     24  C   UNL     1      -2.109  10.657  18.053  0.00  0.00    +0.000 A 
ATOM     25  C   UNL     1      -1.930   9.870  16.911  0.00  0.00    +0.000 A 
ATOM     26  C   UNL     1      -2.849   9.915  15.859  0.00  0.00    +0.000 A 
ATOM     27  C   UNL     1      -3.955  10.755  15.933  0.00  0.00    +0.000 A 
ATOM     28  C   UNL     1      -4.147  11.541  17.067  0.00  0.00    +0.000 A 
ATOM     29  C   UNL     1      -3.236  11.482  18.129  0.00  0.00    +0.000 A 
ENDBRANCH  22  24
ENDBRANCH  19  21
ENDBRANCH  18  19
ENDBRANCH  16  18
ENDBRANCH   1  16
TORSDOF 7
ENDMDL
MODEL 8
REMARK VINA RESULT:      -7.9      2.233      8.444
REMARK  Name = 
REMARK  7 active torsions:
REMARK  status: ('A' for Active; 'I' for Inactive)
REMARK    1  A    between atoms: C_2  and  C_3
REMARK    2  A    between atoms: C_3  and  O_4
REMARK    3  A    between atoms: O_4  and  C_5
REMARK    4  A    between atoms: C_5  and  C_7
REMARK    5  A    between atoms: C_10  and  S_11
REMARK    6  A    between atoms: S_11  and  N_14
REMARK    7  A    between atoms: N_22  and  C_23
REMARK                            x       y       z     vdW  Elec       q    Type
REMARK                         _______ _______ _______ _____ _____    ______ ____
ROOT
ATOM      1  C   UNL     1       1.678   6.459  20.556  0.00  0.00    +0.000 A 
ATOM      2  C   UNL     1       2.182   7.048  19.387  0.00  0.00    +0.000 A 
ATOM      3  C   UNL     1       1.899   8.384  19.092  0.00  0.00    +0.000 A 
ATOM      4  C   UNL     1       1.095   9.134  19.957  0.00  0.00    +0.000 A 
ATOM      5  C   UNL     1       0.624   8.569  21.147  0.00  0.00    +0.000 A 
ATOM      6  C   UNL     1       0.909   7.231  21.441  0.00  0.00    +0.000 A 
ENDROOT
BRANCH   4   7
ATOM      7  S   UNL     1       0.764  10.855  19.587  0.00  0.00    +0.000 S 
ATOM      8  O   UNL     1       0.865  11.585  20.834  0.00  0.00    +0.000 OA
ATOM      9  O   UNL     1       1.581  11.206  18.448  0.00  0.00    +0.000 OA
BRANCH   7  10
ATOM     10  N   UNL     1      -0.878  10.866  19.087  0.00  0.00    +0.000 NA
ATOM     11  C   UNL     1      -1.585  12.161  19.263  0.00  0.00    +0.000 C 
ATOM     12  C   UNL     1      -3.076  12.036  18.974  0.00  0.00    +0.000 C 
ATOM     13  C   UNL     1      -3.319  11.423  17.604  0.00  0.00    +0.000 C 
ATOM     14  C   UNL     1      -2.657  10.054  17.544  0.00  0.00    +0.000 C 
ATOM     15  C   UNL     1      -1.158  10.156  17.813  0.00  0.00    +0.000 C 
ENDBRANCH   7  10
ENDBRANCH   4   7
BRANCH   1  16
ATOM     16  C   UNL     1       1.921   5.004  20.764  0.00  0.00    +0.000 C 
ATOM     17  O   UNL     1       2.896   4.550  21.342  0.00  0.00    +0.000 OA
BRANCH  16  18
ATOM     18  O   UNL     1       0.982   4.273  20.120  0.00  0.00    +0.000 OA
BRANCH  18  19
ATOM     19  C   UNL     1       1.486   3.132  19.421  0.00  0.00    +0.000 C 
BRANCH  19  21
ATOM     20  O   UNL     1       1.385   3.832  17.139  0.00  0.00    +0.000 OA
ATOM     21  C   UNL     1       2.105   3.610  18.111  0.00  0.00    +0.000 C 
ATOM     22  N   UNL     1       3.481   3.779  18.160  0.00  0.00    +0.000 N 
ATOM     23  H   UNL     1       3.962   3.445  18.992  0.00  0.00    +0.000 HD
BRANCH  22  24
ATOM     24  C   UNL     1       4.288   4.327  17.137  0.00  0.00    +0.000 A 
ATOM     25  C   UNL     1       4.982   3.544  16.211  0.00  0.00    +0.000 A 
ATOM     26  C   UNL     1       5.759   4.136  15.211  0.00  0.00    +0.000 A 
ATOM     27  C   UNL     1       5.857   5.521  15.132  0.00  0.00    +0.000 A 
ATOM     28  C   UNL     1       5.167   6.314  16.047  0.00  0.00    +0.000 A 
ATOM     29  C   UNL     1       4.374   5.720  17.037  0.00  0.00    +0.000 A 
ENDBRANCH  22  24
ENDBRANCH  19  21
ENDBRANCH  18  19
ENDBRANCH  16  18
ENDBRANCH   1  16
TORSDOF 7
ENDMDL
MODEL 9
REMARK VINA RESULT:      -7.9      2.639      9.228
REMARK  Name = 
REMARK  7 active torsions:
REMARK  status: ('A' for Active; 'I' for Inactive)
REMARK    1  A    between atoms: C_2  and  C_3
REMARK    2  A    between atoms: C_3  and  O_4
REMARK    3  A    between atoms: O_4  and  C_5
REMARK    4  A    between atoms: C_5  and  C_7
REMARK    5  A    between atoms: C_10  and  S_11
REMARK    6  A    between atoms: S_11  and  N_14
REMARK    7  A    between atoms: N_22  and  C_23
REMARK                            x       y       z     vdW  Elec       q    Type
REMARK                         _______ _______ _______ _____ _____    ______ ____
ROOT
ATOM      1  C   UNL     1       2.600   7.190  18.766  0.00  0.00    +0.000 A 
ATOM      2  C   UNL     1       2.645   8.129  17.725  0.00  0.00    +0.000 A 
ATOM      3  C   UNL     1       2.014   9.369  17.866  0.00  0.00    +0.000 A 
ATOM      4  C   UNL     1       1.320   9.668  19.043  0.00  0.00    +0.000 A 
ATOM      5  C   UNL     1       1.306   8.755  20.104  0.00  0.00    +0.000 A 
ATOM      6  C   UNL     1       1.940   7.515  19.961  0.00  0.00    +0.000 A 
ENDROOT
BRANCH   4   7
ATOM      7  S   UNL     1       0.541  11.270  19.227  0.00  0.00    +0.000 S 
ATOM      8  O   UNL     1       0.257  11.445  20.636  0.00  0.00    +0.000 OA
ATOM      9  O   UNL     1       1.356  12.220  18.506  0.00  0.00    +0.000 OA
BRANCH   7  10
ATOM     10  N   UNL     1      -0.950  11.108  18.392  0.00  0.00    +0.000 NA
ATOM     11  C   UNL     1      -1.110   9.847  17.621  0.00  0.00    +0.000 C 
ATOM     12  C   UNL     1      -2.371   9.864  16.764  0.00  0.00    +0.000 C 
ATOM     13  C   UNL     1      -3.598  10.195  17.601  0.00  0.00    +0.000 C 
ATOM     14  C   UNL     1      -3.398  11.548  18.267  0.00  0.00    +0.000 C 
ATOM     15  C   UNL     1      -2.150  11.550  19.145  0.00  0.00    +0.000 C 
ENDBRANCH   7  10
ENDBRANCH   4   7
BRANCH   1  16
ATOM     16  C   UNL     1       3.197   5.848  18.519  0.00  0.00    +0.000 C 
ATOM     17  O   UNL     1       2.822   4.822  19.067  0.00  0.00    +0.000 OA
BRANCH  16  18
ATOM     18  O   UNL     1       4.276   5.954  17.711  0.00  0.00    +0.000 OA
BRANCH  18  19
ATOM     19  C   UNL     1       5.409   5.182  18.120  0.00  0.00    +0.000 C 
BRANCH  19  21
ATOM     20  O   UNL     1       7.483   4.691  17.041  0.00  0.00    +0.000 OA
ATOM     21  C   UNL     1       6.286   4.936  16.897  0.00  0.00    +0.000 C 
ATOM     22  N   UNL     1       5.607   4.991  15.688  0.00  0.00    +0.000 N 
ATOM     23  H   UNL     1       4.644   5.321  15.710  0.00  0.00    +0.000 HD
BRANCH  22  24
ATOM     24  C   UNL     1       6.143   4.680  14.418  0.00  0.00    +0.000 A 
ATOM     25  C   UNL     1       7.310   5.265  13.919  0.00  0.00    +0.000 A 
ATOM     26  C   UNL     1       7.804   4.914  12.659  0.00  0.00    +0.000 A 
ATOM     27  C   UNL     1       7.131   3.979  11.880  0.00  0.00    +0.000 A 
ATOM     28  C   UNL     1       5.968   3.386  12.368  0.00  0.00    +0.000 A 
ATOM     29  C   UNL     1       5.483   3.724  13.637  0.00  0.00    +0.000 A 
ENDBRANCH  22  24
ENDBRANCH  19  21
ENDBRANCH  18  19
ENDBRANCH  16  18
ENDBRANCH   1  16
TORSDOF 7
ENDMDL
