MODEL 1
REMARK VINA RESULT:      -7.2      0.000      0.000
REMARK  Name = 
REMARK  14 active torsions:
REMARK  status: ('A' for Active; 'I' for Inactive)
REMARK    1  A    between atoms: C_1  and  O_2
REMARK    2  A    between atoms: O_2  and  C_3
REMARK    3  A    between atoms: C_3  and  C_5
REMARK    4  A    between atoms: C_5  and  N_6
REMARK    5  A    between atoms: C_11  and  N_12
REMARK    6  A    between atoms: C_13  and  C_15
REMARK    7  A    between atoms: C_15  and  C_16
REMARK    8  A    between atoms: C_15  and  C_20
REMARK    9  A    between atoms: C_16  and  C_17
REMARK   10  A    between atoms: C_17  and  C_18
REMARK   11  A    between atoms: C_17  and  C_19
REMARK   12  A    between atoms: C_20  and  C_21
REMARK   13  A    between atoms: C_20  and  C_22
REMARK   14  A    between atoms: N_24  and  O_25
REMARK                            x       y       z     vdW  Elec       q    Type
REMARK                         _______ _______ _______ _____ _____    ______ ____
ROOT
ATOM      1  N   UNL     1       2.380   7.279  18.919  0.00  0.00    +0.000 N 
ATOM      2  C   UNL     1       1.688   7.652  20.044  0.00  0.00    +0.000 C 
ATOM      3  O   UNL     1       1.488   6.889  20.987  0.00  0.00    +0.000 OA
ATOM      4  H   UNL     1       2.776   7.994  18.323  0.00  0.00    +0.000 HD
ENDROOT
BRANCH   1  10
ATOM      5  N   UNL     1       5.098   4.838  18.227  0.00  0.00    +0.000 N 
ATOM      6  C   UNL     1       4.602   3.587  18.791  0.00  0.00    +0.000 C 
ATOM      7  C   UNL     1       3.520   2.979  17.901  0.00  0.00    +0.000 C 
ATOM      8  C   UNL     1       2.135   3.598  18.098  0.00  0.00    +0.000 C 
ATOM      9  C   UNL     1       2.043   5.104  17.845  0.00  0.00    +0.000 C 
ATOM     10  C   UNL     1       2.927   5.933  18.781  0.00  0.00    +0.000 C 
ATOM     11  C   UNL     1       4.368   6.017  18.226  0.00  0.00    +0.000 C 
ATOM     12  O   UNL     1       4.813   7.062  17.747  0.00  0.00    +0.000 OA
BRANCH   5  13
ATOM     13  C   UNL     1       6.457   4.847  17.669  0.00  0.00    +0.000 C 
BRANCH  13  14
ATOM     14  C   UNL     1       6.562   4.934  16.147  0.00  0.00    +0.000 C 
ATOM     15  O   UNL     1       6.999   5.924  15.569  0.00  0.00    +0.000 OA
BRANCH  14  17
ATOM     16  C   UNL     1       6.158   3.878  14.094  0.00  0.00    +0.000 C 
ATOM     17  O   UNL     1       6.111   3.813  15.521  0.00  0.00    +0.000 OA
ENDBRANCH  14  17
ENDBRANCH  13  14
ENDBRANCH   5  13
ENDBRANCH   1  10
BRANCH   2  18
ATOM     18  C   UNL     1       1.152   9.088  20.042  0.00  0.00    +0.000 C 
BRANCH  18  19
ATOM     19  C   UNL     1       0.737   9.403  18.570  0.00  0.00    +0.000 C 
ATOM     20  C   UNL     1      -0.577  10.173  18.428  0.00  0.00    +0.000 C 
BRANCH  19  21
ATOM     21  C   UNL     1       1.829  10.222  17.878  0.00  0.00    +0.000 C 
ATOM     22  O   UNL     1       2.784   9.728  17.288  0.00  0.00    +0.000 OA
ATOM     23  N   UNL     1       1.691  11.581  18.020  0.00  0.00    +0.000 N 
ATOM     24  H   UNL     1       0.983  12.049  18.575  0.00  0.00    +0.000 HD
BRANCH  23  25
ATOM     25  O   UNL     1       2.700  12.386  17.445  0.00  0.00    +0.000 OA
ATOM     26  H   UNL     1       3.302  12.537  18.206  0.00  0.00    +0.000 HD
ENDBRANCH  23  25
ENDBRANCH  19  21
ENDBRANCH  18  19
BRANCH  18  27
ATOM     27  C   UNL     1      -0.040   9.210  21.015  0.00  0.00    +0.000 C 
BRANCH  27  28
ATOM     28  C   UNL     1       0.079  10.234  22.165  0.00  0.00    +0.000 C 
ATOM     29  C   UNL     1      -0.986  11.331  22.114  0.00  0.00    +0.000 C 
ATOM     30  C   UNL     1      -0.026   9.502  23.510  0.00  0.00    +0.000 C 
ENDBRANCH  27  28
ENDBRANCH  18  27
ENDBRANCH   2  18
TORSDOF 10
ENDMDL
MODEL 2
REMARK VINA RESULT:      -7.2      2.187      8.324
REMARK  Name = 
REMARK  14 active torsions:
REMARK  status: ('A' for Active; 'I' for Inactive)
REMARK    1  A    between atoms: C_1  and  O_2
REMARK    2  A    between atoms: O_2  and  C_3
REMARK    3  A    between atoms: C_3  and  C_5
REMARK    4  A    between atoms: C_5  and  N_6
REMARK    5  A    between atoms: C_11  and  N_12
REMARK    6  A    between atoms: C_13  and  C_15
REMARK    7  A    between atoms: C_15  and  C_16
REMARK    8  A    between atoms: C_15  and  C_20
REMARK    9  A    between atoms: C_16  and  C_17
REMARK   10  A    between atoms: C_17  and  C_18
REMARK   11  A    between atoms: C_17  and  C_19
REMARK   12  A    between atoms: C_20  and  C_21
REMARK   13  A    between atoms: C_20  and  C_22
REMARK   14  A    between atoms: N_24  and  O_25
REMARK                            x       y       z     vdW  Elec       q    Type
REMARK                         _______ _______ _______ _____ _____    ______ ____
ROOT
ATOM      1  N   UNL     1       2.840   6.368  18.863  0.00  0.00    +0.000 N 
ATOM      2  C   UNL     1       3.993   6.194  18.139  0.00  0.00    +0.000 C 
ATOM      3  O   UNL     1       4.653   7.133  17.701  0.00  0.00    +0.000 OA
ATOM      4  H   UNL     1       2.505   5.614  19.447  0.00  0.00    +0.000 HD
ENDROOT
BRANCH   1  10
ATOM      5  N   UNL     1       0.865   8.822  20.839  0.00  0.00    +0.000 N 
ATOM      6  C   UNL     1       1.401  10.117  20.431  0.00  0.00    +0.000 C 
ATOM      7  C   UNL     1       0.906  10.497  19.038  0.00  0.00    +0.000 C 
ATOM      8  C   UNL     1       1.686   9.836  17.901  0.00  0.00    +0.000 C 
ATOM      9  C   UNL     1       1.689   8.306  17.905  0.00  0.00    +0.000 C 
ATOM     10  C   UNL     1       2.329   7.703  19.159  0.00  0.00    +0.000 C 
ATOM     11  C   UNL     1       1.294   7.616  20.304  0.00  0.00    +0.000 C 
ATOM     12  O   UNL     1       0.827   6.535  20.669  0.00  0.00    +0.000 OA
BRANCH   5  13
ATOM     13  C   UNL     1      -0.153   8.804  21.897  0.00  0.00    +0.000 C 
BRANCH  13  14
ATOM     14  C   UNL     1       0.151   9.638  23.141  0.00  0.00    +0.000 C 
ATOM     15  O   UNL     1       1.210   9.551  23.755  0.00  0.00    +0.000 OA
BRANCH  14  17
ATOM     16  C   UNL     1      -1.208  11.438  22.503  0.00  0.00    +0.000 C 
ATOM     17  O   UNL     1      -0.876  10.459  23.491  0.00  0.00    +0.000 OA
ENDBRANCH  14  17
ENDBRANCH  13  14
ENDBRANCH   5  13
ENDBRANCH   1  10
BRANCH   2  18
ATOM     18  C   UNL     1       4.397   4.737  17.886  0.00  0.00    +0.000 C 
BRANCH  18  19
ATOM     19  C   UNL     1       3.164   3.861  18.274  0.00  0.00    +0.000 C 
ATOM     20  C   UNL     1       2.514   3.120  17.105  0.00  0.00    +0.000 C 
BRANCH  19  21
ATOM     21  C   UNL     1       3.569   2.815  19.316  0.00  0.00    +0.000 C 
ATOM     22  O   UNL     1       2.776   2.260  20.070  0.00  0.00    +0.000 OA
ATOM     23  N   UNL     1       4.920   2.583  19.387  0.00  0.00    +0.000 N 
ATOM     24  H   UNL     1       5.634   3.077  18.864  0.00  0.00    +0.000 HD
BRANCH  23  25
ATOM     25  O   UNL     1       5.356   1.663  20.367  0.00  0.00    +0.000 OA
ATOM     26  H   UNL     1       5.102   0.802  19.968  0.00  0.00    +0.000 HD
ENDBRANCH  23  25
ENDBRANCH  19  21
ENDBRANCH  18  19
BRANCH  18  27
ATOM     27  C   UNL     1       4.794   4.547  16.406  0.00  0.00    +0.000 C 
BRANCH  27  28
ATOM     28  C   UNL     1       6.206   3.990  16.112  0.00  0.00    +0.000 C 
ATOM     29  C   UNL     1       6.653   4.205  14.665  0.00  0.00    +0.000 C 
ATOM     30  C   UNL     1       7.221   4.659  17.050  0.00  0.00    +0.000 C 
ENDBRANCH  27  28
ENDBRANCH  18  27
ENDBRANCH   2  18
TORSDOF 10
ENDMDL
MODEL 3
REMARK VINA RESULT:      -7.1      0.951      1.007
REMARK  Name = 
REMARK  14 active torsions:
REMARK  status: ('A' for Active; 'I' for Inactive)
REMARK    1  A    between atoms: C_1  and  O_2
REMARK    2  A    between atoms: O_2  and  C_3
REMARK    3  A    between atoms: C_3  and  C_5
REMARK    4  A    between atoms: C_5  and  N_6
REMARK    5  A    between atoms: C_11  and  N_12
REMARK    6  A    between atoms: C_13  and  C_15
REMARK    7  A    between atoms: C_15  and  C_16
REMARK    8  A    between atoms: C_15  and  C_20
REMARK    9  A    between atoms: C_16  and  C_17
REMARK   10  A    between atoms: C_17  and  C_18
REMARK   11  A    between atoms: C_17  and  C_19
REMARK   12  A    between atoms: C_20  and  C_21
REMARK   13  A    between atoms: C_20  and  C_22
REMARK   14  A    between atoms: N_24  and  O_25
REMARK                            x       y       z     vdW  Elec       q    Type
REMARK                         _______ _______ _______ _____ _____    ______ ____
ROOT
ATOM      1  N   UNL     1       2.274   7.109  18.916  0.00  0.00    +0.000 N 
ATOM      2  C   UNL     1       1.679   7.573  20.062  0.00  0.00    +0.000 C 
ATOM      3  O   UNL     1       1.484   6.864  21.046  0.00  0.00    +0.000 OA
ATOM      4  H   UNL     1       2.683   7.770  18.269  0.00  0.00    +0.000 HD
ENDROOT
BRANCH   1  10
ATOM      5  N   UNL     1       4.505   4.411  17.662  0.00  0.00    +0.000 N 
ATOM      6  C   UNL     1       4.255   3.296  18.569  0.00  0.00    +0.000 C 
ATOM      7  C   UNL     1       2.912   2.637  18.265  0.00  0.00    +0.000 C 
ATOM      8  C   UNL     1       1.712   3.372  18.865  0.00  0.00    +0.000 C 
ATOM      9  C   UNL     1       1.538   4.826  18.422  0.00  0.00    +0.000 C 
ATOM     10  C   UNL     1       2.719   5.723  18.805  0.00  0.00    +0.000 C 
ATOM     11  C   UNL     1       3.838   5.624  17.743  0.00  0.00    +0.000 C 
ATOM     12  O   UNL     1       4.071   6.553  16.966  0.00  0.00    +0.000 OA
BRANCH   5  13
ATOM     13  C   UNL     1       5.546   4.243  16.640  0.00  0.00    +0.000 C 
BRANCH  13  14
ATOM     14  C   UNL     1       6.987   4.464  17.099  0.00  0.00    +0.000 C 
ATOM     15  O   UNL     1       7.310   4.482  18.283  0.00  0.00    +0.000 OA
BRANCH  14  17
ATOM     16  C   UNL     1       7.213   4.904  14.808  0.00  0.00    +0.000 C 
ATOM     17  O   UNL     1       7.849   4.651  16.063  0.00  0.00    +0.000 OA
ENDBRANCH  14  17
ENDBRANCH  13  14
ENDBRANCH   5  13
ENDBRANCH   1  10
BRANCH   2  18
ATOM     18  C   UNL     1       1.244   9.042  20.028  0.00  0.00    +0.000 C 
BRANCH  18  19
ATOM     19  C   UNL     1       0.856   9.356  18.549  0.00  0.00    +0.000 C 
ATOM     20  C   UNL     1      -0.476  10.088  18.379  0.00  0.00    +0.000 C 
BRANCH  19  21
ATOM     21  C   UNL     1       1.941  10.212  17.890  0.00  0.00    +0.000 C 
ATOM     22  O   UNL     1       2.955   9.753  17.375  0.00  0.00    +0.000 OA
ATOM     23  N   UNL     1       1.719  11.565  17.972  0.00  0.00    +0.000 N 
ATOM     24  H   UNL     1       0.955  12.010  18.467  0.00  0.00    +0.000 HD
BRANCH  23  25
ATOM     25  O   UNL     1       2.714  12.406  17.425  0.00  0.00    +0.000 OA
ATOM     26  H   UNL     1       2.676  12.176  16.470  0.00  0.00    +0.000 HD
ENDBRANCH  23  25
ENDBRANCH  19  21
ENDBRANCH  18  19
BRANCH  18  27
ATOM     27  C   UNL     1       0.059   9.266  20.993  0.00  0.00    +0.000 C 
BRANCH  27  28
ATOM     28  C   UNL     1       0.230  10.334  22.097  0.00  0.00    +0.000 C 
ATOM     29  C   UNL     1      -0.075  11.755  21.619  0.00  0.00    +0.000 C 
ATOM     30  C   UNL     1      -0.695   9.997  23.275  0.00  0.00    +0.000 C 
ENDBRANCH  27  28
ENDBRANCH  18  27
ENDBRANCH   2  18
TORSDOF 10
ENDMDL
MODEL 4
REMARK VINA RESULT:      -7.0      1.015      1.454
REMARK  Name = 
REMARK  14 active torsions:
REMARK  status: ('A' for Active; 'I' for Inactive)
REMARK    1  A    between atoms: C_1  and  O_2
REMARK    2  A    between atoms: O_2  and  C_3
REMARK    3  A    between atoms: C_3  and  C_5
REMARK    4  A    between atoms: C_5  and  N_6
REMARK    5  A    between atoms: C_11  and  N_12
REMARK    6  A    between atoms: C_13  and  C_15
REMARK    7  A    between atoms: C_15  and  C_16
REMARK    8  A    between atoms: C_15  and  C_20
REMARK    9  A    between atoms: C_16  and  C_17
REMARK   10  A    between atoms: C_17  and  C_18
REMARK   11  A    between atoms: C_17  and  C_19
REMARK   12  A    between atoms: C_20  and  C_21
REMARK   13  A    between atoms: C_20  and  C_22
REMARK   14  A    between atoms: N_24  and  O_25
REMARK                            x       y       z     vdW  Elec       q    Type
REMARK                         _______ _______ _______ _____ _____    ______ ____
ROOT
ATOM      1  N   UNL     1       2.327   7.228  18.706  0.00  0.00    +0.000 N 
ATOM      2  C   UNL     1       1.783   7.618  19.903  0.00  0.00    +0.000 C 
ATOM      3  O   UNL     1       1.622   6.846  20.846  0.00  0.00    +0.000 OA
ATOM      4  H   UNL     1       2.714   7.928  18.087  0.00  0.00    +0.000 HD
ENDROOT
BRANCH   1  10
ATOM      5  N   UNL     1       4.650   4.620  17.427  0.00  0.00    +0.000 N 
ATOM      6  C   UNL     1       4.262   3.415  18.153  0.00  0.00    +0.000 C 
ATOM      7  C   UNL     1       2.957   2.844  17.604  0.00  0.00    +0.000 C 
ATOM      8  C   UNL     1       1.704   3.544  18.131  0.00  0.00    +0.000 C 
ATOM      9  C   UNL     1       1.618   5.046  17.849  0.00  0.00    +0.000 C 
ATOM     10  C   UNL     1       2.756   5.850  18.485  0.00  0.00    +0.000 C 
ATOM     11  C   UNL     1       4.001   5.838  17.569  0.00  0.00    +0.000 C 
ATOM     12  O   UNL     1       4.352   6.843  16.947  0.00  0.00    +0.000 OA
BRANCH   5  13
ATOM     13  C   UNL     1       5.812   4.537  16.533  0.00  0.00    +0.000 C 
BRANCH  13  14
ATOM     14  C   UNL     1       7.093   5.210  17.024  0.00  0.00    +0.000 C 
ATOM     15  O   UNL     1       7.657   6.100  16.395  0.00  0.00    +0.000 OA
BRANCH  14  17
ATOM     16  C   UNL     1       7.747   5.691  19.223  0.00  0.00    +0.000 C 
ATOM     17  O   UNL     1       7.534   4.706  18.208  0.00  0.00    +0.000 OA
ENDBRANCH  14  17
ENDBRANCH  13  14
ENDBRANCH   5  13
ENDBRANCH   1  10
BRANCH   2  18
ATOM     18  C   UNL     1       1.359   9.088  19.985  0.00  0.00    +0.000 C 
BRANCH  18  19
ATOM     19  C   UNL     1       1.122   9.563  18.517  0.00  0.00    +0.000 C 
ATOM     20  C   UNL     1      -0.344   9.797  18.150  0.00  0.00    +0.000 C 
BRANCH  19  21
ATOM     21  C   UNL     1       1.876  10.870  18.258  0.00  0.00    +0.000 C 
ATOM     22  O   UNL     1       2.817  10.973  17.478  0.00  0.00    +0.000 OA
ATOM     23  N   UNL     1       1.451  11.928  19.024  0.00  0.00    +0.000 N 
ATOM     24  H   UNL     1       0.749  11.886  19.753  0.00  0.00    +0.000 HD
BRANCH  23  25
ATOM     25  O   UNL     1       2.147  13.148  18.863  0.00  0.00    +0.000 OA
ATOM     26  H   UNL     1       2.323  13.158  17.897  0.00  0.00    +0.000 HD
ENDBRANCH  23  25
ENDBRANCH  19  21
ENDBRANCH  18  19
BRANCH  18  27
ATOM     27  C   UNL     1       0.084   9.225  20.846  0.00  0.00    +0.000 C 
BRANCH  27  28
ATOM     28  C   UNL     1       0.122  10.226  22.023  0.00  0.00    +0.000 C 
ATOM     29  C   UNL     1      -0.962  11.302  21.939  0.00  0.00    +0.000 C 
ATOM     30  C   UNL     1      -0.038   9.462  23.345  0.00  0.00    +0.000 C 
ENDBRANCH  27  28
ENDBRANCH  18  27
ENDBRANCH   2  18
TORSDOF 10
ENDMDL
MODEL 5
REMARK VINA RESULT:      -6.9      2.437      7.965
REMARK  Name = 
REMARK  14 active torsions:
REMARK  status: ('A' for Active; 'I' for Inactive)
REMARK    1  A    between atoms: C_1  and  O_2
REMARK    2  A    between atoms: O_2  and  C_3
REMARK    3  A    between atoms: C_3  and  C_5
REMARK    4  A    between atoms: C_5  and  N_6
REMARK    5  A    between atoms: C_11  and  N_12
REMARK    6  A    between atoms: C_13  and  C_15
REMARK    7  A    between atoms: C_15  and  C_16
REMARK    8  A    between atoms: C_15  and  C_20
REMARK    9  A    between atoms: C_16  and  C_17
REMARK   10  A    between atoms: C_17  and  C_18
REMARK   11  A    between atoms: C_17  and  C_19
REMARK   12  A    between atoms: C_20  and  C_21
REMARK   13  A    between atoms: C_20  and  C_22
REMARK   14  A    between atoms: N_24  and  O_25
REMARK                            x       y       z     vdW  Elec       q    Type
REMARK                         _______ _______ _______ _____ _____    ______ ____
ROOT
ATOM      1  N   UNL     1       2.250   7.181  19.965  0.00  0.00    +0.000 N 
ATOM      2  C   UNL     1       2.080   5.837  20.180  0.00  0.00    +0.000 C 
ATOM      3  O   UNL     1       1.143   5.379  20.830  0.00  0.00    +0.000 OA
ATOM      4  H   UNL     1       2.834   7.489  19.198  0.00  0.00    +0.000 HD
ENDROOT
BRANCH   1  10
ATOM      5  N   UNL     1       0.028  10.154  19.732  0.00  0.00    +0.000 N 
ATOM      6  C   UNL     1      -0.841  10.037  20.899  0.00  0.00    +0.000 C 
ATOM      7  C   UNL     1      -0.093  10.414  22.175  0.00  0.00    +0.000 C 
ATOM      8  C   UNL     1       0.782   9.291  22.736  0.00  0.00    +0.000 C 
ATOM      9  C   UNL     1       1.866   8.765  21.793  0.00  0.00    +0.000 C 
ATOM     10  C   UNL     1       1.307   8.157  20.503  0.00  0.00    +0.000 C 
ATOM     11  C   UNL     1       1.052   9.261  19.452  0.00  0.00    +0.000 C 
ATOM     12  O   UNL     1       1.770   9.380  18.457  0.00  0.00    +0.000 OA
BRANCH   5  13
ATOM     13  C   UNL     1      -0.230  11.252  18.793  0.00  0.00    +0.000 C 
BRANCH  13  14
ATOM     14  C   UNL     1      -1.592  11.244  18.099  0.00  0.00    +0.000 C 
ATOM     15  O   UNL     1      -2.508  11.990  18.431  0.00  0.00    +0.000 OA
BRANCH  14  17
ATOM     16  C   UNL     1      -3.000   9.873  16.822  0.00  0.00    +0.000 C 
ATOM     17  O   UNL     1      -1.672  10.322  17.102  0.00  0.00    +0.000 OA
ENDBRANCH  14  17
ENDBRANCH  13  14
ENDBRANCH   5  13
ENDBRANCH   1  10
BRANCH   2  18
ATOM     18  C   UNL     1       3.159   4.932  19.575  0.00  0.00    +0.000 C 
BRANCH  18  19
ATOM     19  C   UNL     1       2.516   3.518  19.418  0.00  0.00    +0.000 C 
ATOM     20  C   UNL     1       1.700   3.326  18.139  0.00  0.00    +0.000 C 
BRANCH  19  21
ATOM     21  C   UNL     1       3.602   2.440  19.440  0.00  0.00    +0.000 C 
ATOM     22  O   UNL     1       4.584   2.473  20.174  0.00  0.00    +0.000 OA
ATOM     23  N   UNL     1       3.423   1.440  18.515  0.00  0.00    +0.000 N 
ATOM     24  H   UNL     1       2.690   1.405  17.816  0.00  0.00    +0.000 HD
BRANCH  23  25
ATOM     25  O   UNL     1       4.423   0.444  18.455  0.00  0.00    +0.000 OA
ATOM     26  H   UNL     1       4.328   0.112  17.535  0.00  0.00    +0.000 HD
ENDBRANCH  23  25
ENDBRANCH  19  21
ENDBRANCH  18  19
BRANCH  18  27
ATOM     27  C   UNL     1       3.630   5.503  18.220  0.00  0.00    +0.000 C 
BRANCH  27  28
ATOM     28  C   UNL     1       5.150   5.515  17.939  0.00  0.00    +0.000 C 
ATOM     29  C   UNL     1       6.001   5.355  19.201  0.00  0.00    +0.000 C 
ATOM     30  C   UNL     1       5.494   4.383  16.961  0.00  0.00    +0.000 C 
ENDBRANCH  27  28
ENDBRANCH  18  27
ENDBRANCH   2  18
TORSDOF 10
ENDMDL
MODEL 6
REMARK VINA RESULT:      -6.8      2.581      8.292
REMARK  Name = 
REMARK  14 active torsions:
REMARK  status: ('A' for Active; 'I' for Inactive)
REMARK    1  A    between atoms: C_1  and  O_2
REMARK    2  A    between atoms: O_2  and  C_3
REMARK    3  A    between atoms: C_3  and  C_5
REMARK    4  A    between atoms: C_5  and  N_6
REMARK    5  A    between atoms: C_11  and  N_12
REMARK    6  A    between atoms: C_13  and  C_15
REMARK    7  A    between atoms: C_15  and  C_16
REMARK    8  A    between atoms: C_15  and  C_20
REMARK    9  A    between atoms: C_16  and  C_17
REMARK   10  A    between atoms: C_17  and  C_18
REMARK   11  A    between atoms: C_17  and  C_19
REMARK   12  A    between atoms: C_20  and  C_21
REMARK   13  A    between atoms: C_20  and  C_22
REMARK   14  A    between atoms: N_24  and  O_25
REMARK                            x       y       z     vdW  Elec       q    Type
REMARK                         _______ _______ _______ _____ _____    ______ ____
ROOT
ATOM      1  N   UNL     1       3.418   6.444  19.103  0.00  0.00    +0.000 N 
ATOM      2  C   UNL     1       2.983   5.370  18.367  0.00  0.00    +0.000 C 
ATOM      3  O   UNL     1       1.897   5.351  17.793  0.00  0.00    +0.000 OA
ATOM      4  H   UNL     1       4.405   6.543  19.296  0.00  0.00    +0.000 HD
ENDROOT
BRANCH   1  10
ATOM      5  N   UNL     1       0.871   8.568  20.785  0.00  0.00    +0.000 N 
ATOM      6  C   UNL     1       1.095   9.898  20.225  0.00  0.00    +0.000 C 
ATOM      7  C   UNL     1       0.557   9.986  18.799  0.00  0.00    +0.000 C 
ATOM      8  C   UNL     1       1.499   9.403  17.744  0.00  0.00    +0.000 C 
ATOM      9  C   UNL     1       1.864   7.928  17.929  0.00  0.00    +0.000 C 
ATOM     10  C   UNL     1       2.599   7.644  19.242  0.00  0.00    +0.000 C 
ATOM     11  C   UNL     1       1.586   7.446  20.394  0.00  0.00    +0.000 C 
ATOM     12  O   UNL     1       1.380   6.335  20.885  0.00  0.00    +0.000 OA
BRANCH   5  13
ATOM     13  C   UNL     1      -0.139   8.431  21.842  0.00  0.00    +0.000 C 
BRANCH  13  14
ATOM     14  C   UNL     1      -0.249   9.594  22.828  0.00  0.00    +0.000 C 
ATOM     15  O   UNL     1       0.509   9.725  23.784  0.00  0.00    +0.000 OA
BRANCH  14  17
ATOM     16  C   UNL     1      -1.054  11.792  22.942  0.00  0.00    +0.000 C 
ATOM     17  O   UNL     1      -1.274  10.439  22.535  0.00  0.00    +0.000 OA
ENDBRANCH  14  17
ENDBRANCH  13  14
ENDBRANCH   5  13
ENDBRANCH   1  10
BRANCH   2  18
ATOM     18  C   UNL     1       3.937   4.171  18.326  0.00  0.00    +0.000 C 
BRANCH  18  19
ATOM     19  C   UNL     1       3.125   2.941  18.841  0.00  0.00    +0.000 C 
ATOM     20  C   UNL     1       3.121   1.738  17.896  0.00  0.00    +0.000 C 
BRANCH  19  21
ATOM     21  C   UNL     1       3.680   2.469  20.187  0.00  0.00    +0.000 C 
ATOM     22  O   UNL     1       3.109   2.637  21.259  0.00  0.00    +0.000 OA
ATOM     23  N   UNL     1       4.920   1.882  20.111  0.00  0.00    +0.000 N 
ATOM     24  H   UNL     1       5.486   1.801  19.274  0.00  0.00    +0.000 HD
BRANCH  23  25
ATOM     25  O   UNL     1       5.504   1.472  21.331  0.00  0.00    +0.000 OA
ATOM     26  H   UNL     1       5.158   0.558  21.427  0.00  0.00    +0.000 HD
ENDBRANCH  23  25
ENDBRANCH  19  21
ENDBRANCH  18  19
BRANCH  18  27
ATOM     27  C   UNL     1       4.457   3.956  16.889  0.00  0.00    +0.000 C 
BRANCH  27  28
ATOM     28  C   UNL     1       5.948   4.259  16.616  0.00  0.00    +0.000 C 
ATOM     29  C   UNL     1       6.164   5.343  15.559  0.00  0.00    +0.000 C 
ATOM     30  C   UNL     1       6.623   4.698  17.923  0.00  0.00    +0.000 C 
ENDBRANCH  27  28
ENDBRANCH  18  27
ENDBRANCH   2  18
TORSDOF 10
ENDMDL
MODEL 7
REMARK VINA RESULT:      -6.8      2.594      8.235
REMARK  Name = 
REMARK  14 active torsions:
REMARK  status: ('A' for Active; 'I' for Inactive)
REMARK    1  A    between atoms: C_1  and  O_2
REMARK    2  A    between atoms: O_2  and  C_3
REMARK    3  A    between atoms: C_3  and  C_5
REMARK    4  A    between atoms: C_5  and  N_6
REMARK    5  A    between atoms: C_11  and  N_12
REMARK    6  A    between atoms: C_13  and  C_15
REMARK    7  A    between atoms: C_15  and  C_16
REMARK    8  A    between atoms: C_15  and  C_20
REMARK    9  A    between atoms: C_16  and  C_17
REMARK   10  A    between atoms: C_17  and  C_18
REMARK   11  A    between atoms: C_17  and  C_19
REMARK   12  A    between atoms: C_20  and  C_21
REMARK   13  A    between atoms: C_20  and  C_22
REMARK   14  A    between atoms: N_24  and  O_25
REMARK                            x       y       z     vdW  Elec       q    Type
REMARK                         _______ _______ _______ _____ _____    ______ ____
ROOT
ATOM      1  N   UNL     1       1.886   7.383  19.828  0.00  0.00    +0.000 N 
ATOM      2  C   UNL     1       2.563   6.689  18.856  0.00  0.00    +0.000 C 
ATOM      3  O   UNL     1       3.052   7.232  17.868  0.00  0.00    +0.000 OA
ATOM      4  H   UNL     1       1.771   6.968  20.742  0.00  0.00    +0.000 HD
ENDROOT
BRANCH   1  10
ATOM      5  N   UNL     1       0.262  10.609  20.715  0.00  0.00    +0.000 N 
ATOM      6  C   UNL     1       1.217  11.619  20.270  0.00  0.00    +0.000 C 
ATOM      7  C   UNL     1       1.190  11.762  18.751  0.00  0.00    +0.000 C 
ATOM      8  C   UNL     1       2.001  10.696  18.013  0.00  0.00    +0.000 C 
ATOM      9  C   UNL     1       1.578   9.248  18.271  0.00  0.00    +0.000 C 
ATOM     10  C   UNL     1       1.711   8.830  19.738  0.00  0.00    +0.000 C 
ATOM     11  C   UNL     1       0.453   9.246  20.534  0.00  0.00    +0.000 C 
ATOM     12  O   UNL     1      -0.368   8.413  20.923  0.00  0.00    +0.000 OA
BRANCH   5  13
ATOM     13  C   UNL     1      -0.940  11.066  21.422  0.00  0.00    +0.000 C 
BRANCH  13  14
ATOM     14  C   UNL     1      -0.954  10.859  22.936  0.00  0.00    +0.000 C 
ATOM     15  O   UNL     1      -0.017  10.351  23.544  0.00  0.00    +0.000 OA
BRANCH  14  17
ATOM     16  C   UNL     1      -2.519  12.594  23.130  0.00  0.00    +0.000 C 
ATOM     17  O   UNL     1      -2.111  11.279  23.517  0.00  0.00    +0.000 OA
ENDBRANCH  14  17
ENDBRANCH  13  14
ENDBRANCH   5  13
ENDBRANCH   1  10
BRANCH   2  18
ATOM     18  C   UNL     1       2.650   5.174  19.070  0.00  0.00    +0.000 C 
BRANCH  18  19
ATOM     19  C   UNL     1       4.069   4.739  18.585  0.00  0.00    +0.000 C 
ATOM     20  C   UNL     1       5.228   5.354  19.371  0.00  0.00    +0.000 C 
BRANCH  19  21
ATOM     21  C   UNL     1       4.211   3.217  18.670  0.00  0.00    +0.000 C 
ATOM     22  O   UNL     1       3.608   2.433  17.945  0.00  0.00    +0.000 OA
ATOM     23  N   UNL     1       5.036   2.782  19.679  0.00  0.00    +0.000 N 
ATOM     24  H   UNL     1       5.484   3.371  20.372  0.00  0.00    +0.000 HD
BRANCH  23  25
ATOM     25  O   UNL     1       5.164   1.384  19.836  0.00  0.00    +0.000 OA
ATOM     26  H   UNL     1       6.105   1.236  19.597  0.00  0.00    +0.000 HD
ENDBRANCH  23  25
ENDBRANCH  19  21
ENDBRANCH  18  19
BRANCH  18  27
ATOM     27  C   UNL     1       2.421   4.835  20.558  0.00  0.00    +0.000 C 
BRANCH  27  28
ATOM     28  C   UNL     1       1.354   3.767  20.891  0.00  0.00    +0.000 C 
ATOM     29  C   UNL     1       0.711   3.145  19.651  0.00  0.00    +0.000 C 
ATOM     30  C   UNL     1       1.996   2.653  21.730  0.00  0.00    +0.000 C 
ENDBRANCH  27  28
ENDBRANCH  18  27
ENDBRANCH   2  18
TORSDOF 10
ENDMDL
MODEL 8
REMARK VINA RESULT:      -6.8      2.472      3.861
REMARK  Name = 
REMARK  14 active torsions:
REMARK  status: ('A' for Active; 'I' for Inactive)
REMARK    1  A    between atoms: C_1  and  O_2
REMARK    2  A    between atoms: O_2  and  C_3
REMARK    3  A    between atoms: C_3  and  C_5
REMARK    4  A    between atoms: C_5  and  N_6
REMARK    5  A    between atoms: C_11  and  N_12
REMARK    6  A    between atoms: C_13  and  C_15
REMARK    7  A    between atoms: C_15  and  C_16
REMARK    8  A    between atoms: C_15  and  C_20
REMARK    9  A    between atoms: C_16  and  C_17
REMARK   10  A    between atoms: C_17  and  C_18
REMARK   11  A    between atoms: C_17  and  C_19
REMARK   12  A    between atoms: C_20  and  C_21
REMARK   13  A    between atoms: C_20  and  C_22
REMARK   14  A    between atoms: N_24  and  O_25
REMARK                            x       y       z     vdW  Elec       q    Type
REMARK                         _______ _______ _______ _____ _____    ______ ____
ROOT
ATOM      1  N   UNL     1       2.108   8.038  19.139  0.00  0.00    +0.000 N 
ATOM      2  C   UNL     1       1.573   9.121  18.488  0.00  0.00    +0.000 C 
ATOM      3  O   UNL     1       1.532   9.209  17.263  0.00  0.00    +0.000 OA
ATOM      4  H   UNL     1       1.855   7.866  20.102  0.00  0.00    +0.000 HD
ENDROOT
BRANCH   1  10
ATOM      5  N   UNL     1       2.848   4.433  18.605  0.00  0.00    +0.000 N 
ATOM      6  C   UNL     1       3.175   4.346  17.186  0.00  0.00    +0.000 C 
ATOM      7  C   UNL     1       4.570   4.905  16.914  0.00  0.00    +0.000 C 
ATOM      8  C   UNL     1       4.617   6.431  16.813  0.00  0.00    +0.000 C 
ATOM      9  C   UNL     1       4.131   7.189  18.050  0.00  0.00    +0.000 C 
ATOM     10  C   UNL     1       2.665   6.911  18.397  0.00  0.00    +0.000 C 
ATOM     11  C   UNL     1       2.547   5.625  19.247  0.00  0.00    +0.000 C 
ATOM     12  O   UNL     1       2.269   5.671  20.447  0.00  0.00    +0.000 OA
BRANCH   5  13
ATOM     13  C   UNL     1       2.798   3.183  19.375  0.00  0.00    +0.000 C 
BRANCH  13  14
ATOM     14  C   UNL     1       1.416   2.561  19.566  0.00  0.00    +0.000 C 
ATOM     15  O   UNL     1       0.764   2.097  18.635  0.00  0.00    +0.000 OA
BRANCH  14  17
ATOM     16  C   UNL     1       2.051   2.562  21.822  0.00  0.00    +0.000 C 
ATOM     17  O   UNL     1       0.995   2.594  20.859  0.00  0.00    +0.000 OA
ENDBRANCH  14  17
ENDBRANCH  13  14
ENDBRANCH   5  13
ENDBRANCH   1  10
BRANCH   2  18
ATOM     18  C   UNL     1       1.045  10.238  19.394  0.00  0.00    +0.000 C 
BRANCH  18  19
ATOM     19  C   UNL     1       0.795  11.474  18.473  0.00  0.00    +0.000 C 
ATOM     20  C   UNL     1      -0.562  12.152  18.670  0.00  0.00    +0.000 C 
BRANCH  19  21
ATOM     21  C   UNL     1       1.877  12.532  18.705  0.00  0.00    +0.000 C 
ATOM     22  O   UNL     1       1.945  13.232  19.710  0.00  0.00    +0.000 OA
ATOM     23  N   UNL     1       2.750  12.684  17.656  0.00  0.00    +0.000 N 
ATOM     24  H   UNL     1       2.691  12.210  16.763  0.00  0.00    +0.000 HD
BRANCH  23  25
ATOM     25  O   UNL     1       3.740  13.683  17.795  0.00  0.00    +0.000 OA
ATOM     26  H   UNL     1       3.807  13.773  18.771  0.00  0.00    +0.000 HD
ENDBRANCH  23  25
ENDBRANCH  19  21
ENDBRANCH  18  19
BRANCH  18  27
ATOM     27  C   UNL     1      -0.246   9.779  20.105  0.00  0.00    +0.000 C 
BRANCH  27  28
ATOM     28  C   UNL     1      -0.230   9.724  21.649  0.00  0.00    +0.000 C 
ATOM     29  C   UNL     1       1.100   9.232  22.224  0.00  0.00    +0.000 C 
ATOM     30  C   UNL     1      -0.527  11.121  22.210  0.00  0.00    +0.000 C 
ENDBRANCH  27  28
ENDBRANCH  18  27
ENDBRANCH   2  18
TORSDOF 10
ENDMDL
MODEL 9
REMARK VINA RESULT:      -6.7      1.181      1.434
REMARK  Name = 
REMARK  14 active torsions:
REMARK  status: ('A' for Active; 'I' for Inactive)
REMARK    1  A    between atoms: C_1  and  O_2
REMARK    2  A    between atoms: O_2  and  C_3
REMARK    3  A    between atoms: C_3  and  C_5
REMARK    4  A    between atoms: C_5  and  N_6
REMARK    5  A    between atoms: C_11  and  N_12
REMARK    6  A    between atoms: C_13  and  C_15
REMARK    7  A    between atoms: C_15  and  C_16
REMARK    8  A    between atoms: C_15  and  C_20
REMARK    9  A    between atoms: C_16  and  C_17
REMARK   10  A    between atoms: C_17  and  C_18
REMARK   11  A    between atoms: C_17  and  C_19
REMARK   12  A    between atoms: C_20  and  C_21
REMARK   13  A    between atoms: C_20  and  C_22
REMARK   14  A    between atoms: N_24  and  O_25
REMARK                            x       y       z     vdW  Elec       q    Type
REMARK                         _______ _______ _______ _____ _____    ______ ____
ROOT
ATOM      1  N   UNL     1       2.178   7.369  19.389  0.00  0.00    +0.000 N 
ATOM      2  C   UNL     1       1.598   8.032  20.441  0.00  0.00    +0.000 C 
ATOM      3  O   UNL     1       1.594   7.590  21.587  0.00  0.00    +0.000 OA
ATOM      4  H   UNL     1       2.424   7.884  18.555  0.00  0.00    +0.000 HD
ENDROOT
BRANCH   1  10
ATOM      5  N   UNL     1       4.602   4.695  18.493  0.00  0.00    +0.000 N 
ATOM      6  C   UNL     1       4.717   3.899  19.711  0.00  0.00    +0.000 C 
ATOM      7  C   UNL     1       3.480   3.026  19.910  0.00  0.00    +0.000 C 
ATOM      8  C   UNL     1       2.291   3.766  20.525  0.00  0.00    +0.000 C 
ATOM      9  C   UNL     1       1.787   4.976  19.737  0.00  0.00    +0.000 C 
ATOM     10  C   UNL     1       2.837   6.080  19.581  0.00  0.00    +0.000 C 
ATOM     11  C   UNL     1       3.753   5.785  18.371  0.00  0.00    +0.000 C 
ATOM     12  O   UNL     1       3.678   6.443  17.331  0.00  0.00    +0.000 OA
BRANCH   5  13
ATOM     13  C   UNL     1       5.462   4.338  17.358  0.00  0.00    +0.000 C 
BRANCH  13  14
ATOM     14  C   UNL     1       6.926   4.767  17.456  0.00  0.00    +0.000 C 
ATOM     15  O   UNL     1       7.659   4.414  18.374  0.00  0.00    +0.000 OA
BRANCH  14  17
ATOM     16  C   UNL     1       6.970   5.095  15.136  0.00  0.00    +0.000 C 
ATOM     17  O   UNL     1       7.307   5.583  16.437  0.00  0.00    +0.000 OA
ENDBRANCH  14  17
ENDBRANCH  13  14
ENDBRANCH   5  13
ENDBRANCH   1  10
BRANCH   2  18
ATOM     18  C   UNL     1       0.924   9.363  20.088  0.00  0.00    +0.000 C 
BRANCH  18  19
ATOM     19  C   UNL     1       0.761   9.379  18.536  0.00  0.00    +0.000 C 
ATOM     20  C   UNL     1      -0.554   9.981  18.038  0.00  0.00    +0.000 C 
BRANCH  19  21
ATOM     21  C   UNL     1       1.903  10.171  17.894  0.00  0.00    +0.000 C 
ATOM     22  O   UNL     1       2.903   9.655  17.406  0.00  0.00    +0.000 OA
ATOM     23  N   UNL     1       1.751  11.534  17.959  0.00  0.00    +0.000 N 
ATOM     24  H   UNL     1       1.001  12.024  18.433  0.00  0.00    +0.000 HD
BRANCH  23  25
ATOM     25  O   UNL     1       2.801  12.317  17.428  0.00  0.00    +0.000 OA
ATOM     26  H   UNL     1       2.502  12.461  16.503  0.00  0.00    +0.000 HD
ENDBRANCH  23  25
ENDBRANCH  19  21
ENDBRANCH  18  19
BRANCH  18  27
ATOM     27  C   UNL     1      -0.436   9.476  20.810  0.00  0.00    +0.000 C 
BRANCH  27  28
ATOM     28  C   UNL     1      -0.702  10.757  21.633  0.00  0.00    +0.000 C 
ATOM     29  C   UNL     1      -0.756  10.508  23.142  0.00  0.00    +0.000 C 
ATOM     30  C   UNL     1       0.396  11.787  21.338  0.00  0.00    +0.000 C 
ENDBRANCH  27  28
ENDBRANCH  18  27
ENDBRANCH   2  18
TORSDOF 10
ENDMDL
