MODEL 1
REMARK VINA RESULT:      -8.9      0.000      0.000
REMARK  Name = 
REMARK  4 active torsions:
REMARK  status: ('A' for Active; 'I' for Inactive)
REMARK    1  A    between atoms: C_5  and  C_6
REMARK    2  A    between atoms: C_12  and  C_14
REMARK    3  A    between atoms: C_16  and  C_17
REMARK    4  A    between atoms: C_17  and  C_18
REMARK                            x       y       z     vdW  Elec       q    Type
REMARK                         _______ _______ _______ _____ _____    ______ ____
ROOT
ATOM      1  C   UNL     1       0.781   9.621  19.122  0.00  0.00    +0.000 A 
ATOM      2  C   UNL     1       1.658   8.925  18.267  0.00  0.00    +0.000 A 
ATOM      3  C   UNL     1       2.362   7.795  18.723  0.00  0.00    +0.000 A 
ATOM      4  C   UNL     1       2.238   7.413  20.064  0.00  0.00    +0.000 A 
ATOM      5  C   UNL     1       1.327   8.057  20.894  0.00  0.00    +0.000 A 
ATOM      6  C   UNL     1       0.563   9.109  20.398  0.00  0.00    +0.000 A 
ATOM      7  F   UNL     1      -0.393   9.606  21.195  0.00  0.00    +0.000 F 
ENDROOT
BRANCH   1  14
ATOM      8  C   UNL     1       1.308  15.932  20.133  0.00  0.00    +0.000 C 
ATOM      9  O   UNL     1       0.609  16.885  19.782  0.00  0.00    +0.000 OA
ATOM     10  N   UNL     1       0.830  14.629  20.096  0.00  0.00    +0.000 N 
ATOM     11  C   UNL     1      -0.413  14.327  19.358  0.00  0.00    +0.000 C 
ATOM     12  C   UNL     1      -0.179  13.265  18.256  0.00  0.00    +0.000 C 
ATOM     13  N   UNL     1       0.588  12.110  18.762  0.00  0.00    +0.000 N 
ATOM     14  C   UNL     1       0.076  10.819  18.589  0.00  0.00    +0.000 C 
ATOM     15  O   UNL     1      -0.958  10.611  17.955  0.00  0.00    +0.000 OA
ATOM     16  C   UNL     1       1.848  12.503  19.409  0.00  0.00    +0.000 C 
ATOM     17  C   UNL     1       1.535  13.439  20.588  0.00  0.00    +0.000 C 
BRANCH   8  22
ATOM     18  O   UNL     1       5.548  17.535  18.942  0.00  0.00    +0.000 OA
ATOM     19  C   UNL     1       4.647  17.250  19.706  0.00  0.00    +0.000 C 
ATOM     20  C   UNL     1       4.475  17.743  21.119  0.00  0.00    +0.000 C 
ATOM     21  C   UNL     1       3.012  17.401  21.417  0.00  0.00    +0.000 C 
ATOM     22  C   UNL     1       2.768  16.153  20.578  0.00  0.00    +0.000 C 
ATOM     23  N   UNL     1       3.630  16.361  19.447  0.00  0.00    +0.000 N 
ATOM     24  H   UNL     1       3.508  15.935  18.536  0.00  0.00    +0.000 HD
ENDBRANCH   8  22
ENDBRANCH   1  14
BRANCH   3  25
ATOM     25  C   UNL     1       3.234   6.979  17.793  0.00  0.00    +0.000 C 
BRANCH  25  26
ATOM     26  C   UNL     1       3.723   5.678  18.416  0.00  0.00    +0.000 A 
ATOM     27  N   UNL     1       4.937   5.680  18.884  0.00  0.00    +0.000 NA
ATOM     28  N   UNL     1       5.395   4.527  19.435  0.00  0.00    +0.000 N 
ATOM     29  C   UNL     1       4.709   3.346  19.517  0.00  0.00    +0.000 A 
ATOM     30  O   UNL     1       5.214   2.326  19.971  0.00  0.00    +0.000 OA
ATOM     31  C   UNL     1       3.303   3.380  19.040  0.00  0.00    +0.000 A 
ATOM     32  C   UNL     1       2.802   4.502  18.492  0.00  0.00    +0.000 A 
ATOM     33  C   UNL     1       1.383   4.589  18.000  0.00  0.00    +0.000 C 
ATOM     34  C   UNL     1       0.683   3.231  17.903  0.00  0.00    +0.000 C 
ATOM     35  C   UNL     1       0.993   2.360  19.113  0.00  0.00    +0.000 C 
ATOM     36  C   UNL     1       2.499   2.125  19.238  0.00  0.00    +0.000 C 
ATOM     37  H   UNL     1       6.354   4.528  19.767  0.00  0.00    +0.000 HD
ENDBRANCH  25  26
ENDBRANCH   3  25
TORSDOF 4
ENDMDL
MODEL 2
REMARK VINA RESULT:      -8.8      2.536     10.130
REMARK  Name = 
REMARK  4 active torsions:
REMARK  status: ('A' for Active; 'I' for Inactive)
REMARK    1  A    between atoms: C_5  and  C_6
REMARK    2  A    between atoms: C_12  and  C_14
REMARK    3  A    between atoms: C_16  and  C_17
REMARK    4  A    between atoms: C_17  and  C_18
REMARK                            x       y       z     vdW  Elec       q    Type
REMARK                         _______ _______ _______ _____ _____    ______ ____
ROOT
ATOM      1  C   UNL     1      -0.121  10.566  19.812  0.00  0.00    +0.000 A 
ATOM      2  C   UNL     1       0.160  11.849  20.324  0.00  0.00    +0.000 A 
ATOM      3  C   UNL     1      -0.273  13.004  19.647  0.00  0.00    +0.000 A 
ATOM      4  C   UNL     1      -0.923  12.866  18.414  0.00  0.00    +0.000 A 
ATOM      5  C   UNL     1      -1.258  11.603  17.937  0.00  0.00    +0.000 A 
ATOM      6  C   UNL     1      -0.911  10.473  18.670  0.00  0.00    +0.000 A 
ATOM      7  F   UNL     1      -1.373   9.292  18.236  0.00  0.00    +0.000 F 
ENDROOT
BRANCH   1  14
ATOM      8  C   UNL     1       3.475   5.486  18.267  0.00  0.00    +0.000 C 
ATOM      9  O   UNL     1       3.746   4.450  18.878  0.00  0.00    +0.000 OA
ATOM     10  N   UNL     1       2.410   6.293  18.643  0.00  0.00    +0.000 N 
ATOM     11  C   UNL     1       1.766   6.089  19.956  0.00  0.00    +0.000 C 
ATOM     12  C   UNL     1       1.812   7.373  20.821  0.00  0.00    +0.000 C 
ATOM     13  N   UNL     1       1.393   8.563  20.056  0.00  0.00    +0.000 N 
ATOM     14  C   UNL     1       0.377   9.381  20.563  0.00  0.00    +0.000 C 
ATOM     15  O   UNL     1      -0.124   9.182  21.670  0.00  0.00    +0.000 OA
ATOM     16  C   UNL     1       2.145   8.729  18.804  0.00  0.00    +0.000 C 
ATOM     17  C   UNL     1       1.936   7.483  17.926  0.00  0.00    +0.000 C 
BRANCH   8  22
ATOM     18  O   UNL     1       7.723   6.898  16.882  0.00  0.00    +0.000 OA
ATOM     19  C   UNL     1       6.628   6.387  16.749  0.00  0.00    +0.000 C 
ATOM     20  C   UNL     1       6.200   5.450  15.650  0.00  0.00    +0.000 C 
ATOM     21  C   UNL     1       4.917   4.835  16.216  0.00  0.00    +0.000 C 
ATOM     22  C   UNL     1       4.350   5.950  17.086  0.00  0.00    +0.000 C 
ATOM     23  N   UNL     1       5.535   6.619  17.550  0.00  0.00    +0.000 N 
ATOM     24  H   UNL     1       5.594   7.184  18.389  0.00  0.00    +0.000 HD
ENDBRANCH   8  22
ENDBRANCH   1  14
BRANCH   3  25
ATOM     25  C   UNL     1      -0.065  14.386  20.230  0.00  0.00    +0.000 C 
BRANCH  25  26
ATOM     26  C   UNL     1       1.013  15.184  19.509  0.00  0.00    +0.000 A 
ATOM     27  N   UNL     1       2.234  14.753  19.633  0.00  0.00    +0.000 NA
ATOM     28  N   UNL     1       3.211  15.457  19.006  0.00  0.00    +0.000 N 
ATOM     29  C   UNL     1       3.038  16.602  18.277  0.00  0.00    +0.000 A 
ATOM     30  O   UNL     1       3.979  17.219  17.794  0.00  0.00    +0.000 OA
ATOM     31  C   UNL     1       1.632  17.041  18.089  0.00  0.00    +0.000 A 
ATOM     32  C   UNL     1       0.628  16.372  18.685  0.00  0.00    +0.000 A 
ATOM     33  C   UNL     1      -0.812  16.773  18.520  0.00  0.00    +0.000 C 
ATOM     34  C   UNL     1      -0.996  18.153  17.881  0.00  0.00    +0.000 C 
ATOM     35  C   UNL     1      -0.033  18.358  16.719  0.00  0.00    +0.000 C 
ATOM     36  C   UNL     1       1.417  18.226  17.188  0.00  0.00    +0.000 C 
ATOM     37  H   UNL     1       4.164  15.133  19.138  0.00  0.00    +0.000 HD
ENDBRANCH  25  26
ENDBRANCH   3  25
TORSDOF 4
ENDMDL
MODEL 3
REMARK VINA RESULT:      -8.8      3.970      5.865
REMARK  Name = 
REMARK  4 active torsions:
REMARK  status: ('A' for Active; 'I' for Inactive)
REMARK    1  A    between atoms: C_5  and  C_6
REMARK    2  A    between atoms: C_12  and  C_14
REMARK    3  A    between atoms: C_16  and  C_17
REMARK    4  A    between atoms: C_17  and  C_18
REMARK                            x       y       z     vdW  Elec       q    Type
REMARK                         _______ _______ _______ _____ _____    ______ ____
ROOT
ATOM      1  C   UNL     1       0.883  10.976  20.110  0.00  0.00    +0.000 A 
ATOM      2  C   UNL     1       1.203   9.714  20.651  0.00  0.00    +0.000 A 
ATOM      3  C   UNL     1       1.444   8.612  19.811  0.00  0.00    +0.000 A 
ATOM      4  C   UNL     1       1.289   8.764  18.428  0.00  0.00    +0.000 A 
ATOM      5  C   UNL     1       1.036  10.019  17.886  0.00  0.00    +0.000 A 
ATOM      6  C   UNL     1       0.900  11.120  18.726  0.00  0.00    +0.000 A 
ATOM      7  F   UNL     1       0.793  12.326  18.149  0.00  0.00    +0.000 F 
ENDROOT
BRANCH   1  14
ATOM      8  C   UNL     1      -4.372  14.215  21.847  0.00  0.00    +0.000 C 
ATOM      9  O   UNL     1      -4.527  15.238  22.518  0.00  0.00    +0.000 OA
ATOM     10  N   UNL     1      -3.136  13.880  21.310  0.00  0.00    +0.000 N 
ATOM     11  C   UNL     1      -1.922  14.578  21.777  0.00  0.00    +0.000 C 
ATOM     12  C   UNL     1      -0.879  13.588  22.351  0.00  0.00    +0.000 C 
ATOM     13  N   UNL     1      -0.675  12.430  21.459  0.00  0.00    +0.000 N 
ATOM     14  C   UNL     1       0.622  12.102  21.048  0.00  0.00    +0.000 C 
ATOM     15  O   UNL     1       1.609  12.703  21.473  0.00  0.00    +0.000 OA
ATOM     16  C   UNL     1      -1.931  11.750  21.113  0.00  0.00    +0.000 C 
ATOM     17  C   UNL     1      -2.866  12.750  20.412  0.00  0.00    +0.000 C 
BRANCH   8  22
ATOM     18  O   UNL     1      -7.645  11.530  23.857  0.00  0.00    +0.000 OA
ATOM     19  C   UNL     1      -7.163  12.215  22.976  0.00  0.00    +0.000 C 
ATOM     20  C   UNL     1      -7.900  12.862  21.833  0.00  0.00    +0.000 C 
ATOM     21  C   UNL     1      -6.888  13.891  21.322  0.00  0.00    +0.000 C 
ATOM     22  C   UNL     1      -5.544  13.239  21.625  0.00  0.00    +0.000 C 
ATOM     23  N   UNL     1      -5.824  12.483  22.815  0.00  0.00    +0.000 N 
ATOM     24  H   UNL     1      -5.132  12.191  23.495  0.00  0.00    +0.000 HD
ENDBRANCH   8  22
ENDBRANCH   1  14
BRANCH   3  25
ATOM     25  C   UNL     1       1.882   7.274  20.370  0.00  0.00    +0.000 C 
BRANCH  25  26
ATOM     26  C   UNL     1       2.556   6.384  19.334  0.00  0.00    +0.000 A 
ATOM     27  N   UNL     1       3.475   6.940  18.601  0.00  0.00    +0.000 NA
ATOM     28  N   UNL     1       4.081   6.165  17.665  0.00  0.00    +0.000 N 
ATOM     29  C   UNL     1       3.793   4.855  17.395  0.00  0.00    +0.000 A 
ATOM     30  O   UNL     1       4.339   4.239  16.488  0.00  0.00    +0.000 OA
ATOM     31  C   UNL     1       2.791   4.217  18.286  0.00  0.00    +0.000 A 
ATOM     32  C   UNL     1       2.168   4.942  19.233  0.00  0.00    +0.000 A 
ATOM     33  C   UNL     1       1.150   4.341  20.163  0.00  0.00    +0.000 C 
ATOM     34  C   UNL     1       0.681   2.946  19.740  0.00  0.00    +0.000 C 
ATOM     35  C   UNL     1       1.848   2.089  19.267  0.00  0.00    +0.000 C 
ATOM     36  C   UNL     1       2.555   2.746  18.081  0.00  0.00    +0.000 C 
ATOM     37  H   UNL     1       4.772   6.618  17.075  0.00  0.00    +0.000 HD
ENDBRANCH  25  26
ENDBRANCH   3  25
TORSDOF 4
ENDMDL
MODEL 4
REMARK VINA RESULT:      -8.7      3.411      4.206
REMARK  Name = 
REMARK  4 active torsions:
REMARK  status: ('A' for Active; 'I' for Inactive)
REMARK    1  A    between atoms: C_5  and  C_6
REMARK    2  A    between atoms: C_12  and  C_14
REMARK    3  A    between atoms: C_16  and  C_17
REMARK    4  A    between atoms: C_17  and  C_18
REMARK                            x       y       z     vdW  Elec       q    Type
REMARK                         _______ _______ _______ _____ _____    ______ ____
ROOT
ATOM      1  C   UNL     1       0.033   9.668  19.815  0.00  0.00    +0.000 A 
ATOM      2  C   UNL     1       0.967   9.404  18.793  0.00  0.00    +0.000 A 
ATOM      3  C   UNL     1       1.982   8.447  18.976  0.00  0.00    +0.000 A 
ATOM      4  C   UNL     1       2.100   7.811  20.218  0.00  0.00    +0.000 A 
ATOM      5  C   UNL     1       1.144   8.020  21.206  0.00  0.00    +0.000 A 
ATOM      6  C   UNL     1       0.088   8.895  20.971  0.00  0.00    +0.000 A 
ATOM      7  F   UNL     1      -0.877   8.959  21.900  0.00  0.00    +0.000 F 
ENDROOT
BRANCH   1  14
ATOM      8  C   UNL     1      -2.480  14.396  23.344  0.00  0.00    +0.000 C 
ATOM      9  O   UNL     1      -3.444  15.142  23.159  0.00  0.00    +0.000 OA
ATOM     10  N   UNL     1      -2.318  13.224  22.618  0.00  0.00    +0.000 N 
ATOM     11  C   UNL     1      -3.131  12.997  21.406  0.00  0.00    +0.000 C 
ATOM     12  C   UNL     1      -2.244  12.774  20.156  0.00  0.00    +0.000 C 
ATOM     13  N   UNL     1      -1.162  11.806  20.419  0.00  0.00    +0.000 N 
ATOM     14  C   UNL     1      -1.009  10.704  19.571  0.00  0.00    +0.000 C 
ATOM     15  O   UNL     1      -1.700  10.560  18.562  0.00  0.00    +0.000 OA
ATOM     16  C   UNL     1      -0.357  12.158  21.597  0.00  0.00    +0.000 C 
ATOM     17  C   UNL     1      -1.273  12.217  22.831  0.00  0.00    +0.000 C 
BRANCH   8  22
ATOM     18  O   UNL     1       0.531  17.678  24.802  0.00  0.00    +0.000 OA
ATOM     19  C   UNL     1      -0.199  16.714  24.922  0.00  0.00    +0.000 C 
ATOM     20  C   UNL     1      -0.762  16.165  26.208  0.00  0.00    +0.000 C 
ATOM     21  C   UNL     1      -1.891  15.254  25.717  0.00  0.00    +0.000 C 
ATOM     22  C   UNL     1      -1.385  14.771  24.363  0.00  0.00    +0.000 C 
ATOM     23  N   UNL     1      -0.607  15.887  23.902  0.00  0.00    +0.000 N 
ATOM     24  H   UNL     1      -0.391  16.085  22.931  0.00  0.00    +0.000 HD
ENDBRANCH   8  22
ENDBRANCH   1  14
BRANCH   3  25
ATOM     25  C   UNL     1       2.935   8.082  17.858  0.00  0.00    +0.000 C 
BRANCH  25  26
ATOM     26  C   UNL     1       3.191   6.585  17.753  0.00  0.00    +0.000 A 
ATOM     27  N   UNL     1       2.162   5.807  17.922  0.00  0.00    +0.000 NA
ATOM     28  N   UNL     1       2.371   4.468  17.842  0.00  0.00    +0.000 N 
ATOM     29  C   UNL     1       3.575   3.853  17.631  0.00  0.00    +0.000 A 
ATOM     30  O   UNL     1       3.696   2.634  17.637  0.00  0.00    +0.000 OA
ATOM     31  C   UNL     1       4.725   4.755  17.374  0.00  0.00    +0.000 A 
ATOM     32  C   UNL     1       4.566   6.089  17.435  0.00  0.00    +0.000 A 
ATOM     33  C   UNL     1       5.699   7.044  17.176  0.00  0.00    +0.000 C 
ATOM     34  C   UNL     1       7.074   6.371  17.141  0.00  0.00    +0.000 C 
ATOM     35  C   UNL     1       7.027   5.055  16.376  0.00  0.00    +0.000 C 
ATOM     36  C   UNL     1       6.028   4.092  17.018  0.00  0.00    +0.000 C 
ATOM     37  H   UNL     1       1.569   3.870  18.009  0.00  0.00    +0.000 HD
ENDBRANCH  25  26
ENDBRANCH   3  25
TORSDOF 4
ENDMDL
MODEL 5
REMARK VINA RESULT:      -8.7      1.097      1.249
REMARK  Name = 
REMARK  4 active torsions:
REMARK  status: ('A' for Active; 'I' for Inactive)
REMARK    1  A    between atoms: C_5  and  C_6
REMARK    2  A    between atoms: C_12  and  C_14
REMARK    3  A    between atoms: C_16  and  C_17
REMARK    4  A    between atoms: C_17  and  C_18
REMARK                            x       y       z     vdW  Elec       q    Type
REMARK                         _______ _______ _______ _____ _____    ______ ____
ROOT
ATOM      1  C   UNL     1       0.748  10.291  19.239  0.00  0.00    +0.000 A 
ATOM      2  C   UNL     1       1.312   9.537  18.190  0.00  0.00    +0.000 A 
ATOM      3  C   UNL     1       1.901   8.284  18.441  0.00  0.00    +0.000 A 
ATOM      4  C   UNL     1       1.989   7.827  19.762  0.00  0.00    +0.000 A 
ATOM      5  C   UNL     1       1.378   8.537  20.790  0.00  0.00    +0.000 A 
ATOM      6  C   UNL     1       0.711   9.725  20.509  0.00  0.00    +0.000 A 
ATOM      7  F   UNL     1       0.027  10.299  21.509  0.00  0.00    +0.000 F 
ENDROOT
BRANCH   1  14
ATOM      8  C   UNL     1       2.431  16.359  20.457  0.00  0.00    +0.000 C 
ATOM      9  O   UNL     1       1.838  17.428  20.299  0.00  0.00    +0.000 OA
ATOM     10  N   UNL     1       1.757  15.145  20.445  0.00  0.00    +0.000 N 
ATOM     11  C   UNL     1       0.368  15.085  19.947  0.00  0.00    +0.000 C 
ATOM     12  C   UNL     1       0.227  14.094  18.766  0.00  0.00    +0.000 C 
ATOM     13  N   UNL     1       0.884  12.804  19.053  0.00  0.00    +0.000 N 
ATOM     14  C   UNL     1       0.153  11.618  18.915  0.00  0.00    +0.000 C 
ATOM     15  O   UNL     1      -0.999  11.612  18.483  0.00  0.00    +0.000 OA
ATOM     16  C   UNL     1       2.287  12.958  19.464  0.00  0.00    +0.000 C 
ATOM     17  C   UNL     1       2.345  13.831  20.729  0.00  0.00    +0.000 C 
BRANCH   8  22
ATOM     18  O   UNL     1       6.573  17.576  18.634  0.00  0.00    +0.000 OA
ATOM     19  C   UNL     1       5.794  17.300  19.525  0.00  0.00    +0.000 C 
ATOM     20  C   UNL     1       5.959  17.604  20.991  0.00  0.00    +0.000 C 
ATOM     21  C   UNL     1       4.541  17.407  21.535  0.00  0.00    +0.000 C 
ATOM     22  C   UNL     1       3.964  16.331  20.623  0.00  0.00    +0.000 C 
ATOM     23  N   UNL     1       4.626  16.590  19.374  0.00  0.00    +0.000 N 
ATOM     24  H   UNL     1       4.278  16.316  18.462  0.00  0.00    +0.000 HD
ENDBRANCH   8  22
ENDBRANCH   1  14
BRANCH   3  25
ATOM     25  C   UNL     1       2.425   7.418  17.316  0.00  0.00    +0.000 C 
BRANCH  25  26
ATOM     26  C   UNL     1       3.542   6.479  17.752  0.00  0.00    +0.000 A 
ATOM     27  N   UNL     1       4.737   6.990  17.817  0.00  0.00    +0.000 NA
ATOM     28  N   UNL     1       5.748   6.166  18.195  0.00  0.00    +0.000 N 
ATOM     29  C   UNL     1       5.635   4.834  18.485  0.00  0.00    +0.000 A 
ATOM     30  O   UNL     1       6.607   4.139  18.756  0.00  0.00    +0.000 OA
ATOM     31  C   UNL     1       4.256   4.284  18.472  0.00  0.00    +0.000 A 
ATOM     32  C   UNL     1       3.220   5.063  18.111  0.00  0.00    +0.000 A 
ATOM     33  C   UNL     1       1.805   4.555  18.088  0.00  0.00    +0.000 C 
ATOM     34  C   UNL     1       1.697   3.032  18.212  0.00  0.00    +0.000 C 
ATOM     35  C   UNL     1       2.659   2.493  19.263  0.00  0.00    +0.000 C 
ATOM     36  C   UNL     1       4.103   2.853  18.909  0.00  0.00    +0.000 C 
ATOM     37  H   UNL     1       6.681   6.565  18.210  0.00  0.00    +0.000 HD
ENDBRANCH  25  26
ENDBRANCH   3  25
TORSDOF 4
ENDMDL
MODEL 6
REMARK VINA RESULT:      -8.7      4.233      5.767
REMARK  Name = 
REMARK  4 active torsions:
REMARK  status: ('A' for Active; 'I' for Inactive)
REMARK    1  A    between atoms: C_5  and  C_6
REMARK    2  A    between atoms: C_12  and  C_14
REMARK    3  A    between atoms: C_16  and  C_17
REMARK    4  A    between atoms: C_17  and  C_18
REMARK                            x       y       z     vdW  Elec       q    Type
REMARK                         _______ _______ _______ _____ _____    ______ ____
ROOT
ATOM      1  C   UNL     1       1.536   8.770  20.033  0.00  0.00    +0.000 A 
ATOM      2  C   UNL     1       1.863   7.411  19.851  0.00  0.00    +0.000 A 
ATOM      3  C   UNL     1       2.329   6.945  18.608  0.00  0.00    +0.000 A 
ATOM      4  C   UNL     1       2.393   7.834  17.529  0.00  0.00    +0.000 A 
ATOM      5  C   UNL     1       2.132   9.187  17.720  0.00  0.00    +0.000 A 
ATOM      6  C   UNL     1       1.770   9.650  18.981  0.00  0.00    +0.000 A 
ATOM      7  F   UNL     1       1.662  10.976  19.143  0.00  0.00    +0.000 F 
ENDROOT
BRANCH   1  14
ATOM      8  C   UNL     1      -3.113  12.736  21.978  0.00  0.00    +0.000 C 
ATOM      9  O   UNL     1      -3.407  13.182  23.089  0.00  0.00    +0.000 OA
ATOM     10  N   UNL     1      -1.872  12.168  21.728  0.00  0.00    +0.000 N 
ATOM     11  C   UNL     1      -0.988  11.816  22.858  0.00  0.00    +0.000 C 
ATOM     12  C   UNL     1      -0.621  10.311  22.848  0.00  0.00    +0.000 C 
ATOM     13  N   UNL     1      -0.195   9.861  21.509  0.00  0.00    +0.000 N 
ATOM     14  C   UNL     1       1.032   9.203  21.366  0.00  0.00    +0.000 C 
ATOM     15  O   UNL     1       1.731   8.916  22.337  0.00  0.00    +0.000 OA
ATOM     16  C   UNL     1      -1.174  10.184  20.462  0.00  0.00    +0.000 C 
ATOM     17  C   UNL     1      -1.382  11.708  20.423  0.00  0.00    +0.000 C 
BRANCH   8  22
ATOM     18  O   UNL     1      -7.590  12.080  20.755  0.00  0.00    +0.000 OA
ATOM     19  C   UNL     1      -6.475  12.556  20.662  0.00  0.00    +0.000 C 
ATOM     20  C   UNL     1      -6.086  13.795  19.898  0.00  0.00    +0.000 C 
ATOM     21  C   UNL     1      -4.702  14.118  20.469  0.00  0.00    +0.000 C 
ATOM     22  C   UNL     1      -4.145  12.747  20.832  0.00  0.00    +0.000 C 
ATOM     23  N   UNL     1      -5.328  12.013  21.191  0.00  0.00    +0.000 N 
ATOM     24  H   UNL     1      -5.347  11.197  21.791  0.00  0.00    +0.000 HD
ENDBRANCH   8  22
ENDBRANCH   1  14
BRANCH   3  25
ATOM     25  C   UNL     1       2.775   5.510  18.420  0.00  0.00    +0.000 C 
BRANCH  25  26
ATOM     26  C   UNL     1       4.286   5.337  18.501  0.00  0.00    +0.000 A 
ATOM     27  N   UNL     1       4.817   5.425  19.685  0.00  0.00    +0.000 NA
ATOM     28  N   UNL     1       6.164   5.284  19.777  0.00  0.00    +0.000 N 
ATOM     29  C   UNL     1       7.026   5.086  18.733  0.00  0.00    +0.000 A 
ATOM     30  O   UNL     1       8.240   5.033  18.889  0.00  0.00    +0.000 OA
ATOM     31  C   UNL     1       6.398   4.920  17.398  0.00  0.00    +0.000 A 
ATOM     32  C   UNL     1       5.065   5.046  17.257  0.00  0.00    +0.000 A 
ATOM     33  C   UNL     1       4.381   4.880  15.929  0.00  0.00    +0.000 C 
ATOM     34  C   UNL     1       5.345   4.862  14.739  0.00  0.00    +0.000 C 
ATOM     35  C   UNL     1       6.583   4.028  15.042  0.00  0.00    +0.000 C 
ATOM     36  C   UNL     1       7.322   4.580  16.262  0.00  0.00    +0.000 C 
ATOM     37  H   UNL     1       6.572   5.388  20.701  0.00  0.00    +0.000 HD
ENDBRANCH  25  26
ENDBRANCH   3  25
TORSDOF 4
ENDMDL
MODEL 7
REMARK VINA RESULT:      -8.6      1.475      2.399
REMARK  Name = 
REMARK  4 active torsions:
REMARK  status: ('A' for Active; 'I' for Inactive)
REMARK    1  A    between atoms: C_5  and  C_6
REMARK    2  A    between atoms: C_12  and  C_14
REMARK    3  A    between atoms: C_16  and  C_17
REMARK    4  A    between atoms: C_17  and  C_18
REMARK                            x       y       z     vdW  Elec       q    Type
REMARK                         _______ _______ _______ _____ _____    ______ ____
ROOT
ATOM      1  C   UNL     1       0.639  10.238  19.298  0.00  0.00    +0.000 A 
ATOM      2  C   UNL     1       1.293   9.486  18.303  0.00  0.00    +0.000 A 
ATOM      3  C   UNL     1       1.883   8.246  18.610  0.00  0.00    +0.000 A 
ATOM      4  C   UNL     1       1.877   7.801  19.937  0.00  0.00    +0.000 A 
ATOM      5  C   UNL     1       1.178   8.508  20.910  0.00  0.00    +0.000 A 
ATOM      6  C   UNL     1       0.514   9.681  20.568  0.00  0.00    +0.000 A 
ATOM      7  F   UNL     1      -0.254  10.251  21.507  0.00  0.00    +0.000 F 
ENDROOT
BRANCH   1  14
ATOM      8  C   UNL     1       2.278  16.348  20.353  0.00  0.00    +0.000 C 
ATOM      9  O   UNL     1       1.685  17.409  20.146  0.00  0.00    +0.000 OA
ATOM     10  N   UNL     1       1.607  15.132  20.366  0.00  0.00    +0.000 N 
ATOM     11  C   UNL     1       0.230  15.052  19.839  0.00  0.00    +0.000 C 
ATOM     12  C   UNL     1       0.118  14.021  18.688  0.00  0.00    +0.000 C 
ATOM     13  N   UNL     1       0.772  12.743  19.033  0.00  0.00    +0.000 N 
ATOM     14  C   UNL     1       0.048  11.551  18.918  0.00  0.00    +0.000 C 
ATOM     15  O   UNL     1      -1.094  11.527  18.460  0.00  0.00    +0.000 OA
ATOM     16  C   UNL     1       2.165  12.916  19.470  0.00  0.00    +0.000 C 
ATOM     17  C   UNL     1       2.192  13.830  20.706  0.00  0.00    +0.000 C 
BRANCH   8  22
ATOM     18  O   UNL     1       6.458  17.503  18.576  0.00  0.00    +0.000 OA
ATOM     19  C   UNL     1       5.659  17.260  19.460  0.00  0.00    +0.000 C 
ATOM     20  C   UNL     1       5.791  17.622  20.916  0.00  0.00    +0.000 C 
ATOM     21  C   UNL     1       4.361  17.443  21.435  0.00  0.00    +0.000 C 
ATOM     22  C   UNL     1       3.806  16.331  20.554  0.00  0.00    +0.000 C 
ATOM     23  N   UNL     1       4.496  16.542  19.311  0.00  0.00    +0.000 N 
ATOM     24  H   UNL     1       4.169  16.231  18.404  0.00  0.00    +0.000 HD
ENDBRANCH   8  22
ENDBRANCH   1  14
BRANCH   3  25
ATOM     25  C   UNL     1       2.507   7.380  17.536  0.00  0.00    +0.000 C 
BRANCH  25  26
ATOM     26  C   UNL     1       3.198   6.141  18.091  0.00  0.00    +0.000 A 
ATOM     27  N   UNL     1       2.430   5.243  18.635  0.00  0.00    +0.000 NA
ATOM     28  N   UNL     1       3.028   4.136  19.144  0.00  0.00    +0.000 N 
ATOM     29  C   UNL     1       4.373   3.887  19.169  0.00  0.00    +0.000 A 
ATOM     30  O   UNL     1       4.844   2.892  19.707  0.00  0.00    +0.000 OA
ATOM     31  C   UNL     1       5.229   4.889  18.485  0.00  0.00    +0.000 A 
ATOM     32  C   UNL     1       4.681   6.000  17.958  0.00  0.00    +0.000 A 
ATOM     33  C   UNL     1       5.504   7.040  17.250  0.00  0.00    +0.000 C 
ATOM     34  C   UNL     1       7.013   6.871  17.449  0.00  0.00    +0.000 C 
ATOM     35  C   UNL     1       7.424   5.408  17.347  0.00  0.00    +0.000 C 
ATOM     36  C   UNL     1       6.695   4.567  18.396  0.00  0.00    +0.000 C 
ATOM     37  H   UNL     1       2.424   3.458  19.597  0.00  0.00    +0.000 HD
ENDBRANCH  25  26
ENDBRANCH   3  25
TORSDOF 4
ENDMDL
MODEL 8
REMARK VINA RESULT:      -8.6      1.431      1.716
REMARK  Name = 
REMARK  4 active torsions:
REMARK  status: ('A' for Active; 'I' for Inactive)
REMARK    1  A    between atoms: C_5  and  C_6
REMARK    2  A    between atoms: C_12  and  C_14
REMARK    3  A    between atoms: C_16  and  C_17
REMARK    4  A    between atoms: C_17  and  C_18
REMARK                            x       y       z     vdW  Elec       q    Type
REMARK                         _______ _______ _______ _____ _____    ______ ____
ROOT
ATOM      1  C   UNL     1       0.555  10.011  19.330  0.00  0.00    +0.000 A 
ATOM      2  C   UNL     1       1.201   9.383  18.246  0.00  0.00    +0.000 A 
ATOM      3  C   UNL     1       1.946   8.205  18.438  0.00  0.00    +0.000 A 
ATOM      4  C   UNL     1       2.102   7.703  19.736  0.00  0.00    +0.000 A 
ATOM      5  C   UNL     1       1.416   8.282  20.798  0.00  0.00    +0.000 A 
ATOM      6  C   UNL     1       0.601   9.387  20.574  0.00  0.00    +0.000 A 
ATOM      7  F   UNL     1      -0.142   9.823  21.601  0.00  0.00    +0.000 F 
ENDROOT
BRANCH   1  14
ATOM      8  C   UNL     1       2.126  16.224  19.090  0.00  0.00    +0.000 C 
ATOM      9  O   UNL     1       1.441  17.247  19.015  0.00  0.00    +0.000 OA
ATOM     10  N   UNL     1       1.576  15.008  19.472  0.00  0.00    +0.000 N 
ATOM     11  C   UNL     1       0.108  14.848  19.507  0.00  0.00    +0.000 C 
ATOM     12  C   UNL     1      -0.363  13.693  18.589  0.00  0.00    +0.000 C 
ATOM     13  N   UNL     1       0.441  12.472  18.789  0.00  0.00    +0.000 N 
ATOM     14  C   UNL     1      -0.207  11.264  19.070  0.00  0.00    +0.000 C 
ATOM     15  O   UNL     1      -1.434  11.172  19.076  0.00  0.00    +0.000 OA
ATOM     16  C   UNL     1       1.885  12.713  18.656  0.00  0.00    +0.000 C 
ATOM     17  C   UNL     1       2.316  13.761  19.696  0.00  0.00    +0.000 C 
BRANCH   8  22
ATOM     18  O   UNL     1       6.455  14.789  20.166  0.00  0.00    +0.000 OA
ATOM     19  C   UNL     1       5.564  15.161  19.429  0.00  0.00    +0.000 C 
ATOM     20  C   UNL     1       5.509  15.003  17.931  0.00  0.00    +0.000 C 
ATOM     21  C   UNL     1       4.033  15.267  17.621  0.00  0.00    +0.000 C 
ATOM     22  C   UNL     1       3.619  16.252  18.707  0.00  0.00    +0.000 C 
ATOM     23  N   UNL     1       4.447  15.863  19.816  0.00  0.00    +0.000 N 
ATOM     24  H   UNL     1       4.240  16.049  20.790  0.00  0.00    +0.000 HD
ENDBRANCH   8  22
ENDBRANCH   1  14
BRANCH   3  25
ATOM     25  C   UNL     1       2.567   7.465  17.272  0.00  0.00    +0.000 C 
BRANCH  25  26
ATOM     26  C   UNL     1       3.667   6.500  17.692  0.00  0.00    +0.000 A 
ATOM     27  N   UNL     1       4.871   6.989  17.765  0.00  0.00    +0.000 NA
ATOM     28  N   UNL     1       5.868   6.143  18.129  0.00  0.00    +0.000 N 
ATOM     29  C   UNL     1       5.733   4.808  18.396  0.00  0.00    +0.000 A 
ATOM     30  O   UNL     1       6.693   4.092  18.655  0.00  0.00    +0.000 OA
ATOM     31  C   UNL     1       4.345   4.281  18.375  0.00  0.00    +0.000 A 
ATOM     32  C   UNL     1       3.322   5.083  18.027  0.00  0.00    +0.000 A 
ATOM     33  C   UNL     1       1.899   4.600  17.996  0.00  0.00    +0.000 C 
ATOM     34  C   UNL     1       1.765   3.077  18.095  0.00  0.00    +0.000 C 
ATOM     35  C   UNL     1       2.718   2.504  19.136  0.00  0.00    +0.000 C 
ATOM     36  C   UNL     1       4.168   2.846  18.787  0.00  0.00    +0.000 C 
ATOM     37  H   UNL     1       6.808   6.526  18.149  0.00  0.00    +0.000 HD
ENDBRANCH  25  26
ENDBRANCH   3  25
TORSDOF 4
ENDMDL
MODEL 9
REMARK VINA RESULT:      -8.5      1.749      2.690
REMARK  Name = 
REMARK  4 active torsions:
REMARK  status: ('A' for Active; 'I' for Inactive)
REMARK    1  A    between atoms: C_5  and  C_6
REMARK    2  A    between atoms: C_12  and  C_14
REMARK    3  A    between atoms: C_16  and  C_17
REMARK    4  A    between atoms: C_17  and  C_18
REMARK                            x       y       z     vdW  Elec       q    Type
REMARK                         _______ _______ _______ _____ _____    ______ ____
ROOT
ATOM      1  C   UNL     1       0.518  10.021  19.332  0.00  0.00    +0.000 A 
ATOM      2  C   UNL     1       1.145   9.264  18.323  0.00  0.00    +0.000 A 
ATOM      3  C   UNL     1       1.873   8.102  18.643  0.00  0.00    +0.000 A 
ATOM      4  C   UNL     1       2.030   7.748  19.988  0.00  0.00    +0.000 A 
ATOM      5  C   UNL     1       1.360   8.455  20.981  0.00  0.00    +0.000 A 
ATOM      6  C   UNL     1       0.562   9.541  20.638  0.00  0.00    +0.000 A 
ATOM      7  F   UNL     1      -0.166  10.103  21.613  0.00  0.00    +0.000 F 
ENDROOT
BRANCH   1  14
ATOM      8  C   UNL     1       2.063  16.230  18.903  0.00  0.00    +0.000 C 
ATOM      9  O   UNL     1       1.381  17.240  18.711  0.00  0.00    +0.000 OA
ATOM     10  N   UNL     1       1.488  15.030  19.298  0.00  0.00    +0.000 N 
ATOM     11  C   UNL     1       0.025  14.855  19.206  0.00  0.00    +0.000 C 
ATOM     12  C   UNL     1      -0.352  13.648  18.312  0.00  0.00    +0.000 C 
ATOM     13  N   UNL     1       0.439  12.449  18.651  0.00  0.00    +0.000 N 
ATOM     14  C   UNL     1      -0.225  11.250  18.936  0.00  0.00    +0.000 C 
ATOM     15  O   UNL     1      -1.446  11.144  18.834  0.00  0.00    +0.000 OA
ATOM     16  C   UNL     1       1.887  12.699  18.638  0.00  0.00    +0.000 C 
ATOM     17  C   UNL     1       2.213  13.805  19.656  0.00  0.00    +0.000 C 
BRANCH   8  22
ATOM     18  O   UNL     1       6.275  14.804  20.384  0.00  0.00    +0.000 OA
ATOM     19  C   UNL     1       5.455  15.170  19.565  0.00  0.00    +0.000 C 
ATOM     20  C   UNL     1       5.538  15.000  18.070  0.00  0.00    +0.000 C 
ATOM     21  C   UNL     1       4.097  15.261  17.624  0.00  0.00    +0.000 C 
ATOM     22  C   UNL     1       3.585  16.256  18.659  0.00  0.00    +0.000 C 
ATOM     23  N   UNL     1       4.308  15.876  19.842  0.00  0.00    +0.000 N 
ATOM     24  H   UNL     1       4.012  16.069  20.792  0.00  0.00    +0.000 HD
ENDBRANCH   8  22
ENDBRANCH   1  14
BRANCH   3  25
ATOM     25  C   UNL     1       2.473   7.224  17.565  0.00  0.00    +0.000 C 
BRANCH  25  26
ATOM     26  C   UNL     1       3.224   6.022  18.121  0.00  0.00    +0.000 A 
ATOM     27  N   UNL     1       2.501   5.093  18.677  0.00  0.00    +0.000 NA
ATOM     28  N   UNL     1       3.153   4.017  19.187  0.00  0.00    +0.000 N 
ATOM     29  C   UNL     1       4.508   3.829  19.202  0.00  0.00    +0.000 A 
ATOM     30  O   UNL     1       5.028   2.860  19.741  0.00  0.00    +0.000 OA
ATOM     31  C   UNL     1       5.312   4.865  18.505  0.00  0.00    +0.000 A 
ATOM     32  C   UNL     1       4.711   5.946  17.977  0.00  0.00    +0.000 A 
ATOM     33  C   UNL     1       5.480   7.019  17.256  0.00  0.00    +0.000 C 
ATOM     34  C   UNL     1       6.996   6.919  17.443  0.00  0.00    +0.000 C 
ATOM     35  C   UNL     1       7.472   5.475  17.346  0.00  0.00    +0.000 C 
ATOM     36  C   UNL     1       6.790   4.608  18.405  0.00  0.00    +0.000 C 
ATOM     37  H   UNL     1       2.584   3.315  19.649  0.00  0.00    +0.000 HD
ENDBRANCH  25  26
ENDBRANCH   3  25
TORSDOF 4
ENDMDL
