MODEL 1
REMARK VINA RESULT:      -7.7      0.000      0.000
REMARK  Name = 
REMARK  6 active torsions:
REMARK  status: ('A' for Active; 'I' for Inactive)
REMARK    1  A    between atoms: C_1  and  C_2
REMARK    2  A    between atoms: C_2  and  O_3
REMARK    3  A    between atoms: O_3  and  C_4
REMARK    4  A    between atoms: C_9  and  N_10
REMARK    5  A    between atoms: C_11  and  C_12
REMARK    6  A    between atoms: C_12  and  N_13
REMARK                            x       y       z     vdW  Elec       q    Type
REMARK                         _______ _______ _______ _____ _____    ______ ____
ROOT
ATOM      1  N   UNL     1       2.012   6.289  19.048  0.00  0.00    +0.000 N 
ATOM      2  C   UNL     1       2.437   5.632  17.910  0.00  0.00    +0.000 A 
ATOM      3  N   UNL     1       1.749   4.564  17.605  0.00  0.00    +0.000 NA
ATOM      4  C   UNL     1       2.115   3.543  18.505  0.00  0.00    +0.000 A 
ATOM      5  C   UNL     1       2.475   2.311  17.963  0.00  0.00    +0.000 A 
ATOM      6  C   UNL     1       3.499   1.595  18.564  0.00  0.00    +0.000 A 
ATOM      7  C   UNL     1       4.085   2.096  19.736  0.00  0.00    +0.000 A 
ATOM      8  C   UNL     1       3.576   3.235  20.387  0.00  0.00    +0.000 A 
ATOM      9  C   UNL     1       2.531   3.963  19.790  0.00  0.00    +0.000 A 
ATOM     10  C   UNL     1       2.197   5.444  20.165  0.00  0.00    +0.000 A 
ATOM     11  O   UNL     1       2.252   5.777  21.345  0.00  0.00    +0.000 OA
ENDROOT
BRANCH   1  17
ATOM     12  C   UNL     1       1.335   8.496  20.050  0.00  0.00    +0.000 A 
ATOM     13  C   UNL     1       1.112   9.878  19.939  0.00  0.00    +0.000 A 
ATOM     14  C   UNL     1       1.535  10.558  18.799  0.00  0.00    +0.000 A 
ATOM     15  C   UNL     1       2.207   9.861  17.794  0.00  0.00    +0.000 A 
ATOM     16  C   UNL     1       2.443   8.477  17.905  0.00  0.00    +0.000 A 
ATOM     17  C   UNL     1       1.969   7.750  19.003  0.00  0.00    +0.000 A 
BRANCH  12  18
ATOM     18  O   UNL     1       0.657   7.836  21.045  0.00  0.00    +0.000 OA
BRANCH  18  20
ATOM     19  C   UNL     1      -0.046   9.234  23.017  0.00  0.00    +0.000 C 
ATOM     20  C   UNL     1      -0.408   8.472  21.752  0.00  0.00    +0.000 C 
ENDBRANCH  18  20
ENDBRANCH  12  18
ENDBRANCH   1  17
BRANCH   2  21
ATOM     21  C   UNL     1       4.006   5.719  17.900  0.00  0.00    +0.000 C 
BRANCH  21  22
ATOM     22  N   UNL     1       4.663   5.894  16.609  0.00  0.00    +0.000 NA
ATOM     23  C   UNL     1       5.083   4.626  16.009  0.00  0.00    +0.000 C 
ATOM     24  C   UNL     1       6.549   4.194  16.119  0.00  0.00    +0.000 C 
ATOM     25  O   UNL     1       7.267   4.848  17.156  0.00  0.00    +0.000 OA
ATOM     26  C   UNL     1       7.193   6.266  17.071  0.00  0.00    +0.000 C 
ATOM     27  C   UNL     1       5.782   6.830  16.837  0.00  0.00    +0.000 C 
ENDBRANCH  21  22
ENDBRANCH   2  21
TORSDOF 5
ENDMDL
MODEL 2
REMARK VINA RESULT:      -7.3      2.026      5.681
REMARK  Name = 
REMARK  6 active torsions:
REMARK  status: ('A' for Active; 'I' for Inactive)
REMARK    1  A    between atoms: C_1  and  C_2
REMARK    2  A    between atoms: C_2  and  O_3
REMARK    3  A    between atoms: O_3  and  C_4
REMARK    4  A    between atoms: C_9  and  N_10
REMARK    5  A    between atoms: C_11  and  C_12
REMARK    6  A    between atoms: C_12  and  N_13
REMARK                            x       y       z     vdW  Elec       q    Type
REMARK                         _______ _______ _______ _____ _____    ______ ____
ROOT
ATOM      1  N   UNL     1       4.476   3.347  17.809  0.00  0.00    +0.000 N 
ATOM      2  C   UNL     1       4.389   4.142  18.934  0.00  0.00    +0.000 A 
ATOM      3  N   UNL     1       4.452   3.495  20.067  0.00  0.00    +0.000 NA
ATOM      4  C   UNL     1       3.219   2.840  20.260  0.00  0.00    +0.000 A 
ATOM      5  C   UNL     1       2.583   3.020  21.486  0.00  0.00    +0.000 A 
ATOM      6  C   UNL     1       1.199   3.116  21.509  0.00  0.00    +0.000 A 
ATOM      7  C   UNL     1       0.485   2.954  20.312  0.00  0.00    +0.000 A 
ATOM      8  C   UNL     1       1.123   2.568  19.118  0.00  0.00    +0.000 A 
ATOM      9  C   UNL     1       2.525   2.460  19.087  0.00  0.00    +0.000 A 
ATOM     10  C   UNL     1       3.357   2.487  17.763  0.00  0.00    +0.000 A 
ATOM     11  O   UNL     1       2.918   1.891  16.783  0.00  0.00    +0.000 OA
ENDROOT
BRANCH   1  17
ATOM     12  C   UNL     1       6.658   4.239  16.925  0.00  0.00    +0.000 A 
ATOM     13  C   UNL     1       7.405   4.886  15.928  0.00  0.00    +0.000 A 
ATOM     14  C   UNL     1       6.834   5.125  14.680  0.00  0.00    +0.000 A 
ATOM     15  C   UNL     1       5.535   4.687  14.425  0.00  0.00    +0.000 A 
ATOM     16  C   UNL     1       4.784   4.028  15.417  0.00  0.00    +0.000 A 
ATOM     17  C   UNL     1       5.300   3.835  16.704  0.00  0.00    +0.000 A 
BRANCH  12  18
ATOM     18  O   UNL     1       7.157   4.284  18.203  0.00  0.00    +0.000 OA
BRANCH  18  20
ATOM     19  C   UNL     1       7.450   6.784  18.159  0.00  0.00    +0.000 C 
ATOM     20  C   UNL     1       7.889   5.419  18.664  0.00  0.00    +0.000 C 
ENDBRANCH  18  20
ENDBRANCH  12  18
ENDBRANCH   1  17
BRANCH   2  21
ATOM     21  C   UNL     1       3.350   5.274  18.607  0.00  0.00    +0.000 C 
BRANCH  21  22
ATOM     22  N   UNL     1       3.611   6.605  19.145  0.00  0.00    +0.000 NA
ATOM     23  C   UNL     1       2.511   7.110  19.969  0.00  0.00    +0.000 C 
ATOM     24  C   UNL     1       1.519   8.109  19.365  0.00  0.00    +0.000 C 
ATOM     25  O   UNL     1       1.505   8.121  17.944  0.00  0.00    +0.000 OA
ATOM     26  C   UNL     1       2.795   8.329  17.380  0.00  0.00    +0.000 C 
ATOM     27  C   UNL     1       3.915   7.468  17.986  0.00  0.00    +0.000 C 
ENDBRANCH  21  22
ENDBRANCH   2  21
TORSDOF 5
ENDMDL
MODEL 3
REMARK VINA RESULT:      -7.1      5.573      9.182
REMARK  Name = 
REMARK  6 active torsions:
REMARK  status: ('A' for Active; 'I' for Inactive)
REMARK    1  A    between atoms: C_1  and  C_2
REMARK    2  A    between atoms: C_2  and  O_3
REMARK    3  A    between atoms: O_3  and  C_4
REMARK    4  A    between atoms: C_9  and  N_10
REMARK    5  A    between atoms: C_11  and  C_12
REMARK    6  A    between atoms: C_12  and  N_13
REMARK                            x       y       z     vdW  Elec       q    Type
REMARK                         _______ _______ _______ _____ _____    ______ ____
ROOT
ATOM      1  N   UNL     1      -0.091  11.974  20.926  0.00  0.00    +0.000 N 
ATOM      2  C   UNL     1      -1.021  12.846  20.395  0.00  0.00    +0.000 A 
ATOM      3  N   UNL     1      -1.089  14.004  20.995  0.00  0.00    +0.000 NA
ATOM      4  C   UNL     1      -1.754  13.817  22.223  0.00  0.00    +0.000 A 
ATOM      5  C   UNL     1      -2.818  14.669  22.512  0.00  0.00    +0.000 A 
ATOM      6  C   UNL     1      -3.920  14.153  23.177  0.00  0.00    +0.000 A 
ATOM      7  C   UNL     1      -3.896  12.817  23.602  0.00  0.00    +0.000 A 
ATOM      8  C   UNL     1      -2.737  12.026  23.487  0.00  0.00    +0.000 A 
ATOM      9  C   UNL     1      -1.611  12.544  22.822  0.00  0.00    +0.000 A 
ATOM     10  C   UNL     1      -0.469  11.644  22.246  0.00  0.00    +0.000 A 
ATOM     11  O   UNL     1      -0.097  10.676  22.904  0.00  0.00    +0.000 OA
ENDROOT
BRANCH   1  17
ATOM     12  C   UNL     1       1.598  11.856  19.064  0.00  0.00    +0.000 A 
ATOM     13  C   UNL     1       2.237  11.154  18.028  0.00  0.00    +0.000 A 
ATOM     14  C   UNL     1       2.039   9.781  17.898  0.00  0.00    +0.000 A 
ATOM     15  C   UNL     1       1.233   9.113  18.820  0.00  0.00    +0.000 A 
ATOM     16  C   UNL     1       0.598   9.810  19.867  0.00  0.00    +0.000 A 
ATOM     17  C   UNL     1       0.717  11.200  19.985  0.00  0.00    +0.000 A 
BRANCH  12  18
ATOM     18  O   UNL     1       1.598  13.225  18.976  0.00  0.00    +0.000 OA
BRANCH  18  20
ATOM     19  C   UNL     1       3.690  14.524  18.450  0.00  0.00    +0.000 C 
ATOM     20  C   UNL     1       2.697  13.992  19.471  0.00  0.00    +0.000 C 
ENDBRANCH  18  20
ENDBRANCH  12  18
ENDBRANCH   1  17
BRANCH   2  21
ATOM     21  C   UNL     1      -2.263  11.980  19.978  0.00  0.00    +0.000 C 
BRANCH  21  22
ATOM     22  N   UNL     1      -2.829  12.207  18.652  0.00  0.00    +0.000 NA
ATOM     23  C   UNL     1      -4.167  11.633  18.499  0.00  0.00    +0.000 C 
ATOM     24  C   UNL     1      -4.330  10.292  17.777  0.00  0.00    +0.000 C 
ATOM     25  O   UNL     1      -3.135   9.527  17.703  0.00  0.00    +0.000 OA
ATOM     26  C   UNL     1      -2.050  10.248  17.132  0.00  0.00    +0.000 C 
ATOM     27  C   UNL     1      -1.849  11.668  17.687  0.00  0.00    +0.000 C 
ENDBRANCH  21  22
ENDBRANCH   2  21
TORSDOF 5
ENDMDL
MODEL 4
REMARK VINA RESULT:      -7.1      6.010      8.553
REMARK  Name = 
REMARK  6 active torsions:
REMARK  status: ('A' for Active; 'I' for Inactive)
REMARK    1  A    between atoms: C_1  and  C_2
REMARK    2  A    between atoms: C_2  and  O_3
REMARK    3  A    between atoms: O_3  and  C_4
REMARK    4  A    between atoms: C_9  and  N_10
REMARK    5  A    between atoms: C_11  and  C_12
REMARK    6  A    between atoms: C_12  and  N_13
REMARK                            x       y       z     vdW  Elec       q    Type
REMARK                         _______ _______ _______ _____ _____    ______ ____
ROOT
ATOM      1  N   UNL     1      -1.507  12.104  21.925  0.00  0.00    +0.000 N 
ATOM      2  C   UNL     1      -1.536  12.511  20.606  0.00  0.00    +0.000 A 
ATOM      3  N   UNL     1      -2.092  11.662  19.784  0.00  0.00    +0.000 NA
ATOM      4  C   UNL     1      -1.190  10.598  19.585  0.00  0.00    +0.000 A 
ATOM      5  C   UNL     1      -0.908  10.235  18.270  0.00  0.00    +0.000 A 
ATOM      6  C   UNL     1       0.383   9.841  17.952  0.00  0.00    +0.000 A 
ATOM      7  C   UNL     1       1.339   9.750  18.975  0.00  0.00    +0.000 A 
ATOM      8  C   UNL     1       0.992   9.920  20.328  0.00  0.00    +0.000 A 
ATOM      9  C   UNL     1      -0.318  10.311  20.661  0.00  0.00    +0.000 A 
ATOM     10  C   UNL     1      -0.696  10.953  22.036  0.00  0.00    +0.000 A 
ATOM     11  O   UNL     1      -0.172  10.510  23.054  0.00  0.00    +0.000 OA
ENDROOT
BRANCH   1  17
ATOM     12  C   UNL     1      -3.118  13.165  23.542  0.00  0.00    +0.000 A 
ATOM     13  C   UNL     1      -3.498  14.229  24.376  0.00  0.00    +0.000 A 
ATOM     14  C   UNL     1      -2.588  15.246  24.659  0.00  0.00    +0.000 A 
ATOM     15  C   UNL     1      -1.297  15.177  24.135  0.00  0.00    +0.000 A 
ATOM     16  C   UNL     1      -0.907  14.107  23.307  0.00  0.00    +0.000 A 
ATOM     17  C   UNL     1      -1.816  13.106  22.944  0.00  0.00    +0.000 A 
BRANCH  12  18
ATOM     18  O   UNL     1      -4.122  12.356  23.073  0.00  0.00    +0.000 OA
BRANCH  18  20
ATOM     19  C   UNL     1      -5.303  13.021  20.952  0.00  0.00    +0.000 C 
ATOM     20  C   UNL     1      -5.290  12.911  22.468  0.00  0.00    +0.000 C 
ENDBRANCH  18  20
ENDBRANCH  12  18
ENDBRANCH   1  17
BRANCH   2  21
ATOM     21  C   UNL     1      -0.182  13.262  20.337  0.00  0.00    +0.000 C 
BRANCH  21  22
ATOM     22  N   UNL     1       0.061  13.749  18.984  0.00  0.00    +0.000 NA
ATOM     23  C   UNL     1       1.395  13.406  18.487  0.00  0.00    +0.000 C 
ATOM     24  C   UNL     1       2.501  14.466  18.516  0.00  0.00    +0.000 C 
ATOM     25  O   UNL     1       2.249  15.539  19.413  0.00  0.00    +0.000 OA
ATOM     26  C   UNL     1       0.993  16.166  19.185  0.00  0.00    +0.000 C 
ATOM     27  C   UNL     1      -0.194  15.203  19.015  0.00  0.00    +0.000 C 
ENDBRANCH  21  22
ENDBRANCH   2  21
TORSDOF 5
ENDMDL
MODEL 5
REMARK VINA RESULT:      -6.9      9.099     11.164
REMARK  Name = 
REMARK  6 active torsions:
REMARK  status: ('A' for Active; 'I' for Inactive)
REMARK    1  A    between atoms: C_1  and  C_2
REMARK    2  A    between atoms: C_2  and  O_3
REMARK    3  A    between atoms: O_3  and  C_4
REMARK    4  A    between atoms: C_9  and  N_10
REMARK    5  A    between atoms: C_11  and  C_12
REMARK    6  A    between atoms: C_12  and  N_13
REMARK                            x       y       z     vdW  Elec       q    Type
REMARK                         _______ _______ _______ _____ _____    ______ ____
ROOT
ATOM      1  N   UNL     1       8.283  14.332  19.842  0.00  0.00    +0.000 N 
ATOM      2  C   UNL     1       8.999  14.391  18.663  0.00  0.00    +0.000 A 
ATOM      3  N   UNL     1       8.931  13.314  17.927  0.00  0.00    +0.000 NA
ATOM      4  C   UNL     1       9.732  12.325  18.532  0.00  0.00    +0.000 A 
ATOM      5  C   UNL     1      10.662  11.673  17.724  0.00  0.00    +0.000 A 
ATOM      6  C   UNL     1      11.893  11.338  18.267  0.00  0.00    +0.000 A 
ATOM      7  C   UNL     1      12.133  11.597  19.625  0.00  0.00    +0.000 A 
ATOM      8  C   UNL     1      11.116  12.066  20.478  0.00  0.00    +0.000 A 
ATOM      9  C   UNL     1       9.861  12.401  19.938  0.00  0.00    +0.000 A 
ATOM     10  C   UNL     1       8.835  13.328  20.668  0.00  0.00    +0.000 A 
ATOM     11  O   UNL     1       8.695  13.206  21.882  0.00  0.00    +0.000 OA
ENDROOT
BRANCH   1  17
ATOM     12  C   UNL     1       6.180  15.713  19.783  0.00  0.00    +0.000 A 
ATOM     13  C   UNL     1       5.503  16.928  19.981  0.00  0.00    +0.000 A 
ATOM     14  C   UNL     1       6.137  17.973  20.649  0.00  0.00    +0.000 A 
ATOM     15  C   UNL     1       7.428  17.788  21.144  0.00  0.00    +0.000 A 
ATOM     16  C   UNL     1       8.108  16.569  20.958  0.00  0.00    +0.000 A 
ATOM     17  C   UNL     1       7.528  15.523  20.230  0.00  0.00    +0.000 A 
BRANCH  12  18
ATOM     18  O   UNL     1       5.626  14.833  18.887  0.00  0.00    +0.000 OA
BRANCH  18  20
ATOM     19  C   UNL     1       3.300  14.701  17.935  0.00  0.00    +0.000 C 
ATOM     20  C   UNL     1       4.704  15.282  17.894  0.00  0.00    +0.000 C 
ENDBRANCH  18  20
ENDBRANCH  12  18
ENDBRANCH   1  17
BRANCH   2  21
ATOM     21  C   UNL     1      10.323  15.176  18.980  0.00  0.00    +0.000 C 
BRANCH  21  22
ATOM     22  N   UNL     1      10.841  16.068  17.948  0.00  0.00    +0.000 NA
ATOM     23  C   UNL     1      11.944  16.906  18.421  0.00  0.00    +0.000 C 
ATOM     24  C   UNL     1      11.665  18.360  18.816  0.00  0.00    +0.000 C 
ATOM     25  O   UNL     1      10.298  18.631  19.093  0.00  0.00    +0.000 OA
ATOM     26  C   UNL     1       9.432  18.250  18.031  0.00  0.00    +0.000 C 
ATOM     27  C   UNL     1       9.686  16.847  17.456  0.00  0.00    +0.000 C 
ENDBRANCH  21  22
ENDBRANCH   2  21
TORSDOF 5
ENDMDL
MODEL 6
REMARK VINA RESULT:      -6.8      1.874      4.538
REMARK  Name = 
REMARK  6 active torsions:
REMARK  status: ('A' for Active; 'I' for Inactive)
REMARK    1  A    between atoms: C_1  and  C_2
REMARK    2  A    between atoms: C_2  and  O_3
REMARK    3  A    between atoms: O_3  and  C_4
REMARK    4  A    between atoms: C_9  and  N_10
REMARK    5  A    between atoms: C_11  and  C_12
REMARK    6  A    between atoms: C_12  and  N_13
REMARK                            x       y       z     vdW  Elec       q    Type
REMARK                         _______ _______ _______ _____ _____    ______ ____
ROOT
ATOM      1  N   UNL     1       3.799   6.752  18.493  0.00  0.00    +0.000 N 
ATOM      2  C   UNL     1       4.415   5.553  18.792  0.00  0.00    +0.000 A 
ATOM      3  N   UNL     1       5.721   5.595  18.798  0.00  0.00    +0.000 NA
ATOM      4  C   UNL     1       6.157   5.651  17.459  0.00  0.00    +0.000 A 
ATOM      5  C   UNL     1       7.133   4.737  17.065  0.00  0.00    +0.000 A 
ATOM      6  C   UNL     1       7.061   4.197  15.790  0.00  0.00    +0.000 A 
ATOM      7  C   UNL     1       6.058   4.643  14.916  0.00  0.00    +0.000 A 
ATOM      8  C   UNL     1       5.208   5.713  15.253  0.00  0.00    +0.000 A 
ATOM      9  C   UNL     1       5.278   6.273  16.541  0.00  0.00    +0.000 A 
ATOM     10  C   UNL     1       4.125   7.122  17.170  0.00  0.00    +0.000 A 
ATOM     11  O   UNL     1       3.526   7.919  16.453  0.00  0.00    +0.000 OA
ENDROOT
BRANCH   1  17
ATOM     12  C   UNL     1       2.022   8.411  19.143  0.00  0.00    +0.000 A 
ATOM     13  C   UNL     1       1.016   8.853  20.019  0.00  0.00    +0.000 A 
ATOM     14  C   UNL     1       0.564   8.014  21.034  0.00  0.00    +0.000 A 
ATOM     15  C   UNL     1       1.093   6.728  21.149  0.00  0.00    +0.000 A 
ATOM     16  C   UNL     1       2.094   6.275  20.267  0.00  0.00    +0.000 A 
ATOM     17  C   UNL     1       2.622   7.117  19.281  0.00  0.00    +0.000 A 
BRANCH  12  18
ATOM     18  O   UNL     1       2.621   9.362  18.356  0.00  0.00    +0.000 OA
BRANCH  18  20
ATOM     19  C   UNL     1       2.438  11.867  18.184  0.00  0.00    +0.000 C 
ATOM     20  C   UNL     1       1.884  10.486  17.874  0.00  0.00    +0.000 C 
ENDBRANCH  18  20
ENDBRANCH  12  18
ENDBRANCH   1  17
BRANCH   2  21
ATOM     21  C   UNL     1       3.559   4.425  18.111  0.00  0.00    +0.000 C 
BRANCH  21  22
ATOM     22  N   UNL     1       3.789   3.051  18.543  0.00  0.00    +0.000 NA
ATOM     23  C   UNL     1       2.745   2.130  18.091  0.00  0.00    +0.000 C 
ATOM     24  C   UNL     1       1.641   1.710  19.068  0.00  0.00    +0.000 C 
ATOM     25  O   UNL     1       1.493   2.582  20.180  0.00  0.00    +0.000 OA
ATOM     26  C   UNL     1       2.708   2.785  20.891  0.00  0.00    +0.000 C 
ATOM     27  C   UNL     1       3.931   3.097  20.012  0.00  0.00    +0.000 C 
ENDBRANCH  21  22
ENDBRANCH   2  21
TORSDOF 5
ENDMDL
MODEL 7
REMARK VINA RESULT:      -6.8      6.394     10.511
REMARK  Name = 
REMARK  6 active torsions:
REMARK  status: ('A' for Active; 'I' for Inactive)
REMARK    1  A    between atoms: C_1  and  C_2
REMARK    2  A    between atoms: C_2  and  O_3
REMARK    3  A    between atoms: O_3  and  C_4
REMARK    4  A    between atoms: C_9  and  N_10
REMARK    5  A    between atoms: C_11  and  C_12
REMARK    6  A    between atoms: C_12  and  N_13
REMARK                            x       y       z     vdW  Elec       q    Type
REMARK                         _______ _______ _______ _____ _____    ______ ____
ROOT
ATOM      1  N   UNL     1      -1.501  12.181  21.121  0.00  0.00    +0.000 N 
ATOM      2  C   UNL     1      -2.474  13.040  20.651  0.00  0.00    +0.000 A 
ATOM      3  N   UNL     1      -2.455  14.232  21.185  0.00  0.00    +0.000 NA
ATOM      4  C   UNL     1      -2.972  14.130  22.491  0.00  0.00    +0.000 A 
ATOM      5  C   UNL     1      -3.983  15.019  22.851  0.00  0.00    +0.000 A 
ATOM      6  C   UNL     1      -5.006  14.566  23.670  0.00  0.00    +0.000 A 
ATOM      7  C   UNL     1      -4.951  13.256  24.168  0.00  0.00    +0.000 A 
ATOM      8  C   UNL     1      -3.825  12.436  23.966  0.00  0.00    +0.000 A 
ATOM      9  C   UNL     1      -2.778  12.890  23.144  0.00  0.00    +0.000 A 
ATOM     10  C   UNL     1      -1.725  11.935  22.494  0.00  0.00    +0.000 A 
ATOM     11  O   UNL     1      -1.292  10.998  23.160  0.00  0.00    +0.000 OA
ENDROOT
BRANCH   1  17
ATOM     12  C   UNL     1       0.609  11.220  20.140  0.00  0.00    +0.000 A 
ATOM     13  C   UNL     1       1.295  10.574  19.099  0.00  0.00    +0.000 A 
ATOM     14  C   UNL     1       0.581  10.005  18.047  0.00  0.00    +0.000 A 
ATOM     15  C   UNL     1      -0.813  10.056  18.058  0.00  0.00    +0.000 A 
ATOM     16  C   UNL     1      -1.508  10.692  19.105  0.00  0.00    +0.000 A 
ATOM     17  C   UNL     1      -0.820  11.337  20.140  0.00  0.00    +0.000 A 
BRANCH  12  18
ATOM     18  O   UNL     1       1.358  11.998  20.988  0.00  0.00    +0.000 OA
BRANCH  18  20
ATOM     19  C   UNL     1       1.264  14.308  19.992  0.00  0.00    +0.000 C 
ATOM     20  C   UNL     1       2.079  13.130  20.500  0.00  0.00    +0.000 C 
ENDBRANCH  18  20
ENDBRANCH  12  18
ENDBRANCH   1  17
BRANCH   2  21
ATOM     21  C   UNL     1      -3.769  12.177  20.435  0.00  0.00    +0.000 C 
BRANCH  21  22
ATOM     22  N   UNL     1      -4.885  12.802  19.733  0.00  0.00    +0.000 NA
ATOM     23  C   UNL     1      -6.101  12.872  20.546  0.00  0.00    +0.000 C 
ATOM     24  C   UNL     1      -7.209  11.838  20.328  0.00  0.00    +0.000 C 
ATOM     25  O   UNL     1      -6.777  10.660  19.661  0.00  0.00    +0.000 OA
ATOM     26  C   UNL     1      -6.126  10.930  18.426  0.00  0.00    +0.000 C 
ATOM     27  C   UNL     1      -5.065  12.042  18.480  0.00  0.00    +0.000 C 
ENDBRANCH  21  22
ENDBRANCH   2  21
TORSDOF 5
ENDMDL
MODEL 8
REMARK VINA RESULT:      -6.7      5.915      8.681
REMARK  Name = 
REMARK  6 active torsions:
REMARK  status: ('A' for Active; 'I' for Inactive)
REMARK    1  A    between atoms: C_1  and  C_2
REMARK    2  A    between atoms: C_2  and  O_3
REMARK    3  A    between atoms: O_3  and  C_4
REMARK    4  A    between atoms: C_9  and  N_10
REMARK    5  A    between atoms: C_11  and  C_12
REMARK    6  A    between atoms: C_12  and  N_13
REMARK                            x       y       z     vdW  Elec       q    Type
REMARK                         _______ _______ _______ _____ _____    ______ ____
ROOT
ATOM      1  N   UNL     1      -1.162  12.412  21.802  0.00  0.00    +0.000 N 
ATOM      2  C   UNL     1      -1.096  12.753  20.466  0.00  0.00    +0.000 A 
ATOM      3  N   UNL     1      -1.789  11.983  19.670  0.00  0.00    +0.000 NA
ATOM      4  C   UNL     1      -1.098  10.762  19.540  0.00  0.00    +0.000 A 
ATOM      5  C   UNL     1      -0.870  10.290  18.249  0.00  0.00    +0.000 A 
ATOM      6  C   UNL     1       0.330   9.650  17.978  0.00  0.00    +0.000 A 
ATOM      7  C   UNL     1       1.238   9.433  19.025  0.00  0.00    +0.000 A 
ATOM      8  C   UNL     1       0.910   9.729  20.361  0.00  0.00    +0.000 A 
ATOM      9  C   UNL     1      -0.309  10.371  20.647  0.00  0.00    +0.000 A 
ATOM     10  C   UNL     1      -0.580  11.137  21.982  0.00  0.00    +0.000 A 
ATOM     11  O   UNL     1      -0.162  10.654  23.031  0.00  0.00    +0.000 OA
ENDROOT
BRANCH   1  17
ATOM     12  C   UNL     1      -2.401  13.544  23.677  0.00  0.00    +0.000 A 
ATOM     13  C   UNL     1      -2.653  14.670  24.479  0.00  0.00    +0.000 A 
ATOM     14  C   UNL     1      -1.799  15.769  24.417  0.00  0.00    +0.000 A 
ATOM     15  C   UNL     1      -0.682  15.724  23.582  0.00  0.00    +0.000 A 
ATOM     16  C   UNL     1      -0.418  14.594  22.785  0.00  0.00    +0.000 A 
ATOM     17  C   UNL     1      -1.294  13.501  22.768  0.00  0.00    +0.000 A 
BRANCH  12  18
ATOM     18  O   UNL     1      -3.413  12.623  23.566  0.00  0.00    +0.000 OA
BRANCH  18  20
ATOM     19  C   UNL     1      -5.835  12.633  24.250  0.00  0.00    +0.000 C 
ATOM     20  C   UNL     1      -4.370  12.454  24.612  0.00  0.00    +0.000 C 
ENDBRANCH  18  20
ENDBRANCH  12  18
ENDBRANCH   1  17
BRANCH   2  21
ATOM     21  C   UNL     1       0.377  13.226  20.194  0.00  0.00    +0.000 C 
BRANCH  21  22
ATOM     22  N   UNL     1       0.625  13.990  18.976  0.00  0.00    +0.000 NA
ATOM     23  C   UNL     1       2.043  14.299  18.778  0.00  0.00    +0.000 C 
ATOM     24  C   UNL     1       2.566  15.691  19.146  0.00  0.00    +0.000 C 
ATOM     25  O   UNL     1       1.724  16.406  20.039  0.00  0.00    +0.000 OA
ATOM     26  C   UNL     1       0.383  16.507  19.576  0.00  0.00    +0.000 C 
ATOM     27  C   UNL     1      -0.227  15.193  19.060  0.00  0.00    +0.000 C 
ENDBRANCH  21  22
ENDBRANCH   2  21
TORSDOF 5
ENDMDL
MODEL 9
REMARK VINA RESULT:      -6.7      7.432     10.809
REMARK  Name = 
REMARK  6 active torsions:
REMARK  status: ('A' for Active; 'I' for Inactive)
REMARK    1  A    between atoms: C_1  and  C_2
REMARK    2  A    between atoms: C_2  and  O_3
REMARK    3  A    between atoms: O_3  and  C_4
REMARK    4  A    between atoms: C_9  and  N_10
REMARK    5  A    between atoms: C_11  and  C_12
REMARK    6  A    between atoms: C_12  and  N_13
REMARK                            x       y       z     vdW  Elec       q    Type
REMARK                         _______ _______ _______ _____ _____    ______ ____
ROOT
ATOM      1  N   UNL     1      -4.673  13.249  21.327  0.00  0.00    +0.000 N 
ATOM      2  C   UNL     1      -3.585  12.644  21.922  0.00  0.00    +0.000 A 
ATOM      3  N   UNL     1      -3.440  12.909  23.193  0.00  0.00    +0.000 NA
ATOM      4  C   UNL     1      -2.952  14.227  23.307  0.00  0.00    +0.000 A 
ATOM      5  C   UNL     1      -1.829  14.426  24.108  0.00  0.00    +0.000 A 
ATOM      6  C   UNL     1      -0.887  15.363  23.708  0.00  0.00    +0.000 A 
ATOM      7  C   UNL     1      -1.131  16.126  22.557  0.00  0.00    +0.000 A 
ATOM      8  C   UNL     1      -2.360  16.061  21.874  0.00  0.00    +0.000 A 
ATOM      9  C   UNL     1      -3.325  15.121  22.278  0.00  0.00    +0.000 A 
ATOM     10  C   UNL     1      -4.497  14.650  21.356  0.00  0.00    +0.000 A 
ATOM     11  O   UNL     1      -5.064  15.484  20.655  0.00  0.00    +0.000 OA
ENDROOT
BRANCH   1  17
ATOM     12  C   UNL     1      -6.599  11.703  20.840  0.00  0.00    +0.000 A 
ATOM     13  C   UNL     1      -7.252  10.779  20.007  0.00  0.00    +0.000 A 
ATOM     14  C   UNL     1      -6.806  10.589  18.701  0.00  0.00    +0.000 A 
ATOM     15  C   UNL     1      -5.734  11.344  18.225  0.00  0.00    +0.000 A 
ATOM     16  C   UNL     1      -5.083  12.280  19.052  0.00  0.00    +0.000 A 
ATOM     17  C   UNL     1      -5.459  12.446  20.390  0.00  0.00    +0.000 A 
BRANCH  12  18
ATOM     18  O   UNL     1      -6.891  11.645  22.180  0.00  0.00    +0.000 OA
BRANCH  18  20
ATOM     19  C   UNL     1      -7.480  13.253  24.026  0.00  0.00    +0.000 C 
ATOM     20  C   UNL     1      -7.868  12.513  22.756  0.00  0.00    +0.000 C 
ENDBRANCH  18  20
ENDBRANCH  12  18
ENDBRANCH   1  17
BRANCH   2  21
ATOM     21  C   UNL     1      -2.423  12.667  20.865  0.00  0.00    +0.000 C 
BRANCH  21  22
ATOM     22  N   UNL     1      -1.330  11.717  21.045  0.00  0.00    +0.000 NA
ATOM     23  C   UNL     1      -0.122  12.337  21.592  0.00  0.00    +0.000 C 
ATOM     24  C   UNL     1       1.029  12.699  20.649  0.00  0.00    +0.000 C 
ATOM     25  O   UNL     1       0.648  12.794  19.283  0.00  0.00    +0.000 OA
ATOM     26  C   UNL     1      -0.008  11.626  18.809  0.00  0.00    +0.000 C 
ATOM     27  C   UNL     1      -1.114  11.082  19.729  0.00  0.00    +0.000 C 
ENDBRANCH  21  22
ENDBRANCH   2  21
TORSDOF 5
ENDMDL
