MODEL 1
REMARK VINA RESULT:      -8.2      0.000      0.000
REMARK  Name = 
REMARK  4 active torsions:
REMARK  status: ('A' for Active; 'I' for Inactive)
REMARK    1  A    between atoms: C_5  and  C_6
REMARK    2  A    between atoms: C_6  and  C_7
REMARK    3  A    between atoms: C_14  and  C_15
REMARK    4  A    between atoms: C_15  and  C_16
REMARK                            x       y       z     vdW  Elec       q    Type
REMARK                         _______ _______ _______ _____ _____    ______ ____
ROOT
ATOM      1  O   UNL     1       4.722   2.097  20.606  0.00  0.00    +0.000 OA
ATOM      2  C   UNL     1       4.227   2.474  19.556  0.00  0.00    +0.000 C 
ATOM      3  O   UNL     1       3.772   1.634  18.586  0.00  0.00    +0.000 OA
ATOM      4  C   UNL     1       3.159   2.394  17.551  0.00  0.00    +0.000 C 
ATOM      5  C   UNL     1       3.746   3.789  17.663  0.00  0.00    +0.000 C 
ATOM      6  C   UNL     1       4.002   3.914  19.171  0.00  0.00    +0.000 C 
ENDROOT
BRANCH   5   7
ATOM      7  C   UNL     1       5.078   3.941  16.879  0.00  0.00    +0.000 C 
BRANCH   7   8
ATOM      8  C   UNL     1       5.993   5.047  17.366  0.00  0.00    +0.000 A 
ATOM      9  C   UNL     1       6.879   4.767  18.425  0.00  0.00    +0.000 A 
ATOM     10  C   UNL     1       7.798   5.720  18.868  0.00  0.00    +0.000 A 
ATOM     11  C   UNL     1       7.854   6.969  18.260  0.00  0.00    +0.000 A 
ATOM     12  C   UNL     1       6.955   7.280  17.240  0.00  0.00    +0.000 A 
ATOM     13  C   UNL     1       6.015   6.337  16.812  0.00  0.00    +0.000 A 
ATOM     14 CL   UNL     1       4.881   6.843  15.612  0.00  0.00    +0.000 Cl
ENDBRANCH   7   8
ENDBRANCH   5   7
BRANCH   6  15
ATOM     15  C   UNL     1       2.834   4.450  20.011  0.00  0.00    +0.000 C 
BRANCH  15  16
ATOM     16  C   UNL     1       2.433   5.877  19.710  0.00  0.00    +0.000 A 
ATOM     17  C   UNL     1       1.836   6.665  20.705  0.00  0.00    +0.000 A 
ATOM     18  C   UNL     1       1.478   7.991  20.446  0.00  0.00    +0.000 A 
ATOM     19  C   UNL     1       1.722   8.543  19.191  0.00  0.00    +0.000 A 
ATOM     20  I   UNL     1       1.155  10.504  18.794  0.00  0.00    +0.000 I 
ATOM     21  C   UNL     1       2.344   7.785  18.201  0.00  0.00    +0.000 A 
ATOM     22  C   UNL     1       2.703   6.459  18.463  0.00  0.00    +0.000 A 
ENDBRANCH  15  16
ENDBRANCH   6  15
TORSDOF 4
ENDMDL
MODEL 2
REMARK VINA RESULT:      -8.1      0.067      1.031
REMARK  Name = 
REMARK  4 active torsions:
REMARK  status: ('A' for Active; 'I' for Inactive)
REMARK    1  A    between atoms: C_5  and  C_6
REMARK    2  A    between atoms: C_6  and  C_7
REMARK    3  A    between atoms: C_14  and  C_15
REMARK    4  A    between atoms: C_15  and  C_16
REMARK                            x       y       z     vdW  Elec       q    Type
REMARK                         _______ _______ _______ _____ _____    ______ ____
ROOT
ATOM      1  O   UNL     1       4.725   2.204  20.653  0.00  0.00    +0.000 OA
ATOM      2  C   UNL     1       4.237   2.539  19.586  0.00  0.00    +0.000 C 
ATOM      3  O   UNL     1       3.810   1.662  18.637  0.00  0.00    +0.000 OA
ATOM      4  C   UNL     1       3.195   2.379  17.572  0.00  0.00    +0.000 C 
ATOM      5  C   UNL     1       3.753   3.788  17.649  0.00  0.00    +0.000 C 
ATOM      6  C   UNL     1       3.989   3.962  19.155  0.00  0.00    +0.000 C 
ENDROOT
BRANCH   5   7
ATOM      7  C   UNL     1       5.092   3.942  16.877  0.00  0.00    +0.000 C 
BRANCH   7   8
ATOM      8  C   UNL     1       5.992   5.061  17.360  0.00  0.00    +0.000 A 
ATOM      9  C   UNL     1       6.882   4.795  18.420  0.00  0.00    +0.000 A 
ATOM     10  C   UNL     1       7.788   5.761  18.861  0.00  0.00    +0.000 A 
ATOM     11  C   UNL     1       7.829   7.008  18.248  0.00  0.00    +0.000 A 
ATOM     12  C   UNL     1       6.927   7.305  17.227  0.00  0.00    +0.000 A 
ATOM     13  C   UNL     1       6.000   6.349  16.801  0.00  0.00    +0.000 A 
ATOM     14 CL   UNL     1       4.860   6.837  15.599  0.00  0.00    +0.000 Cl
ENDBRANCH   7   8
ENDBRANCH   5   7
BRANCH   6  15
ATOM     15  C   UNL     1       2.800   4.501  19.965  0.00  0.00    +0.000 C 
BRANCH  15  16
ATOM     16  C   UNL     1       2.440   5.943  19.689  0.00  0.00    +0.000 A 
ATOM     17  C   UNL     1       2.673   6.497  18.422  0.00  0.00    +0.000 A 
ATOM     18  C   UNL     1       2.328   7.824  18.148  0.00  0.00    +0.000 A 
ATOM     19  C   UNL     1       1.738   8.606  19.138  0.00  0.00    +0.000 A 
ATOM     20  I   UNL     1       1.258  10.590  18.742  0.00  0.00    +0.000 I 
ATOM     21  C   UNL     1       1.469   8.062  20.392  0.00  0.00    +0.000 A 
ATOM     22  C   UNL     1       1.814   6.734  20.663  0.00  0.00    +0.000 A 
ENDBRANCH  15  16
ENDBRANCH   6  15
TORSDOF 4
ENDMDL
MODEL 3
REMARK VINA RESULT:      -8.1      2.255      4.442
REMARK  Name = 
REMARK  4 active torsions:
REMARK  status: ('A' for Active; 'I' for Inactive)
REMARK    1  A    between atoms: C_5  and  C_6
REMARK    2  A    between atoms: C_6  and  C_7
REMARK    3  A    between atoms: C_14  and  C_15
REMARK    4  A    between atoms: C_15  and  C_16
REMARK                            x       y       z     vdW  Elec       q    Type
REMARK                         _______ _______ _______ _____ _____    ______ ____
ROOT
ATOM      1  O   UNL     1       4.713   4.253  15.573  0.00  0.00    +0.000 OA
ATOM      2  C   UNL     1       5.122   4.589  16.672  0.00  0.00    +0.000 C 
ATOM      3  O   UNL     1       6.410   4.428  17.084  0.00  0.00    +0.000 OA
ATOM      4  C   UNL     1       6.574   5.024  18.366  0.00  0.00    +0.000 C 
ATOM      5  C   UNL     1       5.185   5.083  18.973  0.00  0.00    +0.000 C 
ATOM      6  C   UNL     1       4.296   5.266  17.736  0.00  0.00    +0.000 C 
ENDROOT
BRANCH   5   7
ATOM      7  C   UNL     1       4.803   3.774  19.717  0.00  0.00    +0.000 C 
BRANCH   7   8
ATOM      8  C   UNL     1       3.322   3.455  19.748  0.00  0.00    +0.000 A 
ATOM      9  C   UNL     1       2.511   4.129  20.684  0.00  0.00    +0.000 A 
ATOM     10  C   UNL     1       1.129   3.934  20.713  0.00  0.00    +0.000 A 
ATOM     11  C   UNL     1       0.529   3.069  19.805  0.00  0.00    +0.000 A 
ATOM     12  C   UNL     1       1.319   2.361  18.900  0.00  0.00    +0.000 A 
ATOM     13  C   UNL     1       2.707   2.532  18.887  0.00  0.00    +0.000 A 
ATOM     14 CL   UNL     1       3.614   1.543  17.800  0.00  0.00    +0.000 Cl
ENDBRANCH   7   8
ENDBRANCH   5   7
BRANCH   6  15
ATOM     15  C   UNL     1       4.050   6.715  17.292  0.00  0.00    +0.000 C 
BRANCH  15  16
ATOM     16  C   UNL     1       3.074   7.489  18.149  0.00  0.00    +0.000 A 
ATOM     17  C   UNL     1       2.457   8.643  17.646  0.00  0.00    +0.000 A 
ATOM     18  C   UNL     1       1.538   9.358  18.421  0.00  0.00    +0.000 A 
ATOM     19  C   UNL     1       1.221   8.917  19.703  0.00  0.00    +0.000 A 
ATOM     20  I   UNL     1      -0.117   9.999  20.870  0.00  0.00    +0.000 I 
ATOM     21  C   UNL     1       1.799   7.753  20.207  0.00  0.00    +0.000 A 
ATOM     22  C   UNL     1       2.717   7.039  19.429  0.00  0.00    +0.000 A 
ENDBRANCH  15  16
ENDBRANCH   6  15
TORSDOF 4
ENDMDL
MODEL 4
REMARK VINA RESULT:      -8.0      2.255      4.385
REMARK  Name = 
REMARK  4 active torsions:
REMARK  status: ('A' for Active; 'I' for Inactive)
REMARK    1  A    between atoms: C_5  and  C_6
REMARK    2  A    between atoms: C_6  and  C_7
REMARK    3  A    between atoms: C_14  and  C_15
REMARK    4  A    between atoms: C_15  and  C_16
REMARK                            x       y       z     vdW  Elec       q    Type
REMARK                         _______ _______ _______ _____ _____    ______ ____
ROOT
ATOM      1  O   UNL     1       5.119   4.327  15.503  0.00  0.00    +0.000 OA
ATOM      2  C   UNL     1       5.387   4.669  16.644  0.00  0.00    +0.000 C 
ATOM      3  O   UNL     1       6.635   4.600  17.183  0.00  0.00    +0.000 OA
ATOM      4  C   UNL     1       6.621   5.179  18.483  0.00  0.00    +0.000 C 
ATOM      5  C   UNL     1       5.177   5.115  18.946  0.00  0.00    +0.000 C 
ATOM      6  C   UNL     1       4.407   5.256  17.626  0.00  0.00    +0.000 C 
ENDROOT
BRANCH   5   7
ATOM      7  C   UNL     1       4.828   3.764  19.628  0.00  0.00    +0.000 C 
BRANCH   7   8
ATOM      8  C   UNL     1       3.351   3.431  19.686  0.00  0.00    +0.000 A 
ATOM      9  C   UNL     1       2.565   4.041  20.685  0.00  0.00    +0.000 A 
ATOM     10  C   UNL     1       1.185   3.833  20.744  0.00  0.00    +0.000 A 
ATOM     11  C   UNL     1       0.563   3.017  19.806  0.00  0.00    +0.000 A 
ATOM     12  C   UNL     1       1.330   2.370  18.838  0.00  0.00    +0.000 A 
ATOM     13  C   UNL     1       2.716   2.555  18.792  0.00  0.00    +0.000 A 
ATOM     14 CL   UNL     1       3.595   1.639  17.621  0.00  0.00    +0.000 Cl
ENDBRANCH   7   8
ENDBRANCH   5   7
BRANCH   6  15
ATOM     15  C   UNL     1       4.091   6.691  17.180  0.00  0.00    +0.000 C 
BRANCH  15  16
ATOM     16  C   UNL     1       3.098   7.427  18.050  0.00  0.00    +0.000 A 
ATOM     17  C   UNL     1       2.812   6.961  19.342  0.00  0.00    +0.000 A 
ATOM     18  C   UNL     1       1.909   7.643  20.164  0.00  0.00    +0.000 A 
ATOM     19  C   UNL     1       1.291   8.802  19.703  0.00  0.00    +0.000 A 
ATOM     20  I   UNL     1      -0.079   9.796  20.910  0.00  0.00    +0.000 I 
ATOM     21  C   UNL     1       1.588   9.298  18.435  0.00  0.00    +0.000 A 
ATOM     22  C   UNL     1       2.493   8.615  17.615  0.00  0.00    +0.000 A 
ENDBRANCH  15  16
ENDBRANCH   6  15
TORSDOF 4
ENDMDL
MODEL 5
REMARK VINA RESULT:      -7.8      2.387      4.507
REMARK  Name = 
REMARK  4 active torsions:
REMARK  status: ('A' for Active; 'I' for Inactive)
REMARK    1  A    between atoms: C_5  and  C_6
REMARK    2  A    between atoms: C_6  and  C_7
REMARK    3  A    between atoms: C_14  and  C_15
REMARK    4  A    between atoms: C_15  and  C_16
REMARK                            x       y       z     vdW  Elec       q    Type
REMARK                         _______ _______ _______ _____ _____    ______ ____
ROOT
ATOM      1  O   UNL     1       6.053   5.248  15.225  0.00  0.00    +0.000 OA
ATOM      2  C   UNL     1       5.861   5.222  16.430  0.00  0.00    +0.000 C 
ATOM      3  O   UNL     1       6.832   4.961  17.348  0.00  0.00    +0.000 OA
ATOM      4  C   UNL     1       6.299   5.119  18.658  0.00  0.00    +0.000 C 
ATOM      5  C   UNL     1       4.798   4.954  18.514  0.00  0.00    +0.000 C 
ATOM      6  C   UNL     1       4.544   5.507  17.105  0.00  0.00    +0.000 C 
ENDROOT
BRANCH   5   7
ATOM      7  C   UNL     1       4.350   3.469  18.595  0.00  0.00    +0.000 C 
BRANCH   7   8
ATOM      8  C   UNL     1       3.181   3.195  19.519  0.00  0.00    +0.000 A 
ATOM      9  C   UNL     1       3.442   2.618  20.778  0.00  0.00    +0.000 A 
ATOM     10  C   UNL     1       2.417   2.410  21.703  0.00  0.00    +0.000 A 
ATOM     11  C   UNL     1       1.113   2.778  21.392  0.00  0.00    +0.000 A 
ATOM     12  C   UNL     1       0.828   3.309  20.135  0.00  0.00    +0.000 A 
ATOM     13  C   UNL     1       1.847   3.494  19.196  0.00  0.00    +0.000 A 
ATOM     14 CL   UNL     1       1.386   4.066  17.633  0.00  0.00    +0.000 Cl
ENDBRANCH   7   8
ENDBRANCH   5   7
BRANCH   6  15
ATOM     15  C   UNL     1       4.282   7.017  17.011  0.00  0.00    +0.000 C 
BRANCH  15  16
ATOM     16  C   UNL     1       3.277   7.554  18.006  0.00  0.00    +0.000 A 
ATOM     17  C   UNL     1       2.556   8.721  17.717  0.00  0.00    +0.000 A 
ATOM     18  C   UNL     1       1.611   9.219  18.620  0.00  0.00    +0.000 A 
ATOM     19  C   UNL     1       1.373   8.547  19.816  0.00  0.00    +0.000 A 
ATOM     20  I   UNL     1      -0.005   9.306  21.174  0.00  0.00    +0.000 I 
ATOM     21  C   UNL     1       2.057   7.367  20.104  0.00  0.00    +0.000 A 
ATOM     22  C   UNL     1       3.001   6.871  19.199  0.00  0.00    +0.000 A 
ENDBRANCH  15  16
ENDBRANCH   6  15
TORSDOF 4
ENDMDL
MODEL 6
REMARK VINA RESULT:      -7.5      2.603      4.667
REMARK  Name = 
REMARK  4 active torsions:
REMARK  status: ('A' for Active; 'I' for Inactive)
REMARK    1  A    between atoms: C_5  and  C_6
REMARK    2  A    between atoms: C_6  and  C_7
REMARK    3  A    between atoms: C_14  and  C_15
REMARK    4  A    between atoms: C_15  and  C_16
REMARK                            x       y       z     vdW  Elec       q    Type
REMARK                         _______ _______ _______ _____ _____    ______ ____
ROOT
ATOM      1  O   UNL     1       5.269   4.837  14.612  0.00  0.00    +0.000 OA
ATOM      2  C   UNL     1       5.386   4.767  15.825  0.00  0.00    +0.000 C 
ATOM      3  O   UNL     1       6.489   4.276  16.454  0.00  0.00    +0.000 OA
ATOM      4  C   UNL     1       6.344   4.441  17.860  0.00  0.00    +0.000 C 
ATOM      5  C   UNL     1       4.852   4.560  18.109  0.00  0.00    +0.000 C 
ATOM      6  C   UNL     1       4.362   5.240  16.824  0.00  0.00    +0.000 C 
ENDROOT
BRANCH   5   7
ATOM      7  C   UNL     1       4.164   3.178  18.279  0.00  0.00    +0.000 C 
BRANCH   7   8
ATOM      8  C   UNL     1       3.170   3.086  19.419  0.00  0.00    +0.000 A 
ATOM      9  C   UNL     1       1.920   3.721  19.272  0.00  0.00    +0.000 A 
ATOM     10  C   UNL     1       0.934   3.611  20.254  0.00  0.00    +0.000 A 
ATOM     11  C   UNL     1       1.174   2.860  21.400  0.00  0.00    +0.000 A 
ATOM     12  C   UNL     1       2.420   2.261  21.583  0.00  0.00    +0.000 A 
ATOM     13  C   UNL     1       3.419   2.392  20.614  0.00  0.00    +0.000 A 
ATOM     14 CL   UNL     1       4.960   1.698  20.970  0.00  0.00    +0.000 Cl
ENDBRANCH   7   8
ENDBRANCH   5   7
BRANCH   6  15
ATOM     15  C   UNL     1       4.379   6.776  16.827  0.00  0.00    +0.000 C 
BRANCH  15  16
ATOM     16  C   UNL     1       3.372   7.424  17.750  0.00  0.00    +0.000 A 
ATOM     17  C   UNL     1       3.098   6.858  19.003  0.00  0.00    +0.000 A 
ATOM     18  C   UNL     1       2.183   7.458  19.874  0.00  0.00    +0.000 A 
ATOM     19  C   UNL     1       1.540   8.636  19.500  0.00  0.00    +0.000 A 
ATOM     20  I   UNL     1       0.153   9.508  20.779  0.00  0.00    +0.000 I 
ATOM     21  C   UNL     1       1.824   9.230  18.272  0.00  0.00    +0.000 A 
ATOM     22  C   UNL     1       2.742   8.629  17.404  0.00  0.00    +0.000 A 
ENDBRANCH  15  16
ENDBRANCH   6  15
TORSDOF 4
ENDMDL
MODEL 7
REMARK VINA RESULT:      -7.4      2.381      4.458
REMARK  Name = 
REMARK  4 active torsions:
REMARK  status: ('A' for Active; 'I' for Inactive)
REMARK    1  A    between atoms: C_5  and  C_6
REMARK    2  A    between atoms: C_6  and  C_7
REMARK    3  A    between atoms: C_14  and  C_15
REMARK    4  A    between atoms: C_15  and  C_16
REMARK                            x       y       z     vdW  Elec       q    Type
REMARK                         _______ _______ _______ _____ _____    ______ ____
ROOT
ATOM      1  O   UNL     1       4.945   4.345  15.414  0.00  0.00    +0.000 OA
ATOM      2  C   UNL     1       5.295   4.621  16.550  0.00  0.00    +0.000 C 
ATOM      3  O   UNL     1       6.558   4.430  17.023  0.00  0.00    +0.000 OA
ATOM      4  C   UNL     1       6.653   4.958  18.341  0.00  0.00    +0.000 C 
ATOM      5  C   UNL     1       5.233   4.994  18.874  0.00  0.00    +0.000 C 
ATOM      6  C   UNL     1       4.415   5.247  17.601  0.00  0.00    +0.000 C 
ENDROOT
BRANCH   5   7
ATOM      7  C   UNL     1       4.806   3.651  19.526  0.00  0.00    +0.000 C 
BRANCH   7   8
ATOM      8  C   UNL     1       3.376   3.228  19.260  0.00  0.00    +0.000 A 
ATOM      9  C   UNL     1       3.087   2.565  18.050  0.00  0.00    +0.000 A 
ATOM     10  C   UNL     1       1.804   2.085  17.779  0.00  0.00    +0.000 A 
ATOM     11  C   UNL     1       0.787   2.251  18.712  0.00  0.00    +0.000 A 
ATOM     12  C   UNL     1       1.043   2.942  19.896  0.00  0.00    +0.000 A 
ATOM     13  C   UNL     1       2.320   3.448  20.159  0.00  0.00    +0.000 A 
ATOM     14 CL   UNL     1       2.519   4.373  21.603  0.00  0.00    +0.000 Cl
ENDBRANCH   7   8
ENDBRANCH   5   7
BRANCH   6  15
ATOM     15  C   UNL     1       4.198   6.719  17.221  0.00  0.00    +0.000 C 
BRANCH  15  16
ATOM     16  C   UNL     1       3.167   7.448  18.051  0.00  0.00    +0.000 A 
ATOM     17  C   UNL     1       2.839   6.985  19.333  0.00  0.00    +0.000 A 
ATOM     18  C   UNL     1       1.900   7.661  20.119  0.00  0.00    +0.000 A 
ATOM     19  C   UNL     1       1.288   8.813  19.631  0.00  0.00    +0.000 A 
ATOM     20  I   UNL     1      -0.135   9.797  20.783  0.00  0.00    +0.000 I 
ATOM     21  C   UNL     1       1.626   9.306  18.372  0.00  0.00    +0.000 A 
ATOM     22  C   UNL     1       2.567   8.629  17.589  0.00  0.00    +0.000 A 
ENDBRANCH  15  16
ENDBRANCH   6  15
TORSDOF 4
ENDMDL
MODEL 8
REMARK VINA RESULT:      -7.3      2.690      4.751
REMARK  Name = 
REMARK  4 active torsions:
REMARK  status: ('A' for Active; 'I' for Inactive)
REMARK    1  A    between atoms: C_5  and  C_6
REMARK    2  A    between atoms: C_6  and  C_7
REMARK    3  A    between atoms: C_14  and  C_15
REMARK    4  A    between atoms: C_15  and  C_16
REMARK                            x       y       z     vdW  Elec       q    Type
REMARK                         _______ _______ _______ _____ _____    ______ ____
ROOT
ATOM      1  O   UNL     1       5.571   5.352  14.422  0.00  0.00    +0.000 OA
ATOM      2  C   UNL     1       5.686   5.136  15.618  0.00  0.00    +0.000 C 
ATOM      3  O   UNL     1       6.816   4.643  16.195  0.00  0.00    +0.000 OA
ATOM      4  C   UNL     1       6.652   4.618  17.609  0.00  0.00    +0.000 C 
ATOM      5  C   UNL     1       5.154   4.605  17.849  0.00  0.00    +0.000 C 
ATOM      6  C   UNL     1       4.626   5.410  16.654  0.00  0.00    +0.000 C 
ENDROOT
BRANCH   5   7
ATOM      7  C   UNL     1       4.559   3.170  17.833  0.00  0.00    +0.000 C 
BRANCH   7   8
ATOM      8  C   UNL     1       3.224   3.015  18.533  0.00  0.00    +0.000 A 
ATOM      9  C   UNL     1       2.057   3.397  17.842  0.00  0.00    +0.000 A 
ATOM     10  C   UNL     1       0.792   3.210  18.403  0.00  0.00    +0.000 A 
ATOM     11  C   UNL     1       0.668   2.633  19.662  0.00  0.00    +0.000 A 
ATOM     12  C   UNL     1       1.813   2.288  20.379  0.00  0.00    +0.000 A 
ATOM     13  C   UNL     1       3.082   2.500  19.831  0.00  0.00    +0.000 A 
ATOM     14 CL   UNL     1       4.443   2.133  20.829  0.00  0.00    +0.000 Cl
ENDBRANCH   7   8
ENDBRANCH   5   7
BRANCH   6  15
ATOM     15  C   UNL     1       4.540   6.930  16.852  0.00  0.00    +0.000 C 
BRANCH  15  16
ATOM     16  C   UNL     1       3.524   7.385  17.875  0.00  0.00    +0.000 A 
ATOM     17  C   UNL     1       2.797   8.566  17.668  0.00  0.00    +0.000 A 
ATOM     18  C   UNL     1       1.841   8.988  18.597  0.00  0.00    +0.000 A 
ATOM     19  C   UNL     1       1.598   8.226  19.738  0.00  0.00    +0.000 A 
ATOM     20  I   UNL     1       0.203   8.873  21.137  0.00  0.00    +0.000 I 
ATOM     21  C   UNL     1       2.288   7.033  19.943  0.00  0.00    +0.000 A 
ATOM     22  C   UNL     1       3.243   6.612  19.011  0.00  0.00    +0.000 A 
ENDBRANCH  15  16
ENDBRANCH   6  15
TORSDOF 4
ENDMDL
MODEL 9
REMARK VINA RESULT:      -7.2      2.880      5.228
REMARK  Name = 
REMARK  4 active torsions:
REMARK  status: ('A' for Active; 'I' for Inactive)
REMARK    1  A    between atoms: C_5  and  C_6
REMARK    2  A    between atoms: C_6  and  C_7
REMARK    3  A    between atoms: C_14  and  C_15
REMARK    4  A    between atoms: C_15  and  C_16
REMARK                            x       y       z     vdW  Elec       q    Type
REMARK                         _______ _______ _______ _____ _____    ______ ____
ROOT
ATOM      1  O   UNL     1       0.315   2.415  19.066  0.00  0.00    +0.000 OA
ATOM      2  C   UNL     1       1.032   3.139  19.737  0.00  0.00    +0.000 C 
ATOM      3  O   UNL     1       1.247   2.970  21.071  0.00  0.00    +0.000 OA
ATOM      4  C   UNL     1       2.216   3.913  21.517  0.00  0.00    +0.000 C 
ATOM      5  C   UNL     1       2.187   5.043  20.505  0.00  0.00    +0.000 C 
ATOM      6  C   UNL     1       1.824   4.308  19.208  0.00  0.00    +0.000 C 
ENDROOT
BRANCH   5   7
ATOM      7  C   UNL     1       1.109   6.111  20.834  0.00  0.00    +0.000 C 
BRANCH   7   8
ATOM      8  C   UNL     1       1.294   7.450  20.149  0.00  0.00    +0.000 A 
ATOM      9  C   UNL     1       2.126   7.512  19.012  0.00  0.00    +0.000 A 
ATOM     10  C   UNL     1       2.278   8.699  18.294  0.00  0.00    +0.000 A 
ATOM     11  C   UNL     1       1.599   9.846  18.691  0.00  0.00    +0.000 A 
ATOM     12  C   UNL     1       0.807   9.815  19.838  0.00  0.00    +0.000 A 
ATOM     13  C   UNL     1       0.674   8.635  20.576  0.00  0.00    +0.000 A 
ATOM     14 CL   UNL     1      -0.248   8.716  22.034  0.00  0.00    +0.000 Cl
ENDBRANCH   7   8
ENDBRANCH   5   7
BRANCH   6  15
ATOM     15  C   UNL     1       3.003   3.751  18.397  0.00  0.00    +0.000 C 
BRANCH  15  16
ATOM     16  C   UNL     1       4.160   4.707  18.212  0.00  0.00    +0.000 A 
ATOM     17  C   UNL     1       5.248   4.673  19.095  0.00  0.00    +0.000 A 
ATOM     18  C   UNL     1       6.333   5.539  18.925  0.00  0.00    +0.000 A 
ATOM     19  C   UNL     1       6.342   6.440  17.863  0.00  0.00    +0.000 A 
ATOM     20  I   UNL     1       7.937   7.752  17.631  0.00  0.00    +0.000 I 
ATOM     21  C   UNL     1       5.283   6.465  16.957  0.00  0.00    +0.000 A 
ATOM     22  C   UNL     1       4.200   5.597  17.129  0.00  0.00    +0.000 A 
ENDBRANCH  15  16
ENDBRANCH   6  15
TORSDOF 4
ENDMDL
