MODEL 1
REMARK VINA RESULT:      -9.2      0.000      0.000
REMARK  Name = 
REMARK  5 active torsions:
REMARK  status: ('A' for Active; 'I' for Inactive)
REMARK    1  A    between atoms: C_1  and  C_2
REMARK    2  A    between atoms: C_6  and  C_7
REMARK    3  A    between atoms: C_14  and  C_15
REMARK    4  A    between atoms: C_17  and  O_18
REMARK    5  A    between atoms: C_20  and  C_21
REMARK                            x       y       z     vdW  Elec       q    Type
REMARK                         _______ _______ _______ _____ _____    ______ ____
ROOT
ATOM      1  C   UNL     1       1.117   3.240  20.907  0.00  0.00    +0.000 C 
ATOM      2  C   UNL     1       1.386   3.156  19.428  0.00  0.00    +0.000 C 
ATOM      3  O   UNL     1       0.624   2.536  18.684  0.00  0.00    +0.000 OA
ATOM      4  N   UNL     1       2.473   3.852  18.959  0.00  0.00    +0.000 N 
ATOM      5  C   UNL     1       3.452   4.602  19.722  0.00  0.00    +0.000 C 
ATOM      6  C   UNL     1       3.742   5.823  18.842  0.00  0.00    +0.000 C 
ATOM      7  C   UNL     1       3.647   5.241  17.405  0.00  0.00    +0.000 C 
ATOM      8  C   UNL     1       2.690   4.034  17.531  0.00  0.00    +0.000 C 
ENDROOT
BRANCH   6   9
ATOM      9  C   UNL     1       2.786   6.965  19.194  0.00  0.00    +0.000 A 
ATOM     10  C   UNL     1       2.139   6.934  20.445  0.00  0.00    +0.000 A 
ATOM     11  C   UNL     1       1.225   7.929  20.812  0.00  0.00    +0.000 A 
ATOM     12  C   UNL     1       0.931   8.969  19.935  0.00  0.00    +0.000 A 
ATOM     13  C   UNL     1       1.547   9.010  18.690  0.00  0.00    +0.000 A 
ATOM     14  C   UNL     1       2.459   8.019  18.331  0.00  0.00    +0.000 A 
ATOM     15  F   UNL     1       3.015   8.115  17.118  0.00  0.00    +0.000 F 
ENDBRANCH   6   9
BRANCH   7  16
ATOM     16  C   UNL     1       5.015   4.873  16.850  0.00  0.00    +0.000 A 
ATOM     17  C   UNL     1       6.068   4.658  17.718  0.00  0.00    +0.000 A 
ATOM     18  C   UNL     1       7.277   4.361  17.136  0.00  0.00    +0.000 A 
ATOM     19  N   UNL     1       7.475   4.272  15.818  0.00  0.00    +0.000 NA
ATOM     20  C   UNL     1       6.401   4.483  15.046  0.00  0.00    +0.000 A 
ATOM     21  C   UNL     1       6.592   4.448  13.561  0.00  0.00    +0.000 C 
ATOM     22  N   UNL     1       5.165   4.755  15.513  0.00  0.00    +0.000 NA
BRANCH  18  23
ATOM     23  O   UNL     1       8.391   4.141  17.892  0.00  0.00    +0.000 OA
ATOM     24  H   UNL     1       8.469   4.852  18.543  0.00  0.00    +0.000 HD
ENDBRANCH  18  23
ENDBRANCH   7  16
TORSDOF 3
ENDMDL
MODEL 2
REMARK VINA RESULT:      -8.9      1.176      1.203
REMARK  Name = 
REMARK  5 active torsions:
REMARK  status: ('A' for Active; 'I' for Inactive)
REMARK    1  A    between atoms: C_1  and  C_2
REMARK    2  A    between atoms: C_6  and  C_7
REMARK    3  A    between atoms: C_14  and  C_15
REMARK    4  A    between atoms: C_17  and  O_18
REMARK    5  A    between atoms: C_20  and  C_21
REMARK                            x       y       z     vdW  Elec       q    Type
REMARK                         _______ _______ _______ _____ _____    ______ ____
ROOT
ATOM      1  C   UNL     1       1.253   3.422  21.038  0.00  0.00    +0.000 C 
ATOM      2  C   UNL     1       1.446   3.484  19.546  0.00  0.00    +0.000 C 
ATOM      3  O   UNL     1       0.728   2.825  18.792  0.00  0.00    +0.000 OA
ATOM      4  N   UNL     1       2.407   4.350  19.084  0.00  0.00    +0.000 N 
ATOM      5  C   UNL     1       3.324   5.163  19.858  0.00  0.00    +0.000 C 
ATOM      6  C   UNL     1       3.405   6.474  19.066  0.00  0.00    +0.000 C 
ATOM      7  C   UNL     1       3.303   5.991  17.593  0.00  0.00    +0.000 C 
ATOM      8  C   UNL     1       2.517   4.663  17.667  0.00  0.00    +0.000 C 
ENDROOT
BRANCH   6   9
ATOM      9  C   UNL     1       2.334   7.450  19.554  0.00  0.00    +0.000 A 
ATOM     10  C   UNL     1       1.710   7.197  20.791  0.00  0.00    +0.000 A 
ATOM     11  C   UNL     1       0.696   8.031  21.276  0.00  0.00    +0.000 A 
ATOM     12  C   UNL     1       0.278   9.131  20.532  0.00  0.00    +0.000 A 
ATOM     13  C   UNL     1       0.869   9.391  19.301  0.00  0.00    +0.000 A 
ATOM     14  C   UNL     1       1.881   8.558  18.825  0.00  0.00    +0.000 A 
ATOM     15  F   UNL     1       2.407   8.862  17.634  0.00  0.00    +0.000 F 
ENDBRANCH   6   9
BRANCH   7  16
ATOM     16  C   UNL     1       4.673   5.848  16.946  0.00  0.00    +0.000 A 
ATOM     17  C   UNL     1       5.699   6.692  17.327  0.00  0.00    +0.000 A 
ATOM     18  C   UNL     1       6.895   6.519  16.673  0.00  0.00    +0.000 A 
ATOM     19  N   UNL     1       7.106   5.606  15.721  0.00  0.00    +0.000 NA
ATOM     20  C   UNL     1       6.063   4.820  15.418  0.00  0.00    +0.000 A 
ATOM     21  C   UNL     1       6.242   3.821  14.317  0.00  0.00    +0.000 C 
ATOM     22  N   UNL     1       4.856   4.887  16.015  0.00  0.00    +0.000 NA
BRANCH  18  23
ATOM     23  O   UNL     1       7.976   7.301  16.957  0.00  0.00    +0.000 OA
ATOM     24  H   UNL     1       8.519   7.380  16.160  0.00  0.00    +0.000 HD
ENDBRANCH  18  23
ENDBRANCH   7  16
TORSDOF 3
ENDMDL
MODEL 3
REMARK VINA RESULT:      -8.8      0.999      1.411
REMARK  Name = 
REMARK  5 active torsions:
REMARK  status: ('A' for Active; 'I' for Inactive)
REMARK    1  A    between atoms: C_1  and  C_2
REMARK    2  A    between atoms: C_6  and  C_7
REMARK    3  A    between atoms: C_14  and  C_15
REMARK    4  A    between atoms: C_17  and  O_18
REMARK    5  A    between atoms: C_20  and  C_21
REMARK                            x       y       z     vdW  Elec       q    Type
REMARK                         _______ _______ _______ _____ _____    ______ ____
ROOT
ATOM      1  C   UNL     1       0.968   3.331  20.722  0.00  0.00    +0.000 C 
ATOM      2  C   UNL     1       1.331   3.235  19.264  0.00  0.00    +0.000 C 
ATOM      3  O   UNL     1       0.627   2.593  18.482  0.00  0.00    +0.000 OA
ATOM      4  N   UNL     1       2.434   3.944  18.855  0.00  0.00    +0.000 N 
ATOM      5  C   UNL     1       3.351   4.719  19.669  0.00  0.00    +0.000 C 
ATOM      6  C   UNL     1       3.675   5.935  18.793  0.00  0.00    +0.000 C 
ATOM      7  C   UNL     1       3.681   5.335  17.361  0.00  0.00    +0.000 C 
ATOM      8  C   UNL     1       2.737   4.113  17.442  0.00  0.00    +0.000 C 
ENDROOT
BRANCH   6   9
ATOM      9  C   UNL     1       2.681   7.064  19.071  0.00  0.00    +0.000 A 
ATOM     10  C   UNL     1       2.497   8.052  18.085  0.00  0.00    +0.000 A 
ATOM     11  C   UNL     1       1.630   9.130  18.293  0.00  0.00    +0.000 A 
ATOM     12  C   UNL     1       0.936   9.251  19.494  0.00  0.00    +0.000 A 
ATOM     13  C   UNL     1       1.115   8.296  20.487  0.00  0.00    +0.000 A 
ATOM     14  C   UNL     1       1.977   7.221  20.273  0.00  0.00    +0.000 A 
ATOM     15  F   UNL     1       2.106   6.338  21.269  0.00  0.00    +0.000 F 
ENDBRANCH   6   9
BRANCH   7  16
ATOM     16  C   UNL     1       5.086   4.983  16.897  0.00  0.00    +0.000 A 
ATOM     17  C   UNL     1       6.098   4.846  17.829  0.00  0.00    +0.000 A 
ATOM     18  C   UNL     1       7.344   4.559  17.326  0.00  0.00    +0.000 A 
ATOM     19  N   UNL     1       7.615   4.412  16.027  0.00  0.00    +0.000 NA
ATOM     20  C   UNL     1       6.578   4.550  15.190  0.00  0.00    +0.000 A 
ATOM     21  C   UNL     1       6.850   4.447  13.721  0.00  0.00    +0.000 C 
ATOM     22  N   UNL     1       5.311   4.804  15.577  0.00  0.00    +0.000 NA
BRANCH  18  23
ATOM     23  O   UNL     1       8.422   4.413  18.150  0.00  0.00    +0.000 OA
ATOM     24  H   UNL     1       9.194   4.184  17.613  0.00  0.00    +0.000 HD
ENDBRANCH  18  23
ENDBRANCH   7  16
TORSDOF 3
ENDMDL
MODEL 4
REMARK VINA RESULT:      -8.7      2.669      6.090
REMARK  Name = 
REMARK  5 active torsions:
REMARK  status: ('A' for Active; 'I' for Inactive)
REMARK    1  A    between atoms: C_1  and  C_2
REMARK    2  A    between atoms: C_6  and  C_7
REMARK    3  A    between atoms: C_14  and  C_15
REMARK    4  A    between atoms: C_17  and  O_18
REMARK    5  A    between atoms: C_20  and  C_21
REMARK                            x       y       z     vdW  Elec       q    Type
REMARK                         _______ _______ _______ _____ _____    ______ ____
ROOT
ATOM      1  C   UNL     1       2.442   1.827  18.718  0.00  0.00    +0.000 C 
ATOM      2  C   UNL     1       2.679   2.902  19.745  0.00  0.00    +0.000 C 
ATOM      3  O   UNL     1       3.004   2.609  20.897  0.00  0.00    +0.000 OA
ATOM      4  N   UNL     1       2.579   4.201  19.312  0.00  0.00    +0.000 N 
ATOM      5  C   UNL     1       2.191   4.679  18.000  0.00  0.00    +0.000 C 
ATOM      6  C   UNL     1       3.106   5.887  17.767  0.00  0.00    +0.000 C 
ATOM      7  C   UNL     1       3.235   6.498  19.190  0.00  0.00    +0.000 C 
ATOM      8  C   UNL     1       3.014   5.308  20.151  0.00  0.00    +0.000 C 
ENDROOT
BRANCH   6   9
ATOM      9  C   UNL     1       4.399   5.445  17.081  0.00  0.00    +0.000 A 
ATOM     10  C   UNL     1       4.471   4.134  16.570  0.00  0.00    +0.000 A 
ATOM     11  C   UNL     1       5.639   3.656  15.965  0.00  0.00    +0.000 A 
ATOM     12  C   UNL     1       6.761   4.473  15.863  0.00  0.00    +0.000 A 
ATOM     13  C   UNL     1       6.717   5.764  16.374  0.00  0.00    +0.000 A 
ATOM     14  C   UNL     1       5.550   6.237  16.973  0.00  0.00    +0.000 A 
ATOM     15  F   UNL     1       5.573   7.488  17.446  0.00  0.00    +0.000 F 
ENDBRANCH   6   9
BRANCH   7  16
ATOM     16  C   UNL     1       2.255   7.642  19.408  0.00  0.00    +0.000 A 
ATOM     17  C   UNL     1       1.986   8.517  18.373  0.00  0.00    +0.000 A 
ATOM     18  C   UNL     1       1.115   9.540  18.660  0.00  0.00    +0.000 A 
ATOM     19  N   UNL     1       0.537   9.723  19.849  0.00  0.00    +0.000 NA
ATOM     20  C   UNL     1       0.842   8.825  20.797  0.00  0.00    +0.000 A 
ATOM     21  C   UNL     1       0.258   9.027  22.161  0.00  0.00    +0.000 C 
ATOM     22  N   UNL     1       1.662   7.770  20.614  0.00  0.00    +0.000 NA
BRANCH  18  23
ATOM     23  O   UNL     1       0.783  10.471  17.720  0.00  0.00    +0.000 OA
ATOM     24  H   UNL     1       0.022  10.976  18.038  0.00  0.00    +0.000 HD
ENDBRANCH  18  23
ENDBRANCH   7  16
TORSDOF 3
ENDMDL
MODEL 5
REMARK VINA RESULT:      -8.6      1.436      1.781
REMARK  Name = 
REMARK  5 active torsions:
REMARK  status: ('A' for Active; 'I' for Inactive)
REMARK    1  A    between atoms: C_1  and  C_2
REMARK    2  A    between atoms: C_6  and  C_7
REMARK    3  A    between atoms: C_14  and  C_15
REMARK    4  A    between atoms: C_17  and  O_18
REMARK    5  A    between atoms: C_20  and  C_21
REMARK                            x       y       z     vdW  Elec       q    Type
REMARK                         _______ _______ _______ _____ _____    ______ ____
ROOT
ATOM      1  C   UNL     1       1.152   3.320  21.118  0.00  0.00    +0.000 C 
ATOM      2  C   UNL     1       1.362   3.403  19.630  0.00  0.00    +0.000 C 
ATOM      3  O   UNL     1       0.651   2.757  18.858  0.00  0.00    +0.000 OA
ATOM      4  N   UNL     1       2.328   4.275  19.191  0.00  0.00    +0.000 N 
ATOM      5  C   UNL     1       3.238   5.076  19.986  0.00  0.00    +0.000 C 
ATOM      6  C   UNL     1       3.328   6.398  19.215  0.00  0.00    +0.000 C 
ATOM      7  C   UNL     1       3.243   5.938  17.734  0.00  0.00    +0.000 C 
ATOM      8  C   UNL     1       2.454   4.609  17.780  0.00  0.00    +0.000 C 
ENDROOT
BRANCH   6   9
ATOM      9  C   UNL     1       2.253   7.369  19.706  0.00  0.00    +0.000 A 
ATOM     10  C   UNL     1       1.562   7.059  20.894  0.00  0.00    +0.000 A 
ATOM     11  C   UNL     1       0.541   7.886  21.375  0.00  0.00    +0.000 A 
ATOM     12  C   UNL     1       0.182   9.036  20.676  0.00  0.00    +0.000 A 
ATOM     13  C   UNL     1       0.839   9.352  19.493  0.00  0.00    +0.000 A 
ATOM     14  C   UNL     1       1.858   8.526  19.021  0.00  0.00    +0.000 A 
ATOM     15  F   UNL     1       2.450   8.885  17.876  0.00  0.00    +0.000 F 
ENDBRANCH   6   9
BRANCH   7  16
ATOM     16  C   UNL     1       4.619   5.803  17.101  0.00  0.00    +0.000 A 
ATOM     17  C   UNL     1       4.864   4.771  16.214  0.00  0.00    +0.000 A 
ATOM     18  C   UNL     1       6.141   4.700  15.711  0.00  0.00    +0.000 A 
ATOM     19  N   UNL     1       7.121   5.550  16.025  0.00  0.00    +0.000 NA
ATOM     20  C   UNL     1       6.799   6.529  16.883  0.00  0.00    +0.000 A 
ATOM     21  C   UNL     1       7.884   7.470  17.305  0.00  0.00    +0.000 C 
ATOM     22  N   UNL     1       5.572   6.706  17.415  0.00  0.00    +0.000 NA
BRANCH  18  23
ATOM     23  O   UNL     1       6.502   3.717  14.836  0.00  0.00    +0.000 OA
ATOM     24  H   UNL     1       7.287   4.008  14.350  0.00  0.00    +0.000 HD
ENDBRANCH  18  23
ENDBRANCH   7  16
TORSDOF 3
ENDMDL
MODEL 6
REMARK VINA RESULT:      -8.5      2.737      6.124
REMARK  Name = 
REMARK  5 active torsions:
REMARK  status: ('A' for Active; 'I' for Inactive)
REMARK    1  A    between atoms: C_1  and  C_2
REMARK    2  A    between atoms: C_6  and  C_7
REMARK    3  A    between atoms: C_14  and  C_15
REMARK    4  A    between atoms: C_17  and  O_18
REMARK    5  A    between atoms: C_20  and  C_21
REMARK                            x       y       z     vdW  Elec       q    Type
REMARK                         _______ _______ _______ _____ _____    ______ ____
ROOT
ATOM      1  C   UNL     1       2.264   2.204  17.933  0.00  0.00    +0.000 C 
ATOM      2  C   UNL     1       2.128   3.017  19.193  0.00  0.00    +0.000 C 
ATOM      3  O   UNL     1       2.000   2.465  20.287  0.00  0.00    +0.000 OA
ATOM      4  N   UNL     1       2.221   4.381  19.059  0.00  0.00    +0.000 N 
ATOM      5  C   UNL     1       2.355   5.153  17.838  0.00  0.00    +0.000 C 
ATOM      6  C   UNL     1       3.315   6.283  18.226  0.00  0.00    +0.000 C 
ATOM      7  C   UNL     1       2.924   6.576  19.700  0.00  0.00    +0.000 C 
ATOM      8  C   UNL     1       2.339   5.244  20.225  0.00  0.00    +0.000 C 
ENDROOT
BRANCH   6   9
ATOM      9  C   UNL     1       4.761   5.859  17.961  0.00  0.00    +0.000 A 
ATOM     10  C   UNL     1       5.530   5.387  19.043  0.00  0.00    +0.000 A 
ATOM     11  C   UNL     1       6.869   5.019  18.874  0.00  0.00    +0.000 A 
ATOM     12  C   UNL     1       7.472   5.123  17.624  0.00  0.00    +0.000 A 
ATOM     13  C   UNL     1       6.737   5.601  16.546  0.00  0.00    +0.000 A 
ATOM     14  C   UNL     1       5.402   5.962  16.719  0.00  0.00    +0.000 A 
ATOM     15  F   UNL     1       4.751   6.416  15.642  0.00  0.00    +0.000 F 
ENDBRANCH   6   9
BRANCH   7  16
ATOM     16  C   UNL     1       1.957   7.745  19.810  0.00  0.00    +0.000 A 
ATOM     17  C   UNL     1       1.821   8.621  18.749  0.00  0.00    +0.000 A 
ATOM     18  C   UNL     1       0.952   9.667  18.939  0.00  0.00    +0.000 A 
ATOM     19  N   UNL     1       0.256   9.872  20.060  0.00  0.00    +0.000 NA
ATOM     20  C   UNL     1       0.435   8.972  21.037  0.00  0.00    +0.000 A 
ATOM     21  C   UNL     1      -0.284   9.197  22.331  0.00  0.00    +0.000 C 
ATOM     22  N   UNL     1       1.242   7.895  20.946  0.00  0.00    +0.000 NA
BRANCH  18  23
ATOM     23  O   UNL     1       0.746  10.601  17.966  0.00  0.00    +0.000 OA
ATOM     24  H   UNL     1       0.030  10.296  17.390  0.00  0.00    +0.000 HD
ENDBRANCH  18  23
ENDBRANCH   7  16
TORSDOF 3
ENDMDL
MODEL 7
REMARK VINA RESULT:      -8.4      2.799      6.152
REMARK  Name = 
REMARK  5 active torsions:
REMARK  status: ('A' for Active; 'I' for Inactive)
REMARK    1  A    between atoms: C_1  and  C_2
REMARK    2  A    between atoms: C_6  and  C_7
REMARK    3  A    between atoms: C_14  and  C_15
REMARK    4  A    between atoms: C_17  and  O_18
REMARK    5  A    between atoms: C_20  and  C_21
REMARK                            x       y       z     vdW  Elec       q    Type
REMARK                         _______ _______ _______ _____ _____    ______ ____
ROOT
ATOM      1  C   UNL     1       2.006   1.872  18.752  0.00  0.00    +0.000 C 
ATOM      2  C   UNL     1       2.189   2.905  19.832  0.00  0.00    +0.000 C 
ATOM      3  O   UNL     1       2.355   2.566  21.005  0.00  0.00    +0.000 OA
ATOM      4  N   UNL     1       2.224   4.218  19.431  0.00  0.00    +0.000 N 
ATOM      5  C   UNL     1       2.027   4.751  18.097  0.00  0.00    +0.000 C 
ATOM      6  C   UNL     1       3.038   5.900  18.010  0.00  0.00    +0.000 C 
ATOM      7  C   UNL     1       3.036   6.468  19.456  0.00  0.00    +0.000 C 
ATOM      8  C   UNL     1       2.626   5.274  20.348  0.00  0.00    +0.000 C 
ENDROOT
BRANCH   6   9
ATOM      9  C   UNL     1       4.372   5.386  17.466  0.00  0.00    +0.000 A 
ATOM     10  C   UNL     1       5.543   6.108  17.771  0.00  0.00    +0.000 A 
ATOM     11  C   UNL     1       6.789   5.712  17.274  0.00  0.00    +0.000 A 
ATOM     12  C   UNL     1       6.893   4.592  16.453  0.00  0.00    +0.000 A 
ATOM     13  C   UNL     1       5.749   3.874  16.127  0.00  0.00    +0.000 A 
ATOM     14  C   UNL     1       4.510   4.271  16.629  0.00  0.00    +0.000 A 
ATOM     15  F   UNL     1       3.448   3.538  16.275  0.00  0.00    +0.000 F 
ENDBRANCH   6   9
BRANCH   7  16
ATOM     16  C   UNL     1       2.113   7.670  19.592  0.00  0.00    +0.000 A 
ATOM     17  C   UNL     1       1.936   8.520  18.517  0.00  0.00    +0.000 A 
ATOM     18  C   UNL     1       1.111   9.598  18.731  0.00  0.00    +0.000 A 
ATOM     19  N   UNL     1       0.496   9.855  19.887  0.00  0.00    +0.000 NA
ATOM     20  C   UNL     1       0.711   8.977  20.877  0.00  0.00    +0.000 A 
ATOM     21  C   UNL     1       0.083   9.259  22.207  0.00  0.00    +0.000 C 
ATOM     22  N   UNL     1       1.478   7.873  20.767  0.00  0.00    +0.000 NA
BRANCH  18  23
ATOM     23  O   UNL     1       0.871  10.511  17.746  0.00  0.00    +0.000 OA
ATOM     24  H   UNL     1       0.522  10.046  16.971  0.00  0.00    +0.000 HD
ENDBRANCH  18  23
ENDBRANCH   7  16
TORSDOF 3
ENDMDL
MODEL 8
REMARK VINA RESULT:      -8.3      3.016      6.451
REMARK  Name = 
REMARK  5 active torsions:
REMARK  status: ('A' for Active; 'I' for Inactive)
REMARK    1  A    between atoms: C_1  and  C_2
REMARK    2  A    between atoms: C_6  and  C_7
REMARK    3  A    between atoms: C_14  and  C_15
REMARK    4  A    between atoms: C_17  and  O_18
REMARK    5  A    between atoms: C_20  and  C_21
REMARK                            x       y       z     vdW  Elec       q    Type
REMARK                         _______ _______ _______ _____ _____    ______ ____
ROOT
ATOM      1  C   UNL     1       7.544   5.266  18.056  0.00  0.00    +0.000 C 
ATOM      2  C   UNL     1       6.531   6.080  17.297  0.00  0.00    +0.000 C 
ATOM      3  O   UNL     1       6.755   6.443  16.140  0.00  0.00    +0.000 OA
ATOM      4  N   UNL     1       5.340   6.333  17.933  0.00  0.00    +0.000 N 
ATOM      5  C   UNL     1       4.958   5.982  19.287  0.00  0.00    +0.000 C 
ATOM      6  C   UNL     1       3.480   5.592  19.158  0.00  0.00    +0.000 C 
ATOM      7  C   UNL     1       2.963   6.567  18.064  0.00  0.00    +0.000 C 
ATOM      8  C   UNL     1       4.210   6.902  17.214  0.00  0.00    +0.000 C 
ENDROOT
BRANCH   6   9
ATOM      9  C   UNL     1       3.353   4.095  18.873  0.00  0.00    +0.000 A 
ATOM     10  C   UNL     1       4.289   3.220  19.457  0.00  0.00    +0.000 A 
ATOM     11  C   UNL     1       4.250   1.844  19.205  0.00  0.00    +0.000 A 
ATOM     12  C   UNL     1       3.281   1.313  18.358  0.00  0.00    +0.000 A 
ATOM     13  C   UNL     1       2.358   2.161  17.758  0.00  0.00    +0.000 A 
ATOM     14  C   UNL     1       2.399   3.530  18.015  0.00  0.00    +0.000 A 
ATOM     15  F   UNL     1       1.483   4.291  17.406  0.00  0.00    +0.000 F 
ENDBRANCH   6   9
BRANCH   7  16
ATOM     16  C   UNL     1       2.294   7.793  18.665  0.00  0.00    +0.000 A 
ATOM     17  C   UNL     1       2.140   8.932  17.898  0.00  0.00    +0.000 A 
ATOM     18  C   UNL     1       1.554  10.006  18.524  0.00  0.00    +0.000 A 
ATOM     19  N   UNL     1       1.141  10.001  19.794  0.00  0.00    +0.000 NA
ATOM     20  C   UNL     1       1.316   8.854  20.466  0.00  0.00    +0.000 A 
ATOM     21  C   UNL     1       0.916   8.825  21.909  0.00  0.00    +0.000 C 
ATOM     22  N   UNL     1       1.854   7.735  19.941  0.00  0.00    +0.000 NA
BRANCH  18  23
ATOM     23  O   UNL     1       1.361  11.187  17.870  0.00  0.00    +0.000 OA
ATOM     24  H   UNL     1       1.898  11.187  17.065  0.00  0.00    +0.000 HD
ENDBRANCH  18  23
ENDBRANCH   7  16
TORSDOF 3
ENDMDL
MODEL 9
REMARK VINA RESULT:      -8.3      1.528      1.832
REMARK  Name = 
REMARK  5 active torsions:
REMARK  status: ('A' for Active; 'I' for Inactive)
REMARK    1  A    between atoms: C_1  and  C_2
REMARK    2  A    between atoms: C_6  and  C_7
REMARK    3  A    between atoms: C_14  and  C_15
REMARK    4  A    between atoms: C_17  and  O_18
REMARK    5  A    between atoms: C_20  and  C_21
REMARK                            x       y       z     vdW  Elec       q    Type
REMARK                         _______ _______ _______ _____ _____    ______ ____
ROOT
ATOM      1  C   UNL     1       1.091   3.268  20.735  0.00  0.00    +0.000 C 
ATOM      2  C   UNL     1       1.334   3.408  19.256  0.00  0.00    +0.000 C 
ATOM      3  O   UNL     1       0.626   2.811  18.443  0.00  0.00    +0.000 OA
ATOM      4  N   UNL     1       2.329   4.275  18.874  0.00  0.00    +0.000 N 
ATOM      5  C   UNL     1       3.239   5.021  19.720  0.00  0.00    +0.000 C 
ATOM      6  C   UNL     1       3.376   6.371  19.007  0.00  0.00    +0.000 C 
ATOM      7  C   UNL     1       3.311   5.974  17.506  0.00  0.00    +0.000 C 
ATOM      8  C   UNL     1       2.492   4.663  17.480  0.00  0.00    +0.000 C 
ENDROOT
BRANCH   6   9
ATOM      9  C   UNL     1       2.311   7.345  19.515  0.00  0.00    +0.000 A 
ATOM     10  C   UNL     1       1.994   8.465  18.722  0.00  0.00    +0.000 A 
ATOM     11  C   UNL     1       1.057   9.412  19.148  0.00  0.00    +0.000 A 
ATOM     12  C   UNL     1       0.423   9.267  20.379  0.00  0.00    +0.000 A 
ATOM     13  C   UNL     1       0.733   8.178  21.185  0.00  0.00    +0.000 A 
ATOM     14  C   UNL     1       1.664   7.235  20.754  0.00  0.00    +0.000 A 
ATOM     15  F   UNL     1       1.918   6.212  21.577  0.00  0.00    +0.000 F 
ENDBRANCH   6   9
BRANCH   7  16
ATOM     16  C   UNL     1       4.697   5.833  16.896  0.00  0.00    +0.000 A 
ATOM     17  C   UNL     1       5.718   6.661  17.323  0.00  0.00    +0.000 A 
ATOM     18  C   UNL     1       6.931   6.492  16.700  0.00  0.00    +0.000 A 
ATOM     19  N   UNL     1       7.163   5.597  15.736  0.00  0.00    +0.000 NA
ATOM     20  C   UNL     1       6.124   4.826  15.387  0.00  0.00    +0.000 A 
ATOM     21  C   UNL     1       6.326   3.848  14.271  0.00  0.00    +0.000 C 
ATOM     22  N   UNL     1       4.900   4.890  15.951  0.00  0.00    +0.000 NA
BRANCH  18  23
ATOM     23  O   UNL     1       8.009   7.260  17.030  0.00  0.00    +0.000 OA
ATOM     24  H   UNL     1       7.721   7.952  17.642  0.00  0.00    +0.000 HD
ENDBRANCH  18  23
ENDBRANCH   7  16
TORSDOF 3
ENDMDL
