MODEL 1
REMARK VINA RESULT:      -7.9      0.000      0.000
REMARK  Name = 
REMARK  13 active torsions:
REMARK  status: ('A' for Active; 'I' for Inactive)
REMARK    1  A    between atoms: C_1  and  O_2
REMARK    2  A    between atoms: O_2  and  C_3
REMARK    3  A    between atoms: C_5  and  C_6
REMARK    4  A    between atoms: N_7  and  N_8
REMARK    5  A    between atoms: C_9  and  C_11
REMARK    6  A    between atoms: C_14  and  O_15
REMARK    7  A    between atoms: C_20  and  O_21
REMARK    8  A    between atoms: O_21  and  C_22
REMARK    9  A    between atoms: C_23  and  O_24
REMARK   10  A    between atoms: O_24  and  C_25
REMARK   11  A    between atoms: C_25  and  C_26
REMARK   12  A    between atoms: C_29  and  N_30
REMARK   13  A    between atoms: C_31  and  C_32
REMARK                            x       y       z     vdW  Elec       q    Type
REMARK                         _______ _______ _______ _____ _____    ______ ____
ROOT
ATOM      1  C   UNL     1       1.840   5.178  20.274  0.00  0.00    +0.000 A 
ATOM      2  C   UNL     1       1.398   6.401  20.777  0.00  0.00    +0.000 A 
ATOM      3  C   UNL     1       1.675   7.565  20.075  0.00  0.00    +0.000 A 
ATOM      4  C   UNL     1       2.504   7.526  18.957  0.00  0.00    +0.000 A 
ATOM      5  C   UNL     1       3.049   6.321  18.473  0.00  0.00    +0.000 A 
ATOM      6  C   UNL     1       2.674   5.118  19.117  0.00  0.00    +0.000 A 
ENDROOT
BRANCH   1   8
ATOM      7  C   UNL     1       2.294   3.505  21.908  0.00  0.00    +0.000 C 
ATOM      8  O   UNL     1       1.452   3.988  20.855  0.00  0.00    +0.000 OA
ENDBRANCH   1   8
BRANCH   3   9
ATOM      9  C   UNL     1       1.005   8.830  20.437  0.00  0.00    +0.000 C 
ATOM     10  N   UNL     1      -0.063   8.814  21.163  0.00  0.00    +0.000 NA
BRANCH  10  11
ATOM     11  N   UNL     1      -0.669  10.006  21.406  0.00  0.00    +0.000 N 
ATOM     12  C   UNL     1      -0.619  10.514  22.697  0.00  0.00    +0.000 C 
ATOM     13  O   UNL     1      -0.042   9.979  23.645  0.00  0.00    +0.000 OA
ATOM     14  H   UNL     1      -1.089  10.519  20.639  0.00  0.00    +0.000 HD
BRANCH  12  15
ATOM     15  C   UNL     1      -1.289  11.819  22.921  0.00  0.00    +0.000 A 
ATOM     16  C   UNL     1      -0.552  12.981  22.648  0.00  0.00    +0.000 A 
ATOM     17  C   UNL     1      -1.109  14.244  22.857  0.00  0.00    +0.000 A 
ATOM     18  C   UNL     1      -2.407  14.348  23.352  0.00  0.00    +0.000 A 
ATOM     19  C   UNL     1      -3.140  13.193  23.637  0.00  0.00    +0.000 A 
ATOM     20 CL   UNL     1      -4.747  13.293  24.276  0.00  0.00    +0.000 Cl
ATOM     21  C   UNL     1      -2.588  11.928  23.430  0.00  0.00    +0.000 A 
BRANCH  18  22
ATOM     22  O   UNL     1      -2.951  15.586  23.567  0.00  0.00    +0.000 OA
ATOM     23  H   UNL     1      -3.250  15.655  24.489  0.00  0.00    +0.000 HD
ENDBRANCH  18  22
ENDBRANCH  12  15
ENDBRANCH  10  11
ENDBRANCH   3   9
BRANCH   5  24
ATOM     24  O   UNL     1       3.796   6.615  17.365  0.00  0.00    +0.000 OA
ATOM     25  C   UNL     1       4.787   7.616  17.225  0.00  0.00    +0.000 C 
ENDBRANCH   5  24
BRANCH   6  26
ATOM     26  O   UNL     1       2.954   3.823  18.734  0.00  0.00    +0.000 OA
BRANCH  26  27
ATOM     27  C   UNL     1       4.297   3.430  18.894  0.00  0.00    +0.000 C 
BRANCH  27  28
ATOM     28  C   UNL     1       5.243   3.776  17.787  0.00  0.00    +0.000 A 
ATOM     29  C   UNL     1       4.769   3.660  16.476  0.00  0.00    +0.000 A 
ATOM     30  C   UNL     1       5.494   4.192  15.421  0.00  0.00    +0.000 A 
ATOM     31  C   UNL     1       6.714   4.821  15.653  0.00  0.00    +0.000 A 
ATOM     32  C   UNL     1       7.207   4.905  16.965  0.00  0.00    +0.000 A 
ATOM     33  C   UNL     1       6.471   4.386  18.033  0.00  0.00    +0.000 A 
BRANCH  31  34
ATOM     34  N   UNL     1       7.479   5.395  14.619  0.00  0.00    +0.000 N 
ATOM     35  C   UNL     1       7.495   4.995  13.295  0.00  0.00    +0.000 C 
ATOM     36  C   UNL     1       8.454   5.795  12.463  0.00  0.00    +0.000 C 
ATOM     37  O   UNL     1       6.852   4.088  12.783  0.00  0.00    +0.000 OA
ATOM     38  H   UNL     1       8.059   6.183  14.870  0.00  0.00    +0.000 HD
ENDBRANCH  31  34
ENDBRANCH  27  28
ENDBRANCH  26  27
ENDBRANCH   6  26
TORSDOF 10
ENDMDL
MODEL 2
REMARK VINA RESULT:      -7.4      5.823      9.194
REMARK  Name = 
REMARK  13 active torsions:
REMARK  status: ('A' for Active; 'I' for Inactive)
REMARK    1  A    between atoms: C_1  and  O_2
REMARK    2  A    between atoms: O_2  and  C_3
REMARK    3  A    between atoms: C_5  and  C_6
REMARK    4  A    between atoms: N_7  and  N_8
REMARK    5  A    between atoms: C_9  and  C_11
REMARK    6  A    between atoms: C_14  and  O_15
REMARK    7  A    between atoms: C_20  and  O_21
REMARK    8  A    between atoms: O_21  and  C_22
REMARK    9  A    between atoms: C_23  and  O_24
REMARK   10  A    between atoms: O_24  and  C_25
REMARK   11  A    between atoms: C_25  and  C_26
REMARK   12  A    between atoms: C_29  and  N_30
REMARK   13  A    between atoms: C_31  and  C_32
REMARK                            x       y       z     vdW  Elec       q    Type
REMARK                         _______ _______ _______ _____ _____    ______ ____
ROOT
ATOM      1  C   UNL     1       6.983   5.715  18.896  0.00  0.00    +0.000 A 
ATOM      2  C   UNL     1       7.742   6.869  18.709  0.00  0.00    +0.000 A 
ATOM      3  C   UNL     1       7.558   7.625  17.560  0.00  0.00    +0.000 A 
ATOM      4  C   UNL     1       6.729   7.160  16.543  0.00  0.00    +0.000 A 
ATOM      5  C   UNL     1       6.018   5.949  16.654  0.00  0.00    +0.000 A 
ATOM      6  C   UNL     1       6.111   5.235  17.872  0.00  0.00    +0.000 A 
ENDROOT
BRANCH   1   8
ATOM      7  C   UNL     1       8.260   5.081  20.804  0.00  0.00    +0.000 C 
ATOM      8  O   UNL     1       7.020   5.024  20.090  0.00  0.00    +0.000 OA
ENDBRANCH   1   8
BRANCH   3   9
ATOM      9  C   UNL     1       8.147   8.974  17.455  0.00  0.00    +0.000 C 
ATOM     10  N   UNL     1       8.778   9.487  18.458  0.00  0.00    +0.000 NA
BRANCH  10  11
ATOM     11  N   UNL     1       9.240  10.758  18.321  0.00  0.00    +0.000 N 
ATOM     12  C   UNL     1       9.576  11.460  19.471  0.00  0.00    +0.000 C 
ATOM     13  O   UNL     1       9.511  11.011  20.616  0.00  0.00    +0.000 OA
ATOM     14  H   UNL     1       9.384  11.140  17.393  0.00  0.00    +0.000 HD
BRANCH  12  15
ATOM     15  C   UNL     1      10.080  12.842  19.279  0.00  0.00    +0.000 A 
ATOM     16  C   UNL     1      11.343  13.150  19.806  0.00  0.00    +0.000 A 
ATOM     17  C   UNL     1      11.873  14.435  19.684  0.00  0.00    +0.000 A 
ATOM     18  C   UNL     1      11.132  15.425  19.041  0.00  0.00    +0.000 A 
ATOM     19  C   UNL     1       9.867  15.125  18.526  0.00  0.00    +0.000 A 
ATOM     20 CL   UNL     1       8.915  16.342  17.743  0.00  0.00    +0.000 Cl
ATOM     21  C   UNL     1       9.334  13.842  18.645  0.00  0.00    +0.000 A 
BRANCH  18  22
ATOM     22  O   UNL     1      11.645  16.689  18.930  0.00  0.00    +0.000 OA
ATOM     23  H   UNL     1      12.609  16.640  18.818  0.00  0.00    +0.000 HD
ENDBRANCH  18  22
ENDBRANCH  12  15
ENDBRANCH  10  11
ENDBRANCH   3   9
BRANCH   5  24
ATOM     24  O   UNL     1       5.287   5.786  15.508  0.00  0.00    +0.000 OA
ATOM     25  C   UNL     1       5.373   4.732  14.566  0.00  0.00    +0.000 C 
ENDBRANCH   5  24
BRANCH   6  26
ATOM     26  O   UNL     1       5.398   4.122  18.264  0.00  0.00    +0.000 OA
BRANCH  26  27
ATOM     27  C   UNL     1       4.019   4.164  17.978  0.00  0.00    +0.000 C 
BRANCH  27  28
ATOM     28  C   UNL     1       3.205   5.187  18.704  0.00  0.00    +0.000 A 
ATOM     29  C   UNL     1       2.860   4.912  20.032  0.00  0.00    +0.000 A 
ATOM     30  C   UNL     1       2.327   5.906  20.836  0.00  0.00    +0.000 A 
ATOM     31  C   UNL     1       2.103   7.182  20.324  0.00  0.00    +0.000 A 
ATOM     32  C   UNL     1       2.415   7.447  18.981  0.00  0.00    +0.000 A 
ATOM     33  C   UNL     1       2.969   6.453  18.171  0.00  0.00    +0.000 A 
BRANCH  31  34
ATOM     34  N   UNL     1       1.583   8.232  21.105  0.00  0.00    +0.000 N 
ATOM     35  C   UNL     1       0.269   8.377  21.508  0.00  0.00    +0.000 C 
ATOM     36  C   UNL     1       0.043   9.634  22.298  0.00  0.00    +0.000 C 
ATOM     37  O   UNL     1      -0.670   7.629  21.272  0.00  0.00    +0.000 OA
ATOM     38  H   UNL     1       2.241   8.936  21.409  0.00  0.00    +0.000 HD
ENDBRANCH  31  34
ENDBRANCH  27  28
ENDBRANCH  26  27
ENDBRANCH   6  26
TORSDOF 10
ENDMDL
MODEL 3
REMARK VINA RESULT:      -7.4      4.950      8.875
REMARK  Name = 
REMARK  13 active torsions:
REMARK  status: ('A' for Active; 'I' for Inactive)
REMARK    1  A    between atoms: C_1  and  O_2
REMARK    2  A    between atoms: O_2  and  C_3
REMARK    3  A    between atoms: C_5  and  C_6
REMARK    4  A    between atoms: N_7  and  N_8
REMARK    5  A    between atoms: C_9  and  C_11
REMARK    6  A    between atoms: C_14  and  O_15
REMARK    7  A    between atoms: C_20  and  O_21
REMARK    8  A    between atoms: O_21  and  C_22
REMARK    9  A    between atoms: C_23  and  O_24
REMARK   10  A    between atoms: O_24  and  C_25
REMARK   11  A    between atoms: C_25  and  C_26
REMARK   12  A    between atoms: C_29  and  N_30
REMARK   13  A    between atoms: C_31  and  C_32
REMARK                            x       y       z     vdW  Elec       q    Type
REMARK                         _______ _______ _______ _____ _____    ______ ____
ROOT
ATOM      1  C   UNL     1       4.875   3.968  18.879  0.00  0.00    +0.000 A 
ATOM      2  C   UNL     1       5.815   4.960  19.155  0.00  0.00    +0.000 A 
ATOM      3  C   UNL     1       6.239   5.796  18.132  0.00  0.00    +0.000 A 
ATOM      4  C   UNL     1       5.838   5.556  16.821  0.00  0.00    +0.000 A 
ATOM      5  C   UNL     1       4.964   4.503  16.488  0.00  0.00    +0.000 A 
ATOM      6  C   UNL     1       4.436   3.721  17.543  0.00  0.00    +0.000 A 
ENDROOT
BRANCH   1   8
ATOM      7  C   UNL     1       4.855   1.911  20.080  0.00  0.00    +0.000 C 
ATOM      8  O   UNL     1       4.310   3.222  19.893  0.00  0.00    +0.000 OA
ENDBRANCH   1   8
BRANCH   3   9
ATOM      9  C   UNL     1       7.023   7.009  18.439  0.00  0.00    +0.000 C 
ATOM     10  N   UNL     1       8.285   6.917  18.700  0.00  0.00    +0.000 NA
BRANCH  10  11
ATOM     11  N   UNL     1       8.937   8.060  19.039  0.00  0.00    +0.000 N 
ATOM     12  C   UNL     1       8.550   9.242  18.422  0.00  0.00    +0.000 C 
ATOM     13  O   UNL     1       7.639   9.343  17.599  0.00  0.00    +0.000 OA
ATOM     14  H   UNL     1       9.641   8.037  19.768  0.00  0.00    +0.000 HD
BRANCH  12  15
ATOM     15  C   UNL     1       9.282  10.468  18.821  0.00  0.00    +0.000 A 
ATOM     16  C   UNL     1       9.576  10.632  20.183  0.00  0.00    +0.000 A 
ATOM     17  C   UNL     1      10.242  11.772  20.637  0.00  0.00    +0.000 A 
ATOM     18  C   UNL     1      10.610  12.761  19.726  0.00  0.00    +0.000 A 
ATOM     19  C   UNL     1      10.308  12.606  18.370  0.00  0.00    +0.000 A 
ATOM     20 CL   UNL     1      10.732  13.830  17.219  0.00  0.00    +0.000 Cl
ATOM     21  C   UNL     1       9.642  11.469  17.912  0.00  0.00    +0.000 A 
BRANCH  18  22
ATOM     22  O   UNL     1      11.254  13.884  20.171  0.00  0.00    +0.000 OA
ATOM     23  H   UNL     1      12.166  13.659  20.421  0.00  0.00    +0.000 HD
ENDBRANCH  18  22
ENDBRANCH  12  15
ENDBRANCH  10  11
ENDBRANCH   3   9
BRANCH   5  24
ATOM     24  O   UNL     1       4.753   4.545  15.137  0.00  0.00    +0.000 OA
ATOM     25  C   UNL     1       5.551   3.979  14.113  0.00  0.00    +0.000 C 
ENDBRANCH   5  24
BRANCH   6  26
ATOM     26  O   UNL     1       3.461   2.750  17.478  0.00  0.00    +0.000 OA
BRANCH  26  27
ATOM     27  C   UNL     1       2.136   3.230  17.496  0.00  0.00    +0.000 C 
BRANCH  27  28
ATOM     28  C   UNL     1       1.855   4.415  18.366  0.00  0.00    +0.000 A 
ATOM     29  C   UNL     1       1.434   4.167  19.676  0.00  0.00    +0.000 A 
ATOM     30  C   UNL     1       1.394   5.195  20.604  0.00  0.00    +0.000 A 
ATOM     31  C   UNL     1       1.746   6.491  20.235  0.00  0.00    +0.000 A 
ATOM     32  C   UNL     1       2.134   6.746  18.910  0.00  0.00    +0.000 A 
ATOM     33  C   UNL     1       2.193   5.710  17.976  0.00  0.00    +0.000 A 
BRANCH  31  34
ATOM     34  N   UNL     1       1.741   7.566  21.144  0.00  0.00    +0.000 N 
ATOM     35  C   UNL     1       0.629   8.253  21.592  0.00  0.00    +0.000 C 
ATOM     36  C   UNL     1       0.981   9.373  22.528  0.00  0.00    +0.000 C 
ATOM     37  O   UNL     1      -0.541   8.054  21.293  0.00  0.00    +0.000 OA
ATOM     38  H   UNL     1       2.639   7.849  21.513  0.00  0.00    +0.000 HD
ENDBRANCH  31  34
ENDBRANCH  27  28
ENDBRANCH  26  27
ENDBRANCH   6  26
TORSDOF 10
ENDMDL
MODEL 4
REMARK VINA RESULT:      -7.4      1.132      1.211
REMARK  Name = 
REMARK  13 active torsions:
REMARK  status: ('A' for Active; 'I' for Inactive)
REMARK    1  A    between atoms: C_1  and  O_2
REMARK    2  A    between atoms: O_2  and  C_3
REMARK    3  A    between atoms: C_5  and  C_6
REMARK    4  A    between atoms: N_7  and  N_8
REMARK    5  A    between atoms: C_9  and  C_11
REMARK    6  A    between atoms: C_14  and  O_15
REMARK    7  A    between atoms: C_20  and  O_21
REMARK    8  A    between atoms: O_21  and  C_22
REMARK    9  A    between atoms: C_23  and  O_24
REMARK   10  A    between atoms: O_24  and  C_25
REMARK   11  A    between atoms: C_25  and  C_26
REMARK   12  A    between atoms: C_29  and  N_30
REMARK   13  A    between atoms: C_31  and  C_32
REMARK                            x       y       z     vdW  Elec       q    Type
REMARK                         _______ _______ _______ _____ _____    ______ ____
ROOT
ATOM      1  C   UNL     1       1.964   5.430  20.807  0.00  0.00    +0.000 A 
ATOM      2  C   UNL     1       1.246   6.416  21.483  0.00  0.00    +0.000 A 
ATOM      3  C   UNL     1       1.073   7.658  20.889  0.00  0.00    +0.000 A 
ATOM      4  C   UNL     1       1.726   7.960  19.697  0.00  0.00    +0.000 A 
ATOM      5  C   UNL     1       2.539   7.021  19.032  0.00  0.00    +0.000 A 
ATOM      6  C   UNL     1       2.623   5.716  19.573  0.00  0.00    +0.000 A 
ENDROOT
BRANCH   1   8
ATOM      7  C   UNL     1       1.015   3.245  20.804  0.00  0.00    +0.000 C 
ATOM      8  O   UNL     1       2.025   4.138  21.289  0.00  0.00    +0.000 OA
ENDBRANCH   1   8
BRANCH   3   9
ATOM      9  C   UNL     1       0.110   8.625  21.452  0.00  0.00    +0.000 C 
ATOM     10  N   UNL     1       0.495   9.485  22.335  0.00  0.00    +0.000 NA
BRANCH  10  11
ATOM     11  N   UNL     1      -0.453  10.304  22.863  0.00  0.00    +0.000 N 
ATOM     12  C   UNL     1      -0.452  11.638  22.480  0.00  0.00    +0.000 C 
ATOM     13  O   UNL     1       0.331  12.140  21.673  0.00  0.00    +0.000 OA
ATOM     14  H   UNL     1      -1.166   9.916  23.471  0.00  0.00    +0.000 HD
BRANCH  12  15
ATOM     15  C   UNL     1      -1.505  12.498  23.074  0.00  0.00    +0.000 A 
ATOM     16  C   UNL     1      -1.219  13.864  23.219  0.00  0.00    +0.000 A 
ATOM     17  C   UNL     1      -2.152  14.731  23.791  0.00  0.00    +0.000 A 
ATOM     18  C   UNL     1      -3.376  14.229  24.231  0.00  0.00    +0.000 A 
ATOM     19  C   UNL     1      -3.659  12.866  24.100  0.00  0.00    +0.000 A 
ATOM     20 CL   UNL     1      -5.161  12.212  24.660  0.00  0.00    +0.000 Cl
ATOM     21  C   UNL     1      -2.729  11.996  23.529  0.00  0.00    +0.000 A 
BRANCH  18  22
ATOM     22  O   UNL     1      -4.287  15.076  24.802  0.00  0.00    +0.000 OA
ATOM     23  H   UNL     1      -5.001  15.261  24.169  0.00  0.00    +0.000 HD
ENDBRANCH  18  22
ENDBRANCH  12  15
ENDBRANCH  10  11
ENDBRANCH   3   9
BRANCH   5  24
ATOM     24  O   UNL     1       3.017   7.612  17.894  0.00  0.00    +0.000 OA
ATOM     25  C   UNL     1       2.753   8.919  17.417  0.00  0.00    +0.000 C 
ENDBRANCH   5  24
BRANCH   6  26
ATOM     26  O   UNL     1       3.223   4.603  19.025  0.00  0.00    +0.000 OA
BRANCH  26  27
ATOM     27  C   UNL     1       4.608   4.493  19.263  0.00  0.00    +0.000 C 
BRANCH  27  28
ATOM     28  C   UNL     1       5.515   4.652  18.084  0.00  0.00    +0.000 A 
ATOM     29  C   UNL     1       5.247   3.873  16.955  0.00  0.00    +0.000 A 
ATOM     30  C   UNL     1       5.882   4.140  15.753  0.00  0.00    +0.000 A 
ATOM     31  C   UNL     1       6.816   5.170  15.664  0.00  0.00    +0.000 A 
ATOM     32  C   UNL     1       7.111   5.929  16.808  0.00  0.00    +0.000 A 
ATOM     33  C   UNL     1       6.460   5.674  18.017  0.00  0.00    +0.000 A 
BRANCH  31  34
ATOM     34  N   UNL     1       7.473   5.495  14.463  0.00  0.00    +0.000 N 
ATOM     35  C   UNL     1       7.276   4.893  13.234  0.00  0.00    +0.000 C 
ATOM     36  C   UNL     1       8.171   5.453  12.167  0.00  0.00    +0.000 C 
ATOM     37  O   UNL     1       6.499   3.987  12.964  0.00  0.00    +0.000 OA
ATOM     38  H   UNL     1       8.143   6.251  14.505  0.00  0.00    +0.000 HD
ENDBRANCH  31  34
ENDBRANCH  27  28
ENDBRANCH  26  27
ENDBRANCH   6  26
TORSDOF 10
ENDMDL
MODEL 5
REMARK VINA RESULT:      -7.3      4.352     12.133
REMARK  Name = 
REMARK  13 active torsions:
REMARK  status: ('A' for Active; 'I' for Inactive)
REMARK    1  A    between atoms: C_1  and  O_2
REMARK    2  A    between atoms: O_2  and  C_3
REMARK    3  A    between atoms: C_5  and  C_6
REMARK    4  A    between atoms: N_7  and  N_8
REMARK    5  A    between atoms: C_9  and  C_11
REMARK    6  A    between atoms: C_14  and  O_15
REMARK    7  A    between atoms: C_20  and  O_21
REMARK    8  A    between atoms: O_21  and  C_22
REMARK    9  A    between atoms: C_23  and  O_24
REMARK   10  A    between atoms: O_24  and  C_25
REMARK   11  A    between atoms: C_25  and  C_26
REMARK   12  A    between atoms: C_29  and  N_30
REMARK   13  A    between atoms: C_31  and  C_32
REMARK                            x       y       z     vdW  Elec       q    Type
REMARK                         _______ _______ _______ _____ _____    ______ ____
ROOT
ATOM      1  C   UNL     1      -2.219  10.632  18.160  0.00  0.00    +0.000 A 
ATOM      2  C   UNL     1      -1.047  10.114  17.609  0.00  0.00    +0.000 A 
ATOM      3  C   UNL     1       0.117  10.119  18.363  0.00  0.00    +0.000 A 
ATOM      4  C   UNL     1       0.148  10.760  19.598  0.00  0.00    +0.000 A 
ATOM      5  C   UNL     1      -0.992  11.379  20.147  0.00  0.00    +0.000 A 
ATOM      6  C   UNL     1      -2.211  11.274  19.435  0.00  0.00    +0.000 A 
ENDROOT
BRANCH   1   8
ATOM      7  C   UNL     1      -3.467  10.994  16.163  0.00  0.00    +0.000 C 
ATOM      8  O   UNL     1      -3.429  10.503  17.508  0.00  0.00    +0.000 OA
ENDBRANCH   1   8
BRANCH   3   9
ATOM      9  C   UNL     1       1.296   9.351  17.916  0.00  0.00    +0.000 C 
ATOM     10  N   UNL     1       1.843   8.485  18.704  0.00  0.00    +0.000 NA
BRANCH  10  11
ATOM     11  N   UNL     1       2.964   7.858  18.259  0.00  0.00    +0.000 N 
ATOM     12  C   UNL     1       3.132   6.517  18.575  0.00  0.00    +0.000 C 
ATOM     13  O   UNL     1       2.328   5.835  19.211  0.00  0.00    +0.000 OA
ATOM     14  H   UNL     1       3.616   8.360  17.666  0.00  0.00    +0.000 HD
BRANCH  12  15
ATOM     15  C   UNL     1       4.366   5.868  18.068  0.00  0.00    +0.000 A 
ATOM     16  C   UNL     1       5.349   5.521  19.008  0.00  0.00    +0.000 A 
ATOM     17  C   UNL     1       6.545   4.928  18.603  0.00  0.00    +0.000 A 
ATOM     18  C   UNL     1       6.768   4.687  17.249  0.00  0.00    +0.000 A 
ATOM     19  C   UNL     1       5.798   5.042  16.308  0.00  0.00    +0.000 A 
ATOM     20 CL   UNL     1       6.058   4.777  14.616  0.00  0.00    +0.000 Cl
ATOM     21  C   UNL     1       4.600   5.636  16.708  0.00  0.00    +0.000 A 
BRANCH  18  22
ATOM     22  O   UNL     1       7.946   4.115  16.849  0.00  0.00    +0.000 OA
ATOM     23  H   UNL     1       7.793   3.574  16.056  0.00  0.00    +0.000 HD
ENDBRANCH  18  22
ENDBRANCH  12  15
ENDBRANCH  10  11
ENDBRANCH   3   9
BRANCH   5  24
ATOM     24  O   UNL     1      -0.643  11.896  21.365  0.00  0.00    +0.000 OA
ATOM     25  C   UNL     1      -0.027  13.142  21.636  0.00  0.00    +0.000 C 
ENDBRANCH   5  24
BRANCH   6  26
ATOM     26  O   UNL     1      -3.470  11.661  19.839  0.00  0.00    +0.000 OA
BRANCH  26  27
ATOM     27  C   UNL     1      -3.724  13.045  19.761  0.00  0.00    +0.000 C 
BRANCH  27  28
ATOM     28  C   UNL     1      -3.617  13.829  21.030  0.00  0.00    +0.000 A 
ATOM     29  C   UNL     1      -3.658  13.117  22.233  0.00  0.00    +0.000 A 
ATOM     30  C   UNL     1      -3.320  13.736  23.425  0.00  0.00    +0.000 A 
ATOM     31  C   UNL     1      -2.964  15.083  23.442  0.00  0.00    +0.000 A 
ATOM     32  C   UNL     1      -2.958  15.807  22.240  0.00  0.00    +0.000 A 
ATOM     33  C   UNL     1      -3.281  15.182  21.033  0.00  0.00    +0.000 A 
BRANCH  31  34
ATOM     34  N   UNL     1      -2.593  15.753  24.624  0.00  0.00    +0.000 N 
ATOM     35  C   UNL     1      -1.318  15.839  25.149  0.00  0.00    +0.000 C 
ATOM     36  C   UNL     1      -1.277  16.594  26.446  0.00  0.00    +0.000 C 
ATOM     37  O   UNL     1      -0.289  15.362  24.689  0.00  0.00    +0.000 OA
ATOM     38  H   UNL     1      -3.332  16.228  25.124  0.00  0.00    +0.000 HD
ENDBRANCH  31  34
ENDBRANCH  27  28
ENDBRANCH  26  27
ENDBRANCH   6  26
TORSDOF 10
ENDMDL
MODEL 6
REMARK VINA RESULT:      -7.3      6.212      9.424
REMARK  Name = 
REMARK  13 active torsions:
REMARK  status: ('A' for Active; 'I' for Inactive)
REMARK    1  A    between atoms: C_1  and  O_2
REMARK    2  A    between atoms: O_2  and  C_3
REMARK    3  A    between atoms: C_5  and  C_6
REMARK    4  A    between atoms: N_7  and  N_8
REMARK    5  A    between atoms: C_9  and  C_11
REMARK    6  A    between atoms: C_14  and  O_15
REMARK    7  A    between atoms: C_20  and  O_21
REMARK    8  A    between atoms: O_21  and  C_22
REMARK    9  A    between atoms: C_23  and  O_24
REMARK   10  A    between atoms: O_24  and  C_25
REMARK   11  A    between atoms: C_25  and  C_26
REMARK   12  A    between atoms: C_29  and  N_30
REMARK   13  A    between atoms: C_31  and  C_32
REMARK                            x       y       z     vdW  Elec       q    Type
REMARK                         _______ _______ _______ _____ _____    ______ ____
ROOT
ATOM      1  C   UNL     1       7.522   5.962  18.977  0.00  0.00    +0.000 A 
ATOM      2  C   UNL     1       8.064   7.245  18.909  0.00  0.00    +0.000 A 
ATOM      3  C   UNL     1       7.923   7.982  17.742  0.00  0.00    +0.000 A 
ATOM      4  C   UNL     1       7.373   7.393  16.607  0.00  0.00    +0.000 A 
ATOM      5  C   UNL     1       6.901   6.066  16.607  0.00  0.00    +0.000 A 
ATOM      6  C   UNL     1       6.935   5.351  17.828  0.00  0.00    +0.000 A 
ENDROOT
BRANCH   1   8
ATOM      7  C   UNL     1       8.781   4.945  20.725  0.00  0.00    +0.000 C 
ATOM      8  O   UNL     1       7.501   5.260  20.165  0.00  0.00    +0.000 OA
ENDBRANCH   1   8
BRANCH   3   9
ATOM      9  C   UNL     1       8.249   9.421  17.726  0.00  0.00    +0.000 C 
ATOM     10  N   UNL     1       8.965   9.935  18.671  0.00  0.00    +0.000 NA
BRANCH  10  11
ATOM     11  N   UNL     1       9.175  11.277  18.635  0.00  0.00    +0.000 N 
ATOM     12  C   UNL     1      10.463  11.744  18.857  0.00  0.00    +0.000 C 
ATOM     13  O   UNL     1      11.446  11.032  19.063  0.00  0.00    +0.000 OA
ATOM     14  H   UNL     1       8.409  11.896  18.392  0.00  0.00    +0.000 HD
BRANCH  12  15
ATOM     15  C   UNL     1      10.652  13.215  18.805  0.00  0.00    +0.000 A 
ATOM     16  C   UNL     1      10.635  13.826  17.543  0.00  0.00    +0.000 A 
ATOM     17  C   UNL     1      10.830  15.203  17.414  0.00  0.00    +0.000 A 
ATOM     18  C   UNL     1      11.051  15.974  18.554  0.00  0.00    +0.000 A 
ATOM     19  C   UNL     1      11.080  15.367  19.813  0.00  0.00    +0.000 A 
ATOM     20 CL   UNL     1      11.377  16.297  21.243  0.00  0.00    +0.000 Cl
ATOM     21  C   UNL     1      10.887  13.991  19.946  0.00  0.00    +0.000 A 
BRANCH  18  22
ATOM     22  O   UNL     1      11.252  17.322  18.428  0.00  0.00    +0.000 OA
ATOM     23  H   UNL     1      10.972  17.612  17.544  0.00  0.00    +0.000 HD
ENDBRANCH  18  22
ENDBRANCH  12  15
ENDBRANCH  10  11
ENDBRANCH   3   9
BRANCH   5  24
ATOM     24  O   UNL     1       6.409   5.796  15.359  0.00  0.00    +0.000 OA
ATOM     25  C   UNL     1       6.708   4.688  14.528  0.00  0.00    +0.000 C 
ENDBRANCH   5  24
BRANCH   6  26
ATOM     26  O   UNL     1       6.398   4.112  18.105  0.00  0.00    +0.000 OA
BRANCH  26  27
ATOM     27  C   UNL     1       5.013   3.995  17.872  0.00  0.00    +0.000 C 
BRANCH  27  28
ATOM     28  C   UNL     1       4.107   4.819  18.732  0.00  0.00    +0.000 A 
ATOM     29  C   UNL     1       3.553   5.971  18.165  0.00  0.00    +0.000 A 
ATOM     30  C   UNL     1       2.525   6.641  18.807  0.00  0.00    +0.000 A 
ATOM     31  C   UNL     1       2.051   6.190  20.037  0.00  0.00    +0.000 A 
ATOM     32  C   UNL     1       2.632   5.054  20.623  0.00  0.00    +0.000 A 
ATOM     33  C   UNL     1       3.657   4.366  19.971  0.00  0.00    +0.000 A 
BRANCH  31  34
ATOM     34  N   UNL     1       0.995   6.823  20.720  0.00  0.00    +0.000 N 
ATOM     35  C   UNL     1       0.968   8.138  21.146  0.00  0.00    +0.000 C 
ATOM     36  C   UNL     1      -0.295   8.481  21.881  0.00  0.00    +0.000 C 
ATOM     37  O   UNL     1       1.839   8.985  21.003  0.00  0.00    +0.000 OA
ATOM     38  H   UNL     1       0.174   6.261  20.902  0.00  0.00    +0.000 HD
ENDBRANCH  31  34
ENDBRANCH  27  28
ENDBRANCH  26  27
ENDBRANCH   6  26
TORSDOF 10
ENDMDL
MODEL 7
REMARK VINA RESULT:      -7.1      1.062      1.092
REMARK  Name = 
REMARK  13 active torsions:
REMARK  status: ('A' for Active; 'I' for Inactive)
REMARK    1  A    between atoms: C_1  and  O_2
REMARK    2  A    between atoms: O_2  and  C_3
REMARK    3  A    between atoms: C_5  and  C_6
REMARK    4  A    between atoms: N_7  and  N_8
REMARK    5  A    between atoms: C_9  and  C_11
REMARK    6  A    between atoms: C_14  and  O_15
REMARK    7  A    between atoms: C_20  and  O_21
REMARK    8  A    between atoms: O_21  and  C_22
REMARK    9  A    between atoms: C_23  and  O_24
REMARK   10  A    between atoms: O_24  and  C_25
REMARK   11  A    between atoms: C_25  and  C_26
REMARK   12  A    between atoms: C_29  and  N_30
REMARK   13  A    between atoms: C_31  and  C_32
REMARK                            x       y       z     vdW  Elec       q    Type
REMARK                         _______ _______ _______ _____ _____    ______ ____
ROOT
ATOM      1  C   UNL     1       2.317   5.231  20.814  0.00  0.00    +0.000 A 
ATOM      2  C   UNL     1       1.571   6.295  21.320  0.00  0.00    +0.000 A 
ATOM      3  C   UNL     1       1.405   7.436  20.548  0.00  0.00    +0.000 A 
ATOM      4  C   UNL     1       2.091   7.572  19.344  0.00  0.00    +0.000 A 
ATOM      5  C   UNL     1       2.931   6.557  18.845  0.00  0.00    +0.000 A 
ATOM      6  C   UNL     1       3.010   5.345  19.571  0.00  0.00    +0.000 A 
ENDROOT
BRANCH   1   8
ATOM      7  C   UNL     1       1.344   3.083  21.152  0.00  0.00    +0.000 C 
ATOM      8  O   UNL     1       2.374   4.023  21.479  0.00  0.00    +0.000 OA
ENDBRANCH   1   8
BRANCH   3   9
ATOM      9  C   UNL     1       0.417   8.461  20.938  0.00  0.00    +0.000 C 
ATOM     10  N   UNL     1       0.469   8.999  22.112  0.00  0.00    +0.000 NA
BRANCH  10  11
ATOM     11  N   UNL     1      -0.507   9.888  22.434  0.00  0.00    +0.000 N 
ATOM     12  C   UNL     1      -0.269  11.235  22.200  0.00  0.00    +0.000 C 
ATOM     13  O   UNL     1       0.757  11.694  21.697  0.00  0.00    +0.000 OA
ATOM     14  H   UNL     1      -1.399   9.549  22.778  0.00  0.00    +0.000 HD
BRANCH  12  15
ATOM     15  C   UNL     1      -1.360  12.173  22.561  0.00  0.00    +0.000 A 
ATOM     16  C   UNL     1      -1.295  13.474  22.040  0.00  0.00    +0.000 A 
ATOM     17  C   UNL     1      -2.274  14.418  22.355  0.00  0.00    +0.000 A 
ATOM     18  C   UNL     1      -3.321  14.064  23.204  0.00  0.00    +0.000 A 
ATOM     19  C   UNL     1      -3.383  12.773  23.735  0.00  0.00    +0.000 A 
ATOM     20 CL   UNL     1      -4.660  12.313  24.811  0.00  0.00    +0.000 Cl
ATOM     21  C   UNL     1      -2.407  11.826  23.423  0.00  0.00    +0.000 A 
BRANCH  18  22
ATOM     22  O   UNL     1      -4.276  14.992  23.522  0.00  0.00    +0.000 OA
ATOM     23  H   UNL     1      -4.725  15.289  22.712  0.00  0.00    +0.000 HD
ENDBRANCH  18  22
ENDBRANCH  12  15
ENDBRANCH  10  11
ENDBRANCH   3   9
BRANCH   5  24
ATOM     24  O   UNL     1       3.438   6.984  17.648  0.00  0.00    +0.000 OA
ATOM     25  C   UNL     1       4.732   7.494  17.384  0.00  0.00    +0.000 C 
ENDBRANCH   5  24
BRANCH   6  26
ATOM     26  O   UNL     1       3.636   4.172  19.206  0.00  0.00    +0.000 OA
BRANCH  26  27
ATOM     27  C   UNL     1       5.026   4.276  19.000  0.00  0.00    +0.000 C 
BRANCH  27  28
ATOM     28  C   UNL     1       5.520   4.098  17.599  0.00  0.00    +0.000 A 
ATOM     29  C   UNL     1       4.571   3.816  16.612  0.00  0.00    +0.000 A 
ATOM     30  C   UNL     1       4.913   3.882  15.271  0.00  0.00    +0.000 A 
ATOM     31  C   UNL     1       6.215   4.204  14.893  0.00  0.00    +0.000 A 
ATOM     32  C   UNL     1       7.177   4.453  15.885  0.00  0.00    +0.000 A 
ATOM     33  C   UNL     1       6.831   4.404  17.237  0.00  0.00    +0.000 A 
BRANCH  31  34
ATOM     34  N   UNL     1       6.609   4.304  13.545  0.00  0.00    +0.000 N 
ATOM     35  C   UNL     1       7.643   5.076  13.051  0.00  0.00    +0.000 C 
ATOM     36  C   UNL     1       7.769   4.986  11.558  0.00  0.00    +0.000 C 
ATOM     37  O   UNL     1       8.403   5.798  13.684  0.00  0.00    +0.000 OA
ATOM     38  H   UNL     1       6.091   3.745  12.880  0.00  0.00    +0.000 HD
ENDBRANCH  31  34
ENDBRANCH  27  28
ENDBRANCH  26  27
ENDBRANCH   6  26
TORSDOF 10
ENDMDL
MODEL 8
REMARK VINA RESULT:      -7.0      1.869      2.335
REMARK  Name = 
REMARK  13 active torsions:
REMARK  status: ('A' for Active; 'I' for Inactive)
REMARK    1  A    between atoms: C_1  and  O_2
REMARK    2  A    between atoms: O_2  and  C_3
REMARK    3  A    between atoms: C_5  and  C_6
REMARK    4  A    between atoms: N_7  and  N_8
REMARK    5  A    between atoms: C_9  and  C_11
REMARK    6  A    between atoms: C_14  and  O_15
REMARK    7  A    between atoms: C_20  and  O_21
REMARK    8  A    between atoms: O_21  and  C_22
REMARK    9  A    between atoms: C_23  and  O_24
REMARK   10  A    between atoms: O_24  and  C_25
REMARK   11  A    between atoms: C_25  and  C_26
REMARK   12  A    between atoms: C_29  and  N_30
REMARK   13  A    between atoms: C_31  and  C_32
REMARK                            x       y       z     vdW  Elec       q    Type
REMARK                         _______ _______ _______ _____ _____    ______ ____
ROOT
ATOM      1  C   UNL     1       1.463   6.164  20.564  0.00  0.00    +0.000 A 
ATOM      2  C   UNL     1       0.823   7.061  21.418  0.00  0.00    +0.000 A 
ATOM      3  C   UNL     1       0.776   8.405  21.081  0.00  0.00    +0.000 A 
ATOM      4  C   UNL     1       1.481   8.873  19.975  0.00  0.00    +0.000 A 
ATOM      5  C   UNL     1       2.221   8.012  19.142  0.00  0.00    +0.000 A 
ATOM      6  C   UNL     1       2.174   6.624  19.414  0.00  0.00    +0.000 A 
ENDROOT
BRANCH   1   8
ATOM      7  C   UNL     1       2.477   4.238  21.532  0.00  0.00    +0.000 C 
ATOM      8  O   UNL     1       1.396   4.803  20.781  0.00  0.00    +0.000 OA
ENDBRANCH   1   8
BRANCH   3   9
ATOM      9  C   UNL     1      -0.109   9.328  21.819  0.00  0.00    +0.000 C 
ATOM     10  N   UNL     1      -0.251  10.549  21.421  0.00  0.00    +0.000 NA
BRANCH  10  11
ATOM     11  N   UNL     1      -1.027  11.366  22.180  0.00  0.00    +0.000 N 
ATOM     12  C   UNL     1      -1.977  12.149  21.538  0.00  0.00    +0.000 C 
ATOM     13  O   UNL     1      -2.191  12.145  20.325  0.00  0.00    +0.000 OA
ATOM     14  H   UNL     1      -0.938  11.344  23.190  0.00  0.00    +0.000 HD
BRANCH  12  15
ATOM     15  C   UNL     1      -2.807  13.024  22.401  0.00  0.00    +0.000 A 
ATOM     16  C   UNL     1      -4.132  13.256  22.005  0.00  0.00    +0.000 A 
ATOM     17  C   UNL     1      -4.966  14.087  22.755  0.00  0.00    +0.000 A 
ATOM     18  C   UNL     1      -4.470  14.700  23.904  0.00  0.00    +0.000 A 
ATOM     19  C   UNL     1      -3.146  14.482  24.295  0.00  0.00    +0.000 A 
ATOM     20 CL   UNL     1      -2.497  15.250  25.706  0.00  0.00    +0.000 Cl
ATOM     21  C   UNL     1      -2.309  13.652  23.549  0.00  0.00    +0.000 A 
BRANCH  18  22
ATOM     22  O   UNL     1      -5.284  15.524  24.635  0.00  0.00    +0.000 OA
ATOM     23  H   UNL     1      -6.156  15.109  24.743  0.00  0.00    +0.000 HD
ENDBRANCH  18  22
ENDBRANCH  12  15
ENDBRANCH  10  11
ENDBRANCH   3   9
BRANCH   5  24
ATOM     24  O   UNL     1       2.777   8.768  18.145  0.00  0.00    +0.000 OA
ATOM     25  C   UNL     1       2.287   9.978  17.596  0.00  0.00    +0.000 C 
ENDBRANCH   5  24
BRANCH   6  26
ATOM     26  O   UNL     1       2.684   5.589  18.660  0.00  0.00    +0.000 OA
BRANCH  26  27
ATOM     27  C   UNL     1       4.066   5.668  18.395  0.00  0.00    +0.000 C 
BRANCH  27  28
ATOM     28  C   UNL     1       4.535   5.146  17.074  0.00  0.00    +0.000 A 
ATOM     29  C   UNL     1       5.059   6.071  16.165  0.00  0.00    +0.000 A 
ATOM     30  C   UNL     1       5.734   5.637  15.035  0.00  0.00    +0.000 A 
ATOM     31  C   UNL     1       5.871   4.275  14.778  0.00  0.00    +0.000 A 
ATOM     32  C   UNL     1       5.314   3.347  15.672  0.00  0.00    +0.000 A 
ATOM     33  C   UNL     1       4.649   3.780  16.821  0.00  0.00    +0.000 A 
BRANCH  31  34
ATOM     34  N   UNL     1       6.564   3.783  13.655  0.00  0.00    +0.000 N 
ATOM     35  C   UNL     1       6.000   3.368  12.463  0.00  0.00    +0.000 C 
ATOM     36  C   UNL     1       7.021   2.860  11.487  0.00  0.00    +0.000 C 
ATOM     37  O   UNL     1       4.814   3.360  12.164  0.00  0.00    +0.000 OA
ATOM     38  H   UNL     1       7.572   3.744  13.728  0.00  0.00    +0.000 HD
ENDBRANCH  31  34
ENDBRANCH  27  28
ENDBRANCH  26  27
ENDBRANCH   6  26
TORSDOF 10
ENDMDL
MODEL 9
REMARK VINA RESULT:      -7.0      4.617     10.828
REMARK  Name = 
REMARK  13 active torsions:
REMARK  status: ('A' for Active; 'I' for Inactive)
REMARK    1  A    between atoms: C_1  and  O_2
REMARK    2  A    between atoms: O_2  and  C_3
REMARK    3  A    between atoms: C_5  and  C_6
REMARK    4  A    between atoms: N_7  and  N_8
REMARK    5  A    between atoms: C_9  and  C_11
REMARK    6  A    between atoms: C_14  and  O_15
REMARK    7  A    between atoms: C_20  and  O_21
REMARK    8  A    between atoms: O_21  and  C_22
REMARK    9  A    between atoms: C_23  and  O_24
REMARK   10  A    between atoms: O_24  and  C_25
REMARK   11  A    between atoms: C_25  and  C_26
REMARK   12  A    between atoms: C_29  and  N_30
REMARK   13  A    between atoms: C_31  and  C_32
REMARK                            x       y       z     vdW  Elec       q    Type
REMARK                         _______ _______ _______ _____ _____    ______ ____
ROOT
ATOM      1  C   UNL     1      -0.848  10.863  20.851  0.00  0.00    +0.000 A 
ATOM      2  C   UNL     1       0.141   9.999  20.384  0.00  0.00    +0.000 A 
ATOM      3  C   UNL     1       0.334   9.863  19.017  0.00  0.00    +0.000 A 
ATOM      4  C   UNL     1      -0.542  10.472  18.123  0.00  0.00    +0.000 A 
ATOM      5  C   UNL     1      -1.613  11.276  18.558  0.00  0.00    +0.000 A 
ATOM      6  C   UNL     1      -1.743  11.513  19.947  0.00  0.00    +0.000 A 
ENDROOT
BRANCH   1   8
ATOM      7  C   UNL     1      -0.321  10.231  23.086  0.00  0.00    +0.000 C 
ATOM      8  O   UNL     1      -0.968  11.148  22.196  0.00  0.00    +0.000 OA
ENDBRANCH   1   8
BRANCH   3   9
ATOM      9  C   UNL     1       1.530   9.168  18.499  0.00  0.00    +0.000 C 
ATOM     10  N   UNL     1       1.693   7.906  18.718  0.00  0.00    +0.000 NA
BRANCH  10  11
ATOM     11  N   UNL     1       2.845   7.339  18.273  0.00  0.00    +0.000 N 
ATOM     12  C   UNL     1       3.312   6.207  18.926  0.00  0.00    +0.000 C 
ATOM     13  O   UNL     1       2.749   5.654  19.872  0.00  0.00    +0.000 OA
ATOM     14  H   UNL     1       3.301   7.714  17.449  0.00  0.00    +0.000 HD
BRANCH  12  15
ATOM     15  C   UNL     1       4.570   5.615  18.409  0.00  0.00    +0.000 A 
ATOM     16  C   UNL     1       5.686   5.619  19.259  0.00  0.00    +0.000 A 
ATOM     17  C   UNL     1       6.910   5.101  18.833  0.00  0.00    +0.000 A 
ATOM     18  C   UNL     1       7.024   4.583  17.544  0.00  0.00    +0.000 A 
ATOM     19  C   UNL     1       5.919   4.589  16.689  0.00  0.00    +0.000 A 
ATOM     20 CL   UNL     1       6.039   3.975  15.074  0.00  0.00    +0.000 Cl
ATOM     21  C   UNL     1       4.693   5.107  17.111  0.00  0.00    +0.000 A 
BRANCH  18  22
ATOM     22  O   UNL     1       8.227   4.084  17.121  0.00  0.00    +0.000 OA
ATOM     23  H   UNL     1       8.084   3.249  16.646  0.00  0.00    +0.000 HD
ENDBRANCH  18  22
ENDBRANCH  12  15
ENDBRANCH  10  11
ENDBRANCH   3   9
BRANCH   5  24
ATOM     24  O   UNL     1      -2.268  11.738  17.449  0.00  0.00    +0.000 OA
ATOM     25  C   UNL     1      -3.567  11.395  16.999  0.00  0.00    +0.000 C 
ENDBRANCH   5  24
BRANCH   6  26
ATOM     26  O   UNL     1      -2.607  12.375  20.588  0.00  0.00    +0.000 OA
BRANCH  26  27
ATOM     27  C   UNL     1      -2.353  13.745  20.374  0.00  0.00    +0.000 C 
BRANCH  27  28
ATOM     28  C   UNL     1      -0.958  14.224  20.624  0.00  0.00    +0.000 A 
ATOM     29  C   UNL     1      -0.200  14.610  19.514  0.00  0.00    +0.000 A 
ATOM     30  C   UNL     1       0.995  15.290  19.684  0.00  0.00    +0.000 A 
ATOM     31  C   UNL     1       1.468  15.571  20.964  0.00  0.00    +0.000 A 
ATOM     32  C   UNL     1       0.725  15.152  22.079  0.00  0.00    +0.000 A 
ATOM     33  C   UNL     1      -0.489  14.482  21.911  0.00  0.00    +0.000 A 
BRANCH  31  34
ATOM     34  N   UNL     1       2.666  16.276  21.190  0.00  0.00    +0.000 N 
ATOM     35  C   UNL     1       3.944  15.753  21.141  0.00  0.00    +0.000 C 
ATOM     36  C   UNL     1       4.997  16.770  21.475  0.00  0.00    +0.000 C 
ATOM     37  O   UNL     1       4.269  14.601  20.888  0.00  0.00    +0.000 OA
ATOM     38  H   UNL     1       2.577  17.262  21.394  0.00  0.00    +0.000 HD
ENDBRANCH  31  34
ENDBRANCH  27  28
ENDBRANCH  26  27
ENDBRANCH   6  26
TORSDOF 10
ENDMDL
