MODEL 1
REMARK VINA RESULT:      -9.0      0.000      0.000
REMARK  Name = 
REMARK  4 active torsions:
REMARK  status: ('A' for Active; 'I' for Inactive)
REMARK    1  A    between atoms: C_2  and  C_14
REMARK    2  A    between atoms: N_3  and  C_4
REMARK    3  A    between atoms: C_18  and  S_19
REMARK    4  A    between atoms: S_19  and  N_22
REMARK                            x       y       z     vdW  Elec       q    Type
REMARK                         _______ _______ _______ _____ _____    ______ ____
ROOT
ATOM      1  C   UNL     1       6.742   6.153  17.133  0.00  0.00    +0.000 A 
ATOM      2  C   UNL     1       7.135   5.482  15.970  0.00  0.00    +0.000 A 
ATOM      3  C   UNL     1       6.270   4.542  15.403  0.00  0.00    +0.000 A 
ATOM      4  C   UNL     1       5.023   4.282  15.985  0.00  0.00    +0.000 A 
ATOM      5  C   UNL     1       4.637   4.964  17.147  0.00  0.00    +0.000 A 
ATOM      6  C   UNL     1       5.499   5.889  17.724  0.00  0.00    +0.000 A 
ENDROOT
BRANCH   1   8
ATOM      7  O   UNL     1       8.212   6.673  18.824  0.00  0.00    +0.000 OA
ATOM      8  C   UNL     1       7.626   7.115  17.839  0.00  0.00    +0.000 C 
ATOM      9  N   UNL     1       7.638   8.416  17.374  0.00  0.00    +0.000 N 
ATOM     10  H   UNL     1       7.002   8.659  16.622  0.00  0.00    +0.000 HD
BRANCH   9  11
ATOM     11  C   UNL     1       8.304   9.497  18.010  0.00  0.00    +0.000 A 
ATOM     12  C   UNL     1       9.008   9.346  19.211  0.00  0.00    +0.000 A 
ATOM     13  C   UNL     1       9.589  10.439  19.853  0.00  0.00    +0.000 A 
ATOM     14  C   UNL     1       9.481  11.705  19.298  0.00  0.00    +0.000 A 
ATOM     15  C   UNL     1       8.824  11.873  18.076  0.00  0.00    +0.000 A 
ATOM     16  C   UNL     1       8.236  10.774  17.432  0.00  0.00    +0.000 A 
ATOM     17  O   UNL     1       8.696  13.097  17.466  0.00  0.00    +0.000 OA
ATOM     18  C   UNL     1       9.586  14.068  18.039  0.00  0.00    +0.000 C 
ATOM     19  C   UNL     1       9.577  13.999  19.556  0.00  0.00    +0.000 C 
ATOM     20  O   UNL     1      10.051  12.728  20.006  0.00  0.00    +0.000 OA
ENDBRANCH   9  11
ENDBRANCH   1   8
BRANCH   5  21
ATOM     21  S   UNL     1       3.004   4.678  17.796  0.00  0.00    +0.000 S 
ATOM     22  O   UNL     1       2.405   5.987  17.914  0.00  0.00    +0.000 OA
ATOM     23  O   UNL     1       2.397   3.638  16.993  0.00  0.00    +0.000 OA
BRANCH  21  24
ATOM     24  N   UNL     1       3.233   4.065  19.367  0.00  0.00    +0.000 NA
ATOM     25  C   UNL     1       3.177   2.581  19.551  0.00  0.00    +0.000 C 
ATOM     26  C   UNL     1       1.740   2.088  19.775  0.00  0.00    +0.000 C 
ATOM     27  O   UNL     1       1.097   2.781  20.854  0.00  0.00    +0.000 OA
ATOM     28  C   UNL     1       1.080   4.198  20.634  0.00  0.00    +0.000 C 
ATOM     29  C   UNL     1       2.499   4.749  20.476  0.00  0.00    +0.000 C 
ENDBRANCH  21  24
ENDBRANCH   5  21
TORSDOF 4
ENDMDL
MODEL 2
REMARK VINA RESULT:      -9.0      1.131      1.428
REMARK  Name = 
REMARK  4 active torsions:
REMARK  status: ('A' for Active; 'I' for Inactive)
REMARK    1  A    between atoms: C_2  and  C_14
REMARK    2  A    between atoms: N_3  and  C_4
REMARK    3  A    between atoms: C_18  and  S_19
REMARK    4  A    between atoms: S_19  and  N_22
REMARK                            x       y       z     vdW  Elec       q    Type
REMARK                         _______ _______ _______ _____ _____    ______ ____
ROOT
ATOM      1  C   UNL     1       6.727   6.266  17.245  0.00  0.00    +0.000 A 
ATOM      2  C   UNL     1       6.582   6.187  15.857  0.00  0.00    +0.000 A 
ATOM      3  C   UNL     1       5.742   5.210  15.315  0.00  0.00    +0.000 A 
ATOM      4  C   UNL     1       5.047   4.328  16.152  0.00  0.00    +0.000 A 
ATOM      5  C   UNL     1       5.195   4.419  17.543  0.00  0.00    +0.000 A 
ATOM      6  C   UNL     1       6.041   5.379  18.086  0.00  0.00    +0.000 A 
ENDROOT
BRANCH   1   8
ATOM      7  O   UNL     1       8.296   6.782  18.846  0.00  0.00    +0.000 OA
ATOM      8  C   UNL     1       7.650   7.227  17.901  0.00  0.00    +0.000 C 
ATOM      9  N   UNL     1       7.632   8.530  17.441  0.00  0.00    +0.000 N 
ATOM     10  H   UNL     1       6.950   8.774  16.730  0.00  0.00    +0.000 HD
BRANCH   9  11
ATOM     11  C   UNL     1       8.333   9.610  18.040  0.00  0.00    +0.000 A 
ATOM     12  C   UNL     1       9.104   9.456  19.198  0.00  0.00    +0.000 A 
ATOM     13  C   UNL     1       9.722  10.548  19.808  0.00  0.00    +0.000 A 
ATOM     14  C   UNL     1       9.582  11.815  19.263  0.00  0.00    +0.000 A 
ATOM     15  C   UNL     1       8.856  11.986  18.081  0.00  0.00    +0.000 A 
ATOM     16  C   UNL     1       8.232  10.888  17.470  0.00  0.00    +0.000 A 
ATOM     17  O   UNL     1       8.693  13.211  17.482  0.00  0.00    +0.000 OA
ATOM     18  C   UNL     1       9.614  14.181  18.004  0.00  0.00    +0.000 C 
ATOM     19  C   UNL     1       9.692  14.109  19.520  0.00  0.00    +0.000 C 
ATOM     20  O   UNL     1      10.192  12.837  19.939  0.00  0.00    +0.000 OA
ENDBRANCH   9  11
ENDBRANCH   1   8
BRANCH   5  21
ATOM     21  S   UNL     1       4.217   3.346  18.572  0.00  0.00    +0.000 S 
ATOM     22  O   UNL     1       3.755   2.294  17.698  0.00  0.00    +0.000 OA
ATOM     23  O   UNL     1       4.996   3.056  19.757  0.00  0.00    +0.000 OA
BRANCH  21  24
ATOM     24  N   UNL     1       2.864   4.266  19.043  0.00  0.00    +0.000 NA
ATOM     25  C   UNL     1       2.728   4.613  20.492  0.00  0.00    +0.000 C 
ATOM     26  C   UNL     1       2.009   3.508  21.279  0.00  0.00    +0.000 C 
ATOM     27  O   UNL     1       0.743   3.169  20.693  0.00  0.00    +0.000 OA
ATOM     28  C   UNL     1       0.890   2.757  19.327  0.00  0.00    +0.000 C 
ATOM     29  C   UNL     1       1.539   3.858  18.484  0.00  0.00    +0.000 C 
ENDBRANCH  21  24
ENDBRANCH   5  21
TORSDOF 4
ENDMDL
MODEL 3
REMARK VINA RESULT:      -8.7      5.877      8.687
REMARK  Name = 
REMARK  4 active torsions:
REMARK  status: ('A' for Active; 'I' for Inactive)
REMARK    1  A    between atoms: C_2  and  C_14
REMARK    2  A    between atoms: N_3  and  C_4
REMARK    3  A    between atoms: C_18  and  S_19
REMARK    4  A    between atoms: S_19  and  N_22
REMARK                            x       y       z     vdW  Elec       q    Type
REMARK                         _______ _______ _______ _____ _____    ______ ____
ROOT
ATOM      1  C   UNL     1       1.188   9.124  19.356  0.00  0.00    +0.000 A 
ATOM      2  C   UNL     1       1.324   9.073  20.747  0.00  0.00    +0.000 A 
ATOM      3  C   UNL     1       0.479   9.854  21.542  0.00  0.00    +0.000 A 
ATOM      4  C   UNL     1      -0.498  10.667  20.953  0.00  0.00    +0.000 A 
ATOM      5  C   UNL     1      -0.629  10.706  19.558  0.00  0.00    +0.000 A 
ATOM      6  C   UNL     1       0.218   9.943  18.762  0.00  0.00    +0.000 A 
ENDROOT
BRANCH   1   8
ATOM      7  O   UNL     1       2.299   8.920  17.352  0.00  0.00    +0.000 OA
ATOM      8  C   UNL     1       2.087   8.382  18.436  0.00  0.00    +0.000 C 
ATOM      9  N   UNL     1       2.525   7.139  18.851  0.00  0.00    +0.000 N 
ATOM     10  H   UNL     1       2.163   6.774  19.726  0.00  0.00    +0.000 HD
BRANCH   9  11
ATOM     11  C   UNL     1       3.265   6.231  18.048  0.00  0.00    +0.000 A 
ATOM     12  C   UNL     1       2.909   4.884  17.913  0.00  0.00    +0.000 A 
ATOM     13  C   UNL     1       3.695   3.996  17.178  0.00  0.00    +0.000 A 
ATOM     14  C   UNL     1       4.851   4.446  16.559  0.00  0.00    +0.000 A 
ATOM     15  C   UNL     1       5.201   5.797  16.641  0.00  0.00    +0.000 A 
ATOM     16  C   UNL     1       4.412   6.688  17.383  0.00  0.00    +0.000 A 
ATOM     17  O   UNL     1       6.325   6.308  16.037  0.00  0.00    +0.000 OA
ATOM     18  C   UNL     1       6.866   5.396  15.070  0.00  0.00    +0.000 C 
ATOM     19  C   UNL     1       6.904   3.976  15.608  0.00  0.00    +0.000 C 
ATOM     20  O   UNL     1       5.583   3.506  15.884  0.00  0.00    +0.000 OA
ENDBRANCH   9  11
ENDBRANCH   1   8
BRANCH   5  21
ATOM     21  S   UNL     1      -1.948  11.673  18.857  0.00  0.00    +0.000 S 
ATOM     22  O   UNL     1      -2.638  12.254  19.985  0.00  0.00    +0.000 OA
ATOM     23  O   UNL     1      -1.372  12.499  17.816  0.00  0.00    +0.000 OA
BRANCH  21  24
ATOM     24  N   UNL     1      -3.000  10.556  18.121  0.00  0.00    +0.000 NA
ATOM     25  C   UNL     1      -2.560   9.925  16.838  0.00  0.00    +0.000 C 
ATOM     26  C   UNL     1      -2.933  10.785  15.621  0.00  0.00    +0.000 C 
ATOM     27  O   UNL     1      -4.332  11.108  15.602  0.00  0.00    +0.000 OA
ATOM     28  C   UNL     1      -4.732  11.786  16.801  0.00  0.00    +0.000 C 
ATOM     29  C   UNL     1      -4.444  10.935  18.040  0.00  0.00    +0.000 C 
ENDBRANCH  21  24
ENDBRANCH   5  21
TORSDOF 4
ENDMDL
MODEL 4
REMARK VINA RESULT:      -8.6      1.225      1.665
REMARK  Name = 
REMARK  4 active torsions:
REMARK  status: ('A' for Active; 'I' for Inactive)
REMARK    1  A    between atoms: C_2  and  C_14
REMARK    2  A    between atoms: N_3  and  C_4
REMARK    3  A    between atoms: C_18  and  S_19
REMARK    4  A    between atoms: S_19  and  N_22
REMARK                            x       y       z     vdW  Elec       q    Type
REMARK                         _______ _______ _______ _____ _____    ______ ____
ROOT
ATOM      1  C   UNL     1       6.656   6.096  17.187  0.00  0.00    +0.000 A 
ATOM      2  C   UNL     1       6.640   5.934  15.798  0.00  0.00    +0.000 A 
ATOM      3  C   UNL     1       5.813   4.957  15.236  0.00  0.00    +0.000 A 
ATOM      4  C   UNL     1       5.003   4.158  16.053  0.00  0.00    +0.000 A 
ATOM      5  C   UNL     1       5.023   4.332  17.444  0.00  0.00    +0.000 A 
ATOM      6  C   UNL     1       5.854   5.292  18.009  0.00  0.00    +0.000 A 
ENDROOT
BRANCH   1   8
ATOM      7  O   UNL     1       8.143   6.629  18.859  0.00  0.00    +0.000 OA
ATOM      8  C   UNL     1       7.554   7.060  17.870  0.00  0.00    +0.000 C 
ATOM      9  N   UNL     1       7.577   8.353  17.384  0.00  0.00    +0.000 N 
ATOM     10  H   UNL     1       6.937   8.590  16.632  0.00  0.00    +0.000 HD
BRANCH   9  11
ATOM     11  C   UNL     1       8.258   9.439  17.997  0.00  0.00    +0.000 A 
ATOM     12  C   UNL     1       9.020   9.287  19.161  0.00  0.00    +0.000 A 
ATOM     13  C   UNL     1       9.618  10.382  19.784  0.00  0.00    +0.000 A 
ATOM     14  C   UNL     1       9.466  11.651  19.246  0.00  0.00    +0.000 A 
ATOM     15  C   UNL     1       8.750  11.820  18.057  0.00  0.00    +0.000 A 
ATOM     16  C   UNL     1       8.146  10.718  17.433  0.00  0.00    +0.000 A 
ATOM     17  O   UNL     1       8.578  13.048  17.465  0.00  0.00    +0.000 OA
ATOM     18  C   UNL     1       9.481  14.025  18.003  0.00  0.00    +0.000 C 
ATOM     19  C   UNL     1       9.545  13.944  19.519  0.00  0.00    +0.000 C 
ATOM     20  O   UNL     1      10.057  12.676  19.935  0.00  0.00    +0.000 OA
ENDBRANCH   9  11
ENDBRANCH   1   8
BRANCH   5  21
ATOM     21  S   UNL     1       3.904   3.366  18.435  0.00  0.00    +0.000 S 
ATOM     22  O   UNL     1       3.749   2.116  17.729  0.00  0.00    +0.000 OA
ATOM     23  O   UNL     1       4.389   3.409  19.799  0.00  0.00    +0.000 OA
BRANCH  21  24
ATOM     24  N   UNL     1       2.413   4.185  18.380  0.00  0.00    +0.000 NA
ATOM     25  C   UNL     1       2.439   5.681  18.398  0.00  0.00    +0.000 C 
ATOM     26  C   UNL     1       2.470   6.234  19.831  0.00  0.00    +0.000 C 
ATOM     27  O   UNL     1       1.399   5.711  20.631  0.00  0.00    +0.000 OA
ATOM     28  C   UNL     1       1.428   4.277  20.677  0.00  0.00    +0.000 C 
ATOM     29  C   UNL     1       1.327   3.677  19.273  0.00  0.00    +0.000 C 
ENDBRANCH  21  24
ENDBRANCH   5  21
TORSDOF 4
ENDMDL
MODEL 5
REMARK VINA RESULT:      -8.6      2.231      3.066
REMARK  Name = 
REMARK  4 active torsions:
REMARK  status: ('A' for Active; 'I' for Inactive)
REMARK    1  A    between atoms: C_2  and  C_14
REMARK    2  A    between atoms: N_3  and  C_4
REMARK    3  A    between atoms: C_18  and  S_19
REMARK    4  A    between atoms: S_19  and  N_22
REMARK                            x       y       z     vdW  Elec       q    Type
REMARK                         _______ _______ _______ _____ _____    ______ ____
ROOT
ATOM      1  C   UNL     1       7.926   7.592  18.259  0.00  0.00    +0.000 A 
ATOM      2  C   UNL     1       8.485   6.698  19.179  0.00  0.00    +0.000 A 
ATOM      3  C   UNL     1       8.096   5.356  19.146  0.00  0.00    +0.000 A 
ATOM      4  C   UNL     1       7.166   4.910  18.198  0.00  0.00    +0.000 A 
ATOM      5  C   UNL     1       6.616   5.813  17.278  0.00  0.00    +0.000 A 
ATOM      6  C   UNL     1       6.989   7.151  17.315  0.00  0.00    +0.000 A 
ENDROOT
BRANCH   1   8
ATOM      7  O   UNL     1       7.626   9.719  17.438  0.00  0.00    +0.000 OA
ATOM      8  C   UNL     1       8.231   9.045  18.268  0.00  0.00    +0.000 C 
ATOM      9  N   UNL     1       9.210   9.477  19.142  0.00  0.00    +0.000 N 
ATOM     10  H   UNL     1       9.710   8.777  19.681  0.00  0.00    +0.000 HD
BRANCH   9  11
ATOM     11  C   UNL     1       9.734  10.797  19.184  0.00  0.00    +0.000 A 
ATOM     12  C   UNL     1       9.513  11.659  20.264  0.00  0.00    +0.000 A 
ATOM     13  C   UNL     1       9.975  12.975  20.248  0.00  0.00    +0.000 A 
ATOM     14  C   UNL     1      10.674  13.448  19.147  0.00  0.00    +0.000 A 
ATOM     15  C   UNL     1      10.947  12.591  18.077  0.00  0.00    +0.000 A 
ATOM     16  C   UNL     1      10.479  11.269  18.093  0.00  0.00    +0.000 A 
ATOM     17  O   UNL     1      11.648  12.995  16.966  0.00  0.00    +0.000 OA
ATOM     18  C   UNL     1      12.331  14.236  17.195  0.00  0.00    +0.000 C 
ATOM     19  C   UNL     1      11.436  15.239  17.902  0.00  0.00    +0.000 C 
ATOM     20  O   UNL     1      11.065  14.760  19.196  0.00  0.00    +0.000 OA
ENDBRANCH   9  11
ENDBRANCH   1   8
BRANCH   5  21
ATOM     21  S   UNL     1       5.517   5.184  16.027  0.00  0.00    +0.000 S 
ATOM     22  O   UNL     1       5.412   6.238  15.045  0.00  0.00    +0.000 OA
ATOM     23  O   UNL     1       5.983   3.861  15.668  0.00  0.00    +0.000 OA
BRANCH  21  24
ATOM     24  N   UNL     1       4.001   5.022  16.784  0.00  0.00    +0.000 NA
ATOM     25  C   UNL     1       3.655   5.997  17.865  0.00  0.00    +0.000 C 
ATOM     26  C   UNL     1       4.173   5.537  19.235  0.00  0.00    +0.000 C 
ATOM     27  O   UNL     1       3.733   4.209  19.557  0.00  0.00    +0.000 OA
ATOM     28  C   UNL     1       4.139   3.264  18.557  0.00  0.00    +0.000 C 
ATOM     29  C   UNL     1       3.586   3.642  17.182  0.00  0.00    +0.000 C 
ENDBRANCH  21  24
ENDBRANCH   5  21
TORSDOF 4
ENDMDL
MODEL 6
REMARK VINA RESULT:      -8.6      4.880      7.800
REMARK  Name = 
REMARK  4 active torsions:
REMARK  status: ('A' for Active; 'I' for Inactive)
REMARK    1  A    between atoms: C_2  and  C_14
REMARK    2  A    between atoms: N_3  and  C_4
REMARK    3  A    between atoms: C_18  and  S_19
REMARK    4  A    between atoms: S_19  and  N_22
REMARK                            x       y       z     vdW  Elec       q    Type
REMARK                         _______ _______ _______ _____ _____    ______ ____
ROOT
ATOM      1  C   UNL     1       1.987   6.022  20.177  0.00  0.00    +0.000 A 
ATOM      2  C   UNL     1       1.377   4.976  20.877  0.00  0.00    +0.000 A 
ATOM      3  C   UNL     1       1.827   3.668  20.675  0.00  0.00    +0.000 A 
ATOM      4  C   UNL     1       2.883   3.410  19.791  0.00  0.00    +0.000 A 
ATOM      5  C   UNL     1       3.491   4.466  19.099  0.00  0.00    +0.000 A 
ATOM      6  C   UNL     1       3.037   5.767  19.285  0.00  0.00    +0.000 A 
ENDROOT
BRANCH   1   8
ATOM      7  O   UNL     1       2.164   8.246  19.620  0.00  0.00    +0.000 OA
ATOM      8  C   UNL     1       1.526   7.429  20.280  0.00  0.00    +0.000 C 
ATOM      9  N   UNL     1       0.492   7.690  21.158  0.00  0.00    +0.000 N 
ATOM     10  H   UNL     1       0.146   6.925  21.728  0.00  0.00    +0.000 HD
BRANCH   9  11
ATOM     11  C   UNL     1       0.022   8.989  21.494  0.00  0.00    +0.000 A 
ATOM     12  C   UNL     1      -0.204   9.387  22.816  0.00  0.00    +0.000 A 
ATOM     13  C   UNL     1      -0.737  10.642  23.114  0.00  0.00    +0.000 A 
ATOM     14  C   UNL     1      -1.046  11.522  22.089  0.00  0.00    +0.000 A 
ATOM     15  C   UNL     1      -0.784  11.164  20.763  0.00  0.00    +0.000 A 
ATOM     16  C   UNL     1      -0.252   9.901  20.464  0.00  0.00    +0.000 A 
ATOM     17  O   UNL     1      -1.053  11.997  19.704  0.00  0.00    +0.000 OA
ATOM     18  C   UNL     1      -1.290  13.344  20.139  0.00  0.00    +0.000 C 
ATOM     19  C   UNL     1      -2.204  13.382  21.353  0.00  0.00    +0.000 C 
ATOM     20  O   UNL     1      -1.594  12.720  22.463  0.00  0.00    +0.000 OA
ENDBRANCH   9  11
ENDBRANCH   1   8
BRANCH   5  21
ATOM     21  S   UNL     1       4.893   4.106  18.063  0.00  0.00    +0.000 S 
ATOM     22  O   UNL     1       6.033   4.107  18.950  0.00  0.00    +0.000 OA
ATOM     23  O   UNL     1       4.555   2.945  17.268  0.00  0.00    +0.000 OA
BRANCH  21  24
ATOM     24  N   UNL     1       5.046   5.437  17.014  0.00  0.00    +0.000 NA
ATOM     25  C   UNL     1       5.344   5.159  15.575  0.00  0.00    +0.000 C 
ATOM     26  C   UNL     1       6.853   5.029  15.319  0.00  0.00    +0.000 C 
ATOM     27  O   UNL     1       7.579   6.170  15.801  0.00  0.00    +0.000 OA
ATOM     28  C   UNL     1       7.354   6.384  17.201  0.00  0.00    +0.000 C 
ATOM     29  C   UNL     1       5.866   6.591  17.496  0.00  0.00    +0.000 C 
ENDBRANCH  21  24
ENDBRANCH   5  21
TORSDOF 4
ENDMDL
MODEL 7
REMARK VINA RESULT:      -8.5      5.096      7.819
REMARK  Name = 
REMARK  4 active torsions:
REMARK  status: ('A' for Active; 'I' for Inactive)
REMARK    1  A    between atoms: C_2  and  C_14
REMARK    2  A    between atoms: N_3  and  C_4
REMARK    3  A    between atoms: C_18  and  S_19
REMARK    4  A    between atoms: S_19  and  N_22
REMARK                            x       y       z     vdW  Elec       q    Type
REMARK                         _______ _______ _______ _____ _____    ______ ____
ROOT
ATOM      1  C   UNL     1       2.078   6.297  20.126  0.00  0.00    +0.000 A 
ATOM      2  C   UNL     1       1.551   5.344  21.004  0.00  0.00    +0.000 A 
ATOM      3  C   UNL     1       2.023   4.030  20.946  0.00  0.00    +0.000 A 
ATOM      4  C   UNL     1       3.019   3.674  20.027  0.00  0.00    +0.000 A 
ATOM      5  C   UNL     1       3.544   4.637  19.156  0.00  0.00    +0.000 A 
ATOM      6  C   UNL     1       3.068   5.942  19.199  0.00  0.00    +0.000 A 
ENDROOT
BRANCH   1   8
ATOM      7  O   UNL     1       1.899   8.332  19.069  0.00  0.00    +0.000 OA
ATOM      8  C   UNL     1       1.586   7.696  20.073  0.00  0.00    +0.000 C 
ATOM      9  N   UNL     1       0.903   8.165  21.179  0.00  0.00    +0.000 N 
ATOM     10  H   UNL     1       0.830   7.556  21.987  0.00  0.00    +0.000 HD
BRANCH   9  11
ATOM     11  C   UNL     1       0.490   9.512  21.366  0.00  0.00    +0.000 A 
ATOM     12  C   UNL     1       1.110  10.585  20.715  0.00  0.00    +0.000 A 
ATOM     13  C   UNL     1       0.734  11.904  20.973  0.00  0.00    +0.000 A 
ATOM     14  C   UNL     1      -0.276  12.168  21.885  0.00  0.00    +0.000 A 
ATOM     15  C   UNL     1      -0.941  11.111  22.511  0.00  0.00    +0.000 A 
ATOM     16  C   UNL     1      -0.560   9.785  22.254  0.00  0.00    +0.000 A 
ATOM     17  O   UNL     1      -1.960  11.306  23.412  0.00  0.00    +0.000 OA
ATOM     18  C   UNL     1      -2.463  12.649  23.357  0.00  0.00    +0.000 C 
ATOM     19  C   UNL     1      -1.332  13.662  23.298  0.00  0.00    +0.000 C 
ATOM     20  O   UNL     1      -0.563  13.489  22.106  0.00  0.00    +0.000 OA
ENDBRANCH   9  11
ENDBRANCH   1   8
BRANCH   5  21
ATOM     21  S   UNL     1       4.878   4.166  18.075  0.00  0.00    +0.000 S 
ATOM     22  O   UNL     1       6.056   4.142  18.910  0.00  0.00    +0.000 OA
ATOM     23  O   UNL     1       4.446   2.994  17.343  0.00  0.00    +0.000 OA
BRANCH  21  24
ATOM     24  N   UNL     1       5.049   5.446  16.967  0.00  0.00    +0.000 NA
ATOM     25  C   UNL     1       5.371   5.101  15.547  0.00  0.00    +0.000 C 
ATOM     26  C   UNL     1       6.884   4.960  15.323  0.00  0.00    +0.000 C 
ATOM     27  O   UNL     1       7.602   6.123  15.763  0.00  0.00    +0.000 OA
ATOM     28  C   UNL     1       7.353   6.402  17.148  0.00  0.00    +0.000 C 
ATOM     29  C   UNL     1       5.861   6.622  17.408  0.00  0.00    +0.000 C 
ENDBRANCH  21  24
ENDBRANCH   5  21
TORSDOF 4
ENDMDL
MODEL 8
REMARK VINA RESULT:      -8.5      6.774      8.588
REMARK  Name = 
REMARK  4 active torsions:
REMARK  status: ('A' for Active; 'I' for Inactive)
REMARK    1  A    between atoms: C_2  and  C_14
REMARK    2  A    between atoms: N_3  and  C_4
REMARK    3  A    between atoms: C_18  and  S_19
REMARK    4  A    between atoms: S_19  and  N_22
REMARK                            x       y       z     vdW  Elec       q    Type
REMARK                         _______ _______ _______ _____ _____    ______ ____
ROOT
ATOM      1  C   UNL     1       1.230   9.206  19.982  0.00  0.00    +0.000 A 
ATOM      2  C   UNL     1       1.365   9.669  18.670  0.00  0.00    +0.000 A 
ATOM      3  C   UNL     1       1.975   8.848  17.718  0.00  0.00    +0.000 A 
ATOM      4  C   UNL     1       2.437   7.573  18.071  0.00  0.00    +0.000 A 
ATOM      5  C   UNL     1       2.291   7.116  19.388  0.00  0.00    +0.000 A 
ATOM      6  C   UNL     1       1.699   7.934  20.342  0.00  0.00    +0.000 A 
ENDROOT
BRANCH   1   8
ATOM      7  O   UNL     1       0.582   9.495  22.170  0.00  0.00    +0.000 OA
ATOM      8  C   UNL     1       0.658  10.038  21.071  0.00  0.00    +0.000 C 
ATOM      9  N   UNL     1       0.198  11.294  20.726  0.00  0.00    +0.000 N 
ATOM     10  H   UNL     1       0.217  11.556  19.746  0.00  0.00    +0.000 HD
BRANCH   9  11
ATOM     11  C   UNL     1      -0.509  12.166  21.598  0.00  0.00    +0.000 A 
ATOM     12  C   UNL     1      -0.036  13.439  21.934  0.00  0.00    +0.000 A 
ATOM     13  C   UNL     1      -0.712  14.245  22.850  0.00  0.00    +0.000 A 
ATOM     14  C   UNL     1      -1.880  13.789  23.441  0.00  0.00    +0.000 A 
ATOM     15  C   UNL     1      -2.397  12.540  23.085  0.00  0.00    +0.000 A 
ATOM     16  C   UNL     1      -1.715  11.729  22.166  0.00  0.00    +0.000 A 
ATOM     17  O   UNL     1      -3.558  12.039  23.622  0.00  0.00    +0.000 OA
ATOM     18  C   UNL     1      -4.315  13.059  24.290  0.00  0.00    +0.000 C 
ATOM     19  C   UNL     1      -3.424  13.934  25.155  0.00  0.00    +0.000 C 
ATOM     20  O   UNL     1      -2.466  14.627  24.353  0.00  0.00    +0.000 OA
ENDBRANCH   9  11
ENDBRANCH   1   8
BRANCH   5  21
ATOM     21  S   UNL     1       2.799   5.453  19.769  0.00  0.00    +0.000 S 
ATOM     22  O   UNL     1       4.239   5.460  19.667  0.00  0.00    +0.000 OA
ATOM     23  O   UNL     1       2.130   5.068  20.994  0.00  0.00    +0.000 OA
BRANCH  21  24
ATOM     24  N   UNL     1       2.190   4.485  18.509  0.00  0.00    +0.000 NA
ATOM     25  C   UNL     1       1.223   3.402  18.868  0.00  0.00    +0.000 C 
ATOM     26  C   UNL     1       1.941   2.102  19.261  0.00  0.00    +0.000 C 
ATOM     27  O   UNL     1       2.866   1.674  18.251  0.00  0.00    +0.000 OA
ATOM     28  C   UNL     1       3.842   2.686  17.969  0.00  0.00    +0.000 C 
ATOM     29  C   UNL     1       3.176   3.982  17.503  0.00  0.00    +0.000 C 
ENDBRANCH  21  24
ENDBRANCH   5  21
TORSDOF 4
ENDMDL
MODEL 9
REMARK VINA RESULT:      -8.5      5.037      7.311
REMARK  Name = 
REMARK  4 active torsions:
REMARK  status: ('A' for Active; 'I' for Inactive)
REMARK    1  A    between atoms: C_2  and  C_14
REMARK    2  A    between atoms: N_3  and  C_4
REMARK    3  A    between atoms: C_18  and  S_19
REMARK    4  A    between atoms: S_19  and  N_22
REMARK                            x       y       z     vdW  Elec       q    Type
REMARK                         _______ _______ _______ _____ _____    ______ ____
ROOT
ATOM      1  C   UNL     1       2.014   6.364  20.129  0.00  0.00    +0.000 A 
ATOM      2  C   UNL     1       1.250   5.362  20.737  0.00  0.00    +0.000 A 
ATOM      3  C   UNL     1       1.554   4.023  20.475  0.00  0.00    +0.000 A 
ATOM      4  C   UNL     1       2.615   3.689  19.624  0.00  0.00    +0.000 A 
ATOM      5  C   UNL     1       3.377   4.701  19.025  0.00  0.00    +0.000 A 
ATOM      6  C   UNL     1       3.071   6.034  19.270  0.00  0.00    +0.000 A 
ENDROOT
BRANCH   1   8
ATOM      7  O   UNL     1       1.606   8.198  21.457  0.00  0.00    +0.000 OA
ATOM      8  C   UNL     1       1.717   7.809  20.296  0.00  0.00    +0.000 C 
ATOM      9  N   UNL     1       1.517   8.548  19.146  0.00  0.00    +0.000 N 
ATOM     10  H   UNL     1       1.520   8.056  18.258  0.00  0.00    +0.000 HD
BRANCH   9  11
ATOM     11  C   UNL     1       1.082   9.900  19.116  0.00  0.00    +0.000 A 
ATOM     12  C   UNL     1       1.833  10.918  18.518  0.00  0.00    +0.000 A 
ATOM     13  C   UNL     1       1.419  12.250  18.568  0.00  0.00    +0.000 A 
ATOM     14  C   UNL     1       0.238  12.582  19.214  0.00  0.00    +0.000 A 
ATOM     15  C   UNL     1      -0.553  11.576  19.776  0.00  0.00    +0.000 A 
ATOM     16  C   UNL     1      -0.134  10.238  19.729  0.00  0.00    +0.000 A 
ATOM     17  O   UNL     1      -1.740  11.838  20.416  0.00  0.00    +0.000 OA
ATOM     18  C   UNL     1      -2.212  13.164  20.132  0.00  0.00    +0.000 C 
ATOM     19  C   UNL     1      -1.088  14.182  20.224  0.00  0.00    +0.000 C 
ATOM     20  O   UNL     1      -0.082  13.913  19.246  0.00  0.00    +0.000 OA
ENDBRANCH   9  11
ENDBRANCH   1   8
BRANCH   5  21
ATOM     21  S   UNL     1       4.779   4.232  18.033  0.00  0.00    +0.000 S 
ATOM     22  O   UNL     1       5.903   4.220  18.939  0.00  0.00    +0.000 OA
ATOM     23  O   UNL     1       4.401   3.054  17.282  0.00  0.00    +0.000 OA
BRANCH  21  24
ATOM     24  N   UNL     1       5.011   5.508  16.930  0.00  0.00    +0.000 NA
ATOM     25  C   UNL     1       5.351   5.154  15.517  0.00  0.00    +0.000 C 
ATOM     26  C   UNL     1       6.863   4.967  15.323  0.00  0.00    +0.000 C 
ATOM     27  O   UNL     1       7.607   6.107  15.779  0.00  0.00    +0.000 OA
ATOM     28  C   UNL     1       7.339   6.392  17.159  0.00  0.00    +0.000 C 
ATOM     29  C   UNL     1       5.850   6.657  17.390  0.00  0.00    +0.000 C 
ENDBRANCH  21  24
ENDBRANCH   5  21
TORSDOF 4
ENDMDL
