MODEL 1
REMARK VINA RESULT:      -7.6      0.000      0.000
REMARK  Name = 
REMARK  6 active torsions:
REMARK  status: ('A' for Active; 'I' for Inactive)
REMARK    1  A    between atoms: C_1  and  N_2
REMARK    2  A    between atoms: C_4  and  C_5
REMARK    3  A    between atoms: C_5  and  C_6
REMARK    4  A    between atoms: C_5  and  C_10
REMARK    5  A    between atoms: C_6  and  C_7
REMARK    6  A    between atoms: C_7  and  O_9
REMARK                            x       y       z     vdW  Elec       q    Type
REMARK                         _______ _______ _______ _____ _____    ______ ____
ROOT
ATOM      1  C   UNL     1       2.337   7.849  18.238  0.00  0.00    +0.000 C 
ATOM      2  N   UNL     1       3.249   6.809  17.813  0.00  0.00    +0.000 N 
ATOM      3  C   UNL     1       4.520   7.030  17.360  0.00  0.00    +0.000 A 
ATOM      4  C   UNL     1       5.117   5.809  17.090  0.00  0.00    +0.000 A 
ATOM      5  C   UNL     1       4.121   4.806  17.376  0.00  0.00    +0.000 A 
ATOM      6  C   UNL     1       4.096   3.394  17.307  0.00  0.00    +0.000 A 
ATOM      7  C   UNL     1       2.942   2.697  17.691  0.00  0.00    +0.000 A 
ATOM      8  C   UNL     1       1.813   3.380  18.123  0.00  0.00    +0.000 A 
ATOM      9  C   UNL     1       1.805   4.775  18.194  0.00  0.00    +0.000 A 
ATOM     10  C   UNL     1       2.969   5.464  17.821  0.00  0.00    +0.000 A 
ENDROOT
BRANCH   4  11
ATOM     11  C   UNL     1       6.528   5.575  16.562  0.00  0.00    +0.000 C 
BRANCH  11  12
ATOM     12  C   UNL     1       6.586   4.828  15.214  0.00  0.00    +0.000 C 
ATOM     13  F   UNL     1       6.633   3.484  15.341  0.00  0.00    +0.000 F 
ATOM     14  F   UNL     1       5.497   5.109  14.461  0.00  0.00    +0.000 F 
ATOM     15  F   UNL     1       7.680   5.176  14.492  0.00  0.00    +0.000 F 
ENDBRANCH  11  12
BRANCH  11  16
ATOM     16  C   UNL     1       7.413   4.862  17.609  0.00  0.00    +0.000 C 
BRANCH  16  17
ATOM     17  C   UNL     1       7.538   5.640  18.889  0.00  0.00    +0.000 C 
ATOM     18  O   UNL     1       7.118   5.245  19.967  0.00  0.00    +0.000 OA
BRANCH  17  19
ATOM     19  O   UNL     1       8.203   6.806  18.751  0.00  0.00    +0.000 OA
ATOM     20  H   UNL     1       7.654   7.609  18.841  0.00  0.00    +0.000 HD
ENDBRANCH  17  19
ENDBRANCH  16  17
ENDBRANCH  11  16
ENDBRANCH   4  11
TORSDOF 5
ENDMDL
MODEL 2
REMARK VINA RESULT:      -7.4      2.342      2.921
REMARK  Name = 
REMARK  6 active torsions:
REMARK  status: ('A' for Active; 'I' for Inactive)
REMARK    1  A    between atoms: C_1  and  N_2
REMARK    2  A    between atoms: C_4  and  C_5
REMARK    3  A    between atoms: C_5  and  C_6
REMARK    4  A    between atoms: C_5  and  C_10
REMARK    5  A    between atoms: C_6  and  C_7
REMARK    6  A    between atoms: C_7  and  O_9
REMARK                            x       y       z     vdW  Elec       q    Type
REMARK                         _______ _______ _______ _____ _____    ______ ____
ROOT
ATOM      1  C   UNL     1       2.161   7.252  19.165  0.00  0.00    +0.000 C 
ATOM      2  N   UNL     1       2.903   6.174  18.547  0.00  0.00    +0.000 N 
ATOM      3  C   UNL     1       4.102   6.324  17.908  0.00  0.00    +0.000 A 
ATOM      4  C   UNL     1       4.542   5.080  17.485  0.00  0.00    +0.000 A 
ATOM      5  C   UNL     1       3.520   4.141  17.875  0.00  0.00    +0.000 A 
ATOM      6  C   UNL     1       3.362   2.743  17.741  0.00  0.00    +0.000 A 
ATOM      7  C   UNL     1       2.227   2.114  18.270  0.00  0.00    +0.000 A 
ATOM      8  C   UNL     1       1.242   2.853  18.911  0.00  0.00    +0.000 A 
ATOM      9  C   UNL     1       1.365   4.237  19.053  0.00  0.00    +0.000 A 
ATOM     10  C   UNL     1       2.512   4.857  18.533  0.00  0.00    +0.000 A 
ENDROOT
BRANCH   4  11
ATOM     11  C   UNL     1       5.828   4.772  16.726  0.00  0.00    +0.000 C 
BRANCH  11  12
ATOM     12  C   UNL     1       7.118   5.072  17.517  0.00  0.00    +0.000 C 
ATOM     13  F   UNL     1       7.659   6.277  17.235  0.00  0.00    +0.000 F 
ATOM     14  F   UNL     1       6.881   5.055  18.849  0.00  0.00    +0.000 F 
ATOM     15  F   UNL     1       8.087   4.157  17.265  0.00  0.00    +0.000 F 
ENDBRANCH  11  12
BRANCH  11  16
ATOM     16  C   UNL     1       5.861   5.485  15.356  0.00  0.00    +0.000 C 
BRANCH  16  17
ATOM     17  C   UNL     1       6.802   4.830  14.384  0.00  0.00    +0.000 C 
ATOM     18  O   UNL     1       7.802   5.372  13.937  0.00  0.00    +0.000 OA
BRANCH  17  19
ATOM     19  O   UNL     1       6.465   3.559  14.078  0.00  0.00    +0.000 OA
ATOM     20  H   UNL     1       6.292   2.981  14.846  0.00  0.00    +0.000 HD
ENDBRANCH  17  19
ENDBRANCH  16  17
ENDBRANCH  11  16
ENDBRANCH   4  11
TORSDOF 5
ENDMDL
MODEL 3
REMARK VINA RESULT:      -7.4      0.323      1.144
REMARK  Name = 
REMARK  6 active torsions:
REMARK  status: ('A' for Active; 'I' for Inactive)
REMARK    1  A    between atoms: C_1  and  N_2
REMARK    2  A    between atoms: C_4  and  C_5
REMARK    3  A    between atoms: C_5  and  C_6
REMARK    4  A    between atoms: C_5  and  C_10
REMARK    5  A    between atoms: C_6  and  C_7
REMARK    6  A    between atoms: C_7  and  O_9
REMARK                            x       y       z     vdW  Elec       q    Type
REMARK                         _______ _______ _______ _____ _____    ______ ____
ROOT
ATOM      1  C   UNL     1       2.181   7.785  18.622  0.00  0.00    +0.000 C 
ATOM      2  N   UNL     1       3.095   6.785  18.115  0.00  0.00    +0.000 N 
ATOM      3  C   UNL     1       4.369   7.041  17.690  0.00  0.00    +0.000 A 
ATOM      4  C   UNL     1       4.967   5.847  17.320  0.00  0.00    +0.000 A 
ATOM      5  C   UNL     1       3.968   4.825  17.513  0.00  0.00    +0.000 A 
ATOM      6  C   UNL     1       3.942   3.424  17.323  0.00  0.00    +0.000 A 
ATOM      7  C   UNL     1       2.785   2.699  17.639  0.00  0.00    +0.000 A 
ATOM      8  C   UNL     1       1.654   3.344  18.121  0.00  0.00    +0.000 A 
ATOM      9  C   UNL     1       1.646   4.727  18.312  0.00  0.00    +0.000 A 
ATOM     10  C   UNL     1       2.813   5.444  18.006  0.00  0.00    +0.000 A 
ENDROOT
BRANCH   4  11
ATOM     11  C   UNL     1       6.381   5.658  16.783  0.00  0.00    +0.000 C 
BRANCH  11  12
ATOM     12  C   UNL     1       6.453   4.902  15.441  0.00  0.00    +0.000 C 
ATOM     13  F   UNL     1       5.340   5.027  14.687  0.00  0.00    +0.000 F 
ATOM     14  F   UNL     1       7.484   5.352  14.690  0.00  0.00    +0.000 F 
ATOM     15  F   UNL     1       6.635   3.570  15.623  0.00  0.00    +0.000 F 
ENDBRANCH  11  12
BRANCH  11  16
ATOM     16  C   UNL     1       7.298   4.985  17.829  0.00  0.00    +0.000 C 
BRANCH  16  17
ATOM     17  C   UNL     1       7.808   5.951  18.860  0.00  0.00    +0.000 C 
ATOM     18  O   UNL     1       8.198   7.080  18.599  0.00  0.00    +0.000 OA
BRANCH  17  19
ATOM     19  O   UNL     1       7.757   5.474  20.122  0.00  0.00    +0.000 OA
ATOM     20  H   UNL     1       7.559   6.140  20.808  0.00  0.00    +0.000 HD
ENDBRANCH  17  19
ENDBRANCH  16  17
ENDBRANCH  11  16
ENDBRANCH   4  11
TORSDOF 5
ENDMDL
MODEL 4
REMARK VINA RESULT:      -7.3      2.361      2.855
REMARK  Name = 
REMARK  6 active torsions:
REMARK  status: ('A' for Active; 'I' for Inactive)
REMARK    1  A    between atoms: C_1  and  N_2
REMARK    2  A    between atoms: C_4  and  C_5
REMARK    3  A    between atoms: C_5  and  C_6
REMARK    4  A    between atoms: C_5  and  C_10
REMARK    5  A    between atoms: C_6  and  C_7
REMARK    6  A    between atoms: C_7  and  O_9
REMARK                            x       y       z     vdW  Elec       q    Type
REMARK                         _______ _______ _______ _____ _____    ______ ____
ROOT
ATOM      1  C   UNL     1       2.229   7.054  19.561  0.00  0.00    +0.000 C 
ATOM      2  N   UNL     1       2.941   6.022  18.840  0.00  0.00    +0.000 N 
ATOM      3  C   UNL     1       4.140   6.202  18.208  0.00  0.00    +0.000 A 
ATOM      4  C   UNL     1       4.548   4.994  17.667  0.00  0.00    +0.000 A 
ATOM      5  C   UNL     1       3.505   4.047  17.976  0.00  0.00    +0.000 A 
ATOM      6  C   UNL     1       3.313   2.671  17.712  0.00  0.00    +0.000 A 
ATOM      7  C   UNL     1       2.165   2.023  18.187  0.00  0.00    +0.000 A 
ATOM      8  C   UNL     1       1.202   2.722  18.902  0.00  0.00    +0.000 A 
ATOM      9  C   UNL     1       1.359   4.082  19.173  0.00  0.00    +0.000 A 
ATOM     10  C   UNL     1       2.518   4.721  18.704  0.00  0.00    +0.000 A 
ENDROOT
BRANCH   4  11
ATOM     11  C   UNL     1       5.822   4.728  16.874  0.00  0.00    +0.000 C 
BRANCH  11  12
ATOM     12  C   UNL     1       7.123   5.039  17.642  0.00  0.00    +0.000 C 
ATOM     13  F   UNL     1       8.130   4.179  17.373  0.00  0.00    +0.000 F 
ATOM     14  F   UNL     1       7.578   6.276  17.337  0.00  0.00    +0.000 F 
ATOM     15  F   UNL     1       6.939   4.993  18.984  0.00  0.00    +0.000 F 
ENDBRANCH  11  12
BRANCH  11  16
ATOM     16  C   UNL     1       5.809   5.469  15.518  0.00  0.00    +0.000 C 
BRANCH  16  17
ATOM     17  C   UNL     1       6.673   4.801  14.485  0.00  0.00    +0.000 C 
ATOM     18  O   UNL     1       6.345   3.794  13.874  0.00  0.00    +0.000 OA
BRANCH  17  19
ATOM     19  O   UNL     1       7.837   5.444  14.255  0.00  0.00    +0.000 OA
ATOM     20  H   UNL     1       7.914   5.859  13.374  0.00  0.00    +0.000 HD
ENDBRANCH  17  19
ENDBRANCH  16  17
ENDBRANCH  11  16
ENDBRANCH   4  11
TORSDOF 5
ENDMDL
MODEL 5
REMARK VINA RESULT:      -7.1      3.187      4.967
REMARK  Name = 
REMARK  6 active torsions:
REMARK  status: ('A' for Active; 'I' for Inactive)
REMARK    1  A    between atoms: C_1  and  N_2
REMARK    2  A    between atoms: C_4  and  C_5
REMARK    3  A    between atoms: C_5  and  C_6
REMARK    4  A    between atoms: C_5  and  C_10
REMARK    5  A    between atoms: C_6  and  C_7
REMARK    6  A    between atoms: C_7  and  O_9
REMARK                            x       y       z     vdW  Elec       q    Type
REMARK                         _______ _______ _______ _____ _____    ______ ____
ROOT
ATOM      1  C   UNL     1       7.633   6.004  18.963  0.00  0.00    +0.000 C 
ATOM      2  N   UNL     1       6.536   5.314  18.319  0.00  0.00    +0.000 N 
ATOM      3  C   UNL     1       5.406   4.886  18.959  0.00  0.00    +0.000 A 
ATOM      4  C   UNL     1       4.555   4.313  18.028  0.00  0.00    +0.000 A 
ATOM      5  C   UNL     1       5.243   4.382  16.763  0.00  0.00    +0.000 A 
ATOM      6  C   UNL     1       4.926   3.979  15.445  0.00  0.00    +0.000 A 
ATOM      7  C   UNL     1       5.833   4.222  14.404  0.00  0.00    +0.000 A 
ATOM      8  C   UNL     1       7.050   4.840  14.655  0.00  0.00    +0.000 A 
ATOM      9  C   UNL     1       7.394   5.244  15.946  0.00  0.00    +0.000 A 
ATOM     10  C   UNL     1       6.475   5.009  16.981  0.00  0.00    +0.000 A 
ENDROOT
BRANCH   4  11
ATOM     11  C   UNL     1       3.185   3.700  18.294  0.00  0.00    +0.000 C 
BRANCH  11  12
ATOM     12  C   UNL     1       2.026   4.718  18.306  0.00  0.00    +0.000 C 
ATOM     13  F   UNL     1       2.401   5.971  17.971  0.00  0.00    +0.000 F 
ATOM     14  F   UNL     1       1.059   4.356  17.432  0.00  0.00    +0.000 F 
ATOM     15  F   UNL     1       1.451   4.812  19.531  0.00  0.00    +0.000 F 
ENDBRANCH  11  12
BRANCH  11  16
ATOM     16  C   UNL     1       3.181   2.867  19.596  0.00  0.00    +0.000 C 
BRANCH  16  17
ATOM     17  C   UNL     1       4.233   1.795  19.602  0.00  0.00    +0.000 C 
ATOM     18  O   UNL     1       5.097   1.696  20.462  0.00  0.00    +0.000 OA
BRANCH  17  19
ATOM     19  O   UNL     1       4.114   0.913  18.586  0.00  0.00    +0.000 OA
ATOM     20  H   UNL     1       4.245   1.290  17.695  0.00  0.00    +0.000 HD
ENDBRANCH  17  19
ENDBRANCH  16  17
ENDBRANCH  11  16
ENDBRANCH   4  11
TORSDOF 5
ENDMDL
MODEL 6
REMARK VINA RESULT:      -7.1      2.578      3.018
REMARK  Name = 
REMARK  6 active torsions:
REMARK  status: ('A' for Active; 'I' for Inactive)
REMARK    1  A    between atoms: C_1  and  N_2
REMARK    2  A    between atoms: C_4  and  C_5
REMARK    3  A    between atoms: C_5  and  C_6
REMARK    4  A    between atoms: C_5  and  C_10
REMARK    5  A    between atoms: C_6  and  C_7
REMARK    6  A    between atoms: C_7  and  O_9
REMARK                            x       y       z     vdW  Elec       q    Type
REMARK                         _______ _______ _______ _____ _____    ______ ____
ROOT
ATOM      1  C   UNL     1       2.095   7.885  18.970  0.00  0.00    +0.000 C 
ATOM      2  N   UNL     1       2.948   6.737  18.747  0.00  0.00    +0.000 N 
ATOM      3  C   UNL     1       3.986   6.702  17.858  0.00  0.00    +0.000 A 
ATOM      4  C   UNL     1       4.608   5.467  17.945  0.00  0.00    +0.000 A 
ATOM      5  C   UNL     1       3.869   4.716  18.930  0.00  0.00    +0.000 A 
ATOM      6  C   UNL     1       3.986   3.415  19.470  0.00  0.00    +0.000 A 
ATOM      7  C   UNL     1       3.093   2.987  20.461  0.00  0.00    +0.000 A 
ATOM      8  C   UNL     1       2.078   3.823  20.908  0.00  0.00    +0.000 A 
ATOM      9  C   UNL     1       1.932   5.111  20.390  0.00  0.00    +0.000 A 
ATOM     10  C   UNL     1       2.840   5.536  19.407  0.00  0.00    +0.000 A 
ENDROOT
BRANCH   4  11
ATOM     11  C   UNL     1       5.808   4.986  17.137  0.00  0.00    +0.000 C 
BRANCH  11  12
ATOM     12  C   UNL     1       7.171   5.238  17.814  0.00  0.00    +0.000 C 
ATOM     13  F   UNL     1       7.773   6.378  17.412  0.00  0.00    +0.000 F 
ATOM     14  F   UNL     1       7.033   5.324  19.157  0.00  0.00    +0.000 F 
ATOM     15  F   UNL     1       8.051   4.238  17.560  0.00  0.00    +0.000 F 
ENDBRANCH  11  12
BRANCH  11  16
ATOM     16  C   UNL     1       5.801   5.577  15.709  0.00  0.00    +0.000 C 
BRANCH  16  17
ATOM     17  C   UNL     1       6.629   4.773  14.746  0.00  0.00    +0.000 C 
ATOM     18  O   UNL     1       6.310   3.666  14.336  0.00  0.00    +0.000 OA
BRANCH  17  19
ATOM     19  O   UNL     1       7.746   5.407  14.332  0.00  0.00    +0.000 OA
ATOM     20  H   UNL     1       7.789   6.357  14.552  0.00  0.00    +0.000 HD
ENDBRANCH  17  19
ENDBRANCH  16  17
ENDBRANCH  11  16
ENDBRANCH   4  11
TORSDOF 5
ENDMDL
MODEL 7
REMARK VINA RESULT:      -7.0      3.176      4.959
REMARK  Name = 
REMARK  6 active torsions:
REMARK  status: ('A' for Active; 'I' for Inactive)
REMARK    1  A    between atoms: C_1  and  N_2
REMARK    2  A    between atoms: C_4  and  C_5
REMARK    3  A    between atoms: C_5  and  C_6
REMARK    4  A    between atoms: C_5  and  C_10
REMARK    5  A    between atoms: C_6  and  C_7
REMARK    6  A    between atoms: C_7  and  O_9
REMARK                            x       y       z     vdW  Elec       q    Type
REMARK                         _______ _______ _______ _____ _____    ______ ____
ROOT
ATOM      1  C   UNL     1       2.889   8.210  17.788  0.00  0.00    +0.000 C 
ATOM      2  N   UNL     1       3.336   6.856  18.036  0.00  0.00    +0.000 N 
ATOM      3  C   UNL     1       2.577   5.885  18.627  0.00  0.00    +0.000 A 
ATOM      4  C   UNL     1       3.303   4.705  18.658  0.00  0.00    +0.000 A 
ATOM      5  C   UNL     1       4.585   5.011  18.072  0.00  0.00    +0.000 A 
ATOM      6  C   UNL     1       5.755   4.261  17.814  0.00  0.00    +0.000 A 
ATOM      7  C   UNL     1       6.852   4.871  17.190  0.00  0.00    +0.000 A 
ATOM      8  C   UNL     1       6.810   6.213  16.838  0.00  0.00    +0.000 A 
ATOM      9  C   UNL     1       5.671   6.982  17.086  0.00  0.00    +0.000 A 
ATOM     10  C   UNL     1       4.572   6.360  17.699  0.00  0.00    +0.000 A 
ENDROOT
BRANCH   4  11
ATOM     11  C   UNL     1       2.852   3.366  19.229  0.00  0.00    +0.000 C 
BRANCH  11  12
ATOM     12  C   UNL     1       2.394   2.345  18.167  0.00  0.00    +0.000 C 
ATOM     13  F   UNL     1       2.333   2.854  16.917  0.00  0.00    +0.000 F 
ATOM     14  F   UNL     1       3.240   1.290  18.116  0.00  0.00    +0.000 F 
ATOM     15  F   UNL     1       1.157   1.860  18.435  0.00  0.00    +0.000 F 
ENDBRANCH  11  12
BRANCH  11  16
ATOM     16  C   UNL     1       1.758   3.548  20.304  0.00  0.00    +0.000 C 
BRANCH  16  17
ATOM     17  C   UNL     1       2.037   2.762  21.554  0.00  0.00    +0.000 C 
ATOM     18  O   UNL     1       1.187   2.491  22.390  0.00  0.00    +0.000 OA
BRANCH  17  19
ATOM     19  O   UNL     1       3.315   2.338  21.654  0.00  0.00    +0.000 OA
ATOM     20  H   UNL     1       3.434   1.494  22.130  0.00  0.00    +0.000 HD
ENDBRANCH  17  19
ENDBRANCH  16  17
ENDBRANCH  11  16
ENDBRANCH   4  11
TORSDOF 5
ENDMDL
MODEL 8
REMARK VINA RESULT:      -7.0      3.584      4.888
REMARK  Name = 
REMARK  6 active torsions:
REMARK  status: ('A' for Active; 'I' for Inactive)
REMARK    1  A    between atoms: C_1  and  N_2
REMARK    2  A    between atoms: C_4  and  C_5
REMARK    3  A    between atoms: C_5  and  C_6
REMARK    4  A    between atoms: C_5  and  C_10
REMARK    5  A    between atoms: C_6  and  C_7
REMARK    6  A    between atoms: C_7  and  O_9
REMARK                            x       y       z     vdW  Elec       q    Type
REMARK                         _______ _______ _______ _____ _____    ______ ____
ROOT
ATOM      1  C   UNL     1       3.307   8.007  17.817  0.00  0.00    +0.000 C 
ATOM      2  N   UNL     1       3.480   6.571  17.785  0.00  0.00    +0.000 N 
ATOM      3  C   UNL     1       2.799   5.689  18.578  0.00  0.00    +0.000 A 
ATOM      4  C   UNL     1       3.181   4.400  18.245  0.00  0.00    +0.000 A 
ATOM      5  C   UNL     1       4.173   4.534  17.207  0.00  0.00    +0.000 A 
ATOM      6  C   UNL     1       4.942   3.617  16.454  0.00  0.00    +0.000 A 
ATOM      7  C   UNL     1       5.826   4.087  15.473  0.00  0.00    +0.000 A 
ATOM      8  C   UNL     1       5.971   5.449  15.244  0.00  0.00    +0.000 A 
ATOM      9  C   UNL     1       5.231   6.379  15.977  0.00  0.00    +0.000 A 
ATOM     10  C   UNL     1       4.337   5.899  16.947  0.00  0.00    +0.000 A 
ENDROOT
BRANCH   4  11
ATOM     11  C   UNL     1       2.681   3.104  18.873  0.00  0.00    +0.000 C 
BRANCH  11  12
ATOM     12  C   UNL     1       1.145   2.987  18.948  0.00  0.00    +0.000 C 
ATOM     13  F   UNL     1       0.502   3.659  17.969  0.00  0.00    +0.000 F 
ATOM     14  F   UNL     1       0.756   1.695  18.853  0.00  0.00    +0.000 F 
ATOM     15  F   UNL     1       0.659   3.472  20.117  0.00  0.00    +0.000 F 
ENDBRANCH  11  12
BRANCH  11  16
ATOM     16  C   UNL     1       3.305   2.874  20.268  0.00  0.00    +0.000 C 
BRANCH  16  17
ATOM     17  C   UNL     1       4.444   1.895  20.239  0.00  0.00    +0.000 C 
ATOM     18  O   UNL     1       5.178   1.679  21.193  0.00  0.00    +0.000 OA
BRANCH  17  19
ATOM     19  O   UNL     1       4.559   1.232  19.069  0.00  0.00    +0.000 OA
ATOM     20  H   UNL     1       4.989   1.735  18.350  0.00  0.00    +0.000 HD
ENDBRANCH  17  19
ENDBRANCH  16  17
ENDBRANCH  11  16
ENDBRANCH   4  11
TORSDOF 5
ENDMDL
MODEL 9
REMARK VINA RESULT:      -6.9      3.237      4.954
REMARK  Name = 
REMARK  6 active torsions:
REMARK  status: ('A' for Active; 'I' for Inactive)
REMARK    1  A    between atoms: C_1  and  N_2
REMARK    2  A    between atoms: C_4  and  C_5
REMARK    3  A    between atoms: C_5  and  C_6
REMARK    4  A    between atoms: C_5  and  C_10
REMARK    5  A    between atoms: C_6  and  C_7
REMARK    6  A    between atoms: C_7  and  O_9
REMARK                            x       y       z     vdW  Elec       q    Type
REMARK                         _______ _______ _______ _____ _____    ______ ____
ROOT
ATOM      1  C   UNL     1       2.828   8.265  17.640  0.00  0.00    +0.000 C 
ATOM      2  N   UNL     1       3.283   6.925  17.944  0.00  0.00    +0.000 N 
ATOM      3  C   UNL     1       2.516   5.961  18.538  0.00  0.00    +0.000 A 
ATOM      4  C   UNL     1       3.256   4.794  18.630  0.00  0.00    +0.000 A 
ATOM      5  C   UNL     1       4.554   5.100  18.081  0.00  0.00    +0.000 A 
ATOM      6  C   UNL     1       5.742   4.359  17.887  0.00  0.00    +0.000 A 
ATOM      7  C   UNL     1       6.852   4.966  17.283  0.00  0.00    +0.000 A 
ATOM      8  C   UNL     1       6.805   6.296  16.888  0.00  0.00    +0.000 A 
ATOM      9  C   UNL     1       5.649   7.056  17.073  0.00  0.00    +0.000 A 
ATOM     10  C   UNL     1       4.537   6.437  17.666  0.00  0.00    +0.000 A 
ENDROOT
BRANCH   4  11
ATOM     11  C   UNL     1       2.803   3.466  19.226  0.00  0.00    +0.000 C 
BRANCH  11  12
ATOM     12  C   UNL     1       2.300   2.443  18.187  0.00  0.00    +0.000 C 
ATOM     13  F   UNL     1       2.952   1.261  18.230  0.00  0.00    +0.000 F 
ATOM     14  F   UNL     1       0.989   2.170  18.375  0.00  0.00    +0.000 F 
ATOM     15  F   UNL     1       2.441   2.903  16.919  0.00  0.00    +0.000 F 
ENDBRANCH  11  12
BRANCH  11  16
ATOM     16  C   UNL     1       1.743   3.673  20.331  0.00  0.00    +0.000 C 
BRANCH  16  17
ATOM     17  C   UNL     1       1.981   2.804  21.533  0.00  0.00    +0.000 C 
ATOM     18  O   UNL     1       3.085   2.404  21.874  0.00  0.00    +0.000 OA
BRANCH  17  19
ATOM     19  O   UNL     1       0.861   2.535  22.237  0.00  0.00    +0.000 OA
ATOM     20  H   UNL     1       0.837   1.653  22.655  0.00  0.00    +0.000 HD
ENDBRANCH  17  19
ENDBRANCH  16  17
ENDBRANCH  11  16
ENDBRANCH   4  11
TORSDOF 5
ENDMDL
