MODEL 1
REMARK VINA RESULT:      -7.3      0.000      0.000
REMARK  Name = 
REMARK  2 active torsions:
REMARK  status: ('A' for Active; 'I' for Inactive)
REMARK    1  A    between atoms: N_1  and  C_2
REMARK    2  A    between atoms: C_13  and  O_14
REMARK                            x       y       z     vdW  Elec       q    Type
REMARK                         _______ _______ _______ _____ _____    ______ ____
ROOT
ATOM      1  C   UNL     1       7.647   7.421  17.820  0.00  0.00    +0.000 A 
ATOM      2  C   UNL     1       8.177   6.721  18.906  0.00  0.00    +0.000 A 
ATOM      3  C   UNL     1       7.519   5.596  19.432  0.00  0.00    +0.000 A 
ATOM      4  C   UNL     1       6.297   5.174  18.905  0.00  0.00    +0.000 A 
ATOM      5  C   UNL     1       5.765   5.906  17.856  0.00  0.00    +0.000 A 
ATOM      6  C   UNL     1       6.406   7.032  17.329  0.00  0.00    +0.000 A 
ATOM      7  S   UNL     1       4.249   5.424  17.166  0.00  0.00    +0.000 S 
ATOM      8  O   UNL     1       4.524   4.924  15.834  0.00  0.00    +0.000 OA
ATOM      9  O   UNL     1       3.307   6.503  17.394  0.00  0.00    +0.000 OA
ATOM     10  C   UNL     1       3.704   4.071  18.109  0.00  0.00    +0.000 A 
ATOM     11  C   UNL     1       2.460   3.507  17.802  0.00  0.00    +0.000 A 
ATOM     12  C   UNL     1       2.020   2.427  18.547  0.00  0.00    +0.000 A 
ATOM     13  C   UNL     1       2.801   1.916  19.577  0.00  0.00    +0.000 A 
ATOM     14  C   UNL     1       4.042   2.497  19.869  0.00  0.00    +0.000 A 
ATOM     15  C   UNL     1       4.508   3.590  19.131  0.00  0.00    +0.000 A 
ATOM     16  O   UNL     1       5.738   4.074  19.499  0.00  0.00    +0.000 OA
ENDROOT
BRANCH   1  17
ATOM     17  N   UNL     1       8.222   8.618  17.389  0.00  0.00    +0.000 N 
ATOM     18  H   UNL     1       7.773   9.454  17.747  0.00  0.00    +0.000 HD
ATOM     19  H   UNL     1       9.233   8.654  17.487  0.00  0.00    +0.000 HD
ENDBRANCH   1  17
BRANCH  12  20
ATOM     20  O   UNL     1       0.820   1.834  18.291  0.00  0.00    +0.000 OA
ATOM     21  H   UNL     1       0.925   0.870  18.344  0.00  0.00    +0.000 HD
ENDBRANCH  12  20
TORSDOF 2
ENDMDL
MODEL 2
REMARK VINA RESULT:      -6.9      2.711      5.591
REMARK  Name = 
REMARK  2 active torsions:
REMARK  status: ('A' for Active; 'I' for Inactive)
REMARK    1  A    between atoms: N_1  and  C_2
REMARK    2  A    between atoms: C_13  and  O_14
REMARK                            x       y       z     vdW  Elec       q    Type
REMARK                         _______ _______ _______ _____ _____    ______ ____
ROOT
ATOM      1  C   UNL     1       1.953   2.448  18.878  0.00  0.00    +0.000 A 
ATOM      2  C   UNL     1       2.811   1.972  19.872  0.00  0.00    +0.000 A 
ATOM      3  C   UNL     1       4.038   2.604  20.132  0.00  0.00    +0.000 A 
ATOM      4  C   UNL     1       4.448   3.704  19.374  0.00  0.00    +0.000 A 
ATOM      5  C   UNL     1       3.604   4.136  18.365  0.00  0.00    +0.000 A 
ATOM      6  C   UNL     1       2.384   3.510  18.091  0.00  0.00    +0.000 A 
ATOM      7  S   UNL     1       4.067   5.497  17.395  0.00  0.00    +0.000 S 
ATOM      8  O   UNL     1       3.173   6.587  17.732  0.00  0.00    +0.000 OA
ATOM      9  O   UNL     1       4.211   5.027  16.031  0.00  0.00    +0.000 OA
ATOM     10  C   UNL     1       5.650   5.957  17.941  0.00  0.00    +0.000 A 
ATOM     11  C   UNL     1       6.298   7.010  17.285  0.00  0.00    +0.000 A 
ATOM     12  C   UNL     1       7.558   7.385  17.717  0.00  0.00    +0.000 A 
ATOM     13  C   UNL     1       8.164   6.725  18.779  0.00  0.00    +0.000 A 
ATOM     14  C   UNL     1       7.499   5.671  19.420  0.00  0.00    +0.000 A 
ATOM     15  C   UNL     1       6.225   5.274  19.002  0.00  0.00    +0.000 A 
ATOM     16  O   UNL     1       5.666   4.237  19.705  0.00  0.00    +0.000 OA
ENDROOT
BRANCH   1  17
ATOM     17  N   UNL     1       0.804   1.739  18.523  0.00  0.00    +0.000 N 
ATOM     18  H   UNL     1       0.160   2.250  17.928  0.00  0.00    +0.000 HD
ATOM     19  H   UNL     1       0.983   0.800  18.177  0.00  0.00    +0.000 HD
ENDBRANCH   1  17
BRANCH  12  20
ATOM     20  O   UNL     1       8.235   8.406  17.120  0.00  0.00    +0.000 OA
ATOM     21  H   UNL     1       8.456   8.151  16.210  0.00  0.00    +0.000 HD
ENDBRANCH  12  20
TORSDOF 2
ENDMDL
MODEL 3
REMARK VINA RESULT:      -6.8      3.155      5.820
REMARK  Name = 
REMARK  2 active torsions:
REMARK  status: ('A' for Active; 'I' for Inactive)
REMARK    1  A    between atoms: N_1  and  C_2
REMARK    2  A    between atoms: C_13  and  O_14
REMARK                            x       y       z     vdW  Elec       q    Type
REMARK                         _______ _______ _______ _____ _____    ______ ____
ROOT
ATOM      1  C   UNL     1       1.618   2.812  20.768  0.00  0.00    +0.000 A 
ATOM      2  C   UNL     1       0.908   2.409  19.634  0.00  0.00    +0.000 A 
ATOM      3  C   UNL     1       1.447   2.575  18.347  0.00  0.00    +0.000 A 
ATOM      4  C   UNL     1       2.691   3.184  18.169  0.00  0.00    +0.000 A 
ATOM      5  C   UNL     1       3.361   3.616  19.301  0.00  0.00    +0.000 A 
ATOM      6  C   UNL     1       2.832   3.464  20.587  0.00  0.00    +0.000 A 
ATOM      7  S   UNL     1       4.909   4.380  19.133  0.00  0.00    +0.000 S 
ATOM      8  O   UNL     1       5.897   3.469  19.678  0.00  0.00    +0.000 OA
ATOM      9  O   UNL     1       4.777   5.739  19.622  0.00  0.00    +0.000 OA
ATOM     10  C   UNL     1       5.208   4.484  17.425  0.00  0.00    +0.000 A 
ATOM     11  C   UNL     1       6.379   5.117  16.995  0.00  0.00    +0.000 A 
ATOM     12  C   UNL     1       6.626   5.201  15.636  0.00  0.00    +0.000 A 
ATOM     13  C   UNL     1       5.725   4.668  14.721  0.00  0.00    +0.000 A 
ATOM     14  C   UNL     1       4.556   4.041  15.174  0.00  0.00    +0.000 A 
ATOM     15  C   UNL     1       4.284   3.944  16.543  0.00  0.00    +0.000 A 
ATOM     16  O   UNL     1       3.116   3.305  16.872  0.00  0.00    +0.000 OA
ENDROOT
BRANCH   1  17
ATOM     17  N   UNL     1       1.027   2.779  22.032  0.00  0.00    +0.000 N 
ATOM     18  H   UNL     1       0.508   3.616  22.277  0.00  0.00    +0.000 HD
ATOM     19  H   UNL     1       0.500   1.932  22.225  0.00  0.00    +0.000 HD
ENDBRANCH   1  17
BRANCH  12  20
ATOM     20  O   UNL     1       7.752   5.800  15.157  0.00  0.00    +0.000 OA
ATOM     21  H   UNL     1       7.697   5.854  14.189  0.00  0.00    +0.000 HD
ENDBRANCH  12  20
TORSDOF 2
ENDMDL
MODEL 4
REMARK VINA RESULT:      -6.8      2.296      3.377
REMARK  Name = 
REMARK  2 active torsions:
REMARK  status: ('A' for Active; 'I' for Inactive)
REMARK    1  A    between atoms: N_1  and  C_2
REMARK    2  A    between atoms: C_13  and  O_14
REMARK                            x       y       z     vdW  Elec       q    Type
REMARK                         _______ _______ _______ _____ _____    ______ ____
ROOT
ATOM      1  C   UNL     1       6.527   5.141  15.393  0.00  0.00    +0.000 A 
ATOM      2  C   UNL     1       5.625   4.467  14.566  0.00  0.00    +0.000 A 
ATOM      3  C   UNL     1       4.460   3.884  15.092  0.00  0.00    +0.000 A 
ATOM      4  C   UNL     1       4.196   3.929  16.462  0.00  0.00    +0.000 A 
ATOM      5  C   UNL     1       5.122   4.563  17.272  0.00  0.00    +0.000 A 
ATOM      6  C   UNL     1       6.290   5.141  16.763  0.00  0.00    +0.000 A 
ATOM      7  S   UNL     1       4.842   4.646  18.982  0.00  0.00    +0.000 S 
ATOM      8  O   UNL     1       4.566   6.033  19.303  0.00  0.00    +0.000 OA
ATOM      9  O   UNL     1       5.910   3.913  19.632  0.00  0.00    +0.000 OA
ATOM     10  C   UNL     1       3.374   3.762  19.268  0.00  0.00    +0.000 A 
ATOM     11  C   UNL     1       2.934   3.619  20.589  0.00  0.00    +0.000 A 
ATOM     12  C   UNL     1       1.764   2.919  20.825  0.00  0.00    +0.000 A 
ATOM     13  C   UNL     1       1.046   2.370  19.769  0.00  0.00    +0.000 A 
ATOM     14  C   UNL     1       1.506   2.522  18.455  0.00  0.00    +0.000 A 
ATOM     15  C   UNL     1       2.686   3.226  18.190  0.00  0.00    +0.000 A 
ATOM     16  O   UNL     1       3.038   3.319  16.868  0.00  0.00    +0.000 OA
ENDROOT
BRANCH   1  17
ATOM     17  N   UNL     1       7.751   5.596  14.898  0.00  0.00    +0.000 N 
ATOM     18  H   UNL     1       7.929   6.582  15.056  0.00  0.00    +0.000 HD
ATOM     19  H   UNL     1       8.546   5.017  15.153  0.00  0.00    +0.000 HD
ENDBRANCH   1  17
BRANCH  12  20
ATOM     20  O   UNL     1       1.283   2.750  22.089  0.00  0.00    +0.000 OA
ATOM     21  H   UNL     1       2.021   2.535  22.683  0.00  0.00    +0.000 HD
ENDBRANCH  12  20
TORSDOF 2
ENDMDL
MODEL 5
REMARK VINA RESULT:      -6.7      3.211      5.504
REMARK  Name = 
REMARK  2 active torsions:
REMARK  status: ('A' for Active; 'I' for Inactive)
REMARK    1  A    between atoms: N_1  and  C_2
REMARK    2  A    between atoms: C_13  and  O_14
REMARK                            x       y       z     vdW  Elec       q    Type
REMARK                         _______ _______ _______ _____ _____    ______ ____
ROOT
ATOM      1  C   UNL     1       2.792   4.611  20.078  0.00  0.00    +0.000 A 
ATOM      2  C   UNL     1       2.023   3.851  19.193  0.00  0.00    +0.000 A 
ATOM      3  C   UNL     1       2.481   3.573  17.894  0.00  0.00    +0.000 A 
ATOM      4  C   UNL     1       3.700   4.084  17.443  0.00  0.00    +0.000 A 
ATOM      5  C   UNL     1       4.428   4.870  18.319  0.00  0.00    +0.000 A 
ATOM      6  C   UNL     1       3.980   5.161  19.612  0.00  0.00    +0.000 A 
ATOM      7  S   UNL     1       5.949   5.529  17.807  0.00  0.00    +0.000 S 
ATOM      8  O   UNL     1       6.985   4.853  18.563  0.00  0.00    +0.000 OA
ATOM      9  O   UNL     1       5.820   6.973  17.818  0.00  0.00    +0.000 OA
ATOM     10  C   UNL     1       6.142   5.051  16.149  0.00  0.00    +0.000 A 
ATOM     11  C   UNL     1       7.273   5.499  15.457  0.00  0.00    +0.000 A 
ATOM     12  C   UNL     1       7.436   5.120  14.137  0.00  0.00    +0.000 A 
ATOM     13  C   UNL     1       6.492   4.312  13.513  0.00  0.00    +0.000 A 
ATOM     14  C   UNL     1       5.365   3.878  14.223  0.00  0.00    +0.000 A 
ATOM     15  C   UNL     1       5.178   4.247  15.559  0.00  0.00    +0.000 A 
ATOM     16  O   UNL     1       4.044   3.759  16.157  0.00  0.00    +0.000 OA
ENDROOT
BRANCH   1  17
ATOM     17  N   UNL     1       2.279   5.007  21.315  0.00  0.00    +0.000 N 
ATOM     18  H   UNL     1       1.434   5.567  21.261  0.00  0.00    +0.000 HD
ATOM     19  H   UNL     1       2.197   4.255  21.993  0.00  0.00    +0.000 HD
ENDBRANCH   1  17
BRANCH  12  20
ATOM     20  O   UNL     1       8.520   5.521  13.414  0.00  0.00    +0.000 OA
ATOM     21  H   UNL     1       9.038   6.149  13.942  0.00  0.00    +0.000 HD
ENDBRANCH  12  20
TORSDOF 2
ENDMDL
MODEL 6
REMARK VINA RESULT:      -6.6      2.495      3.348
REMARK  Name = 
REMARK  2 active torsions:
REMARK  status: ('A' for Active; 'I' for Inactive)
REMARK    1  A    between atoms: N_1  and  C_2
REMARK    2  A    between atoms: C_13  and  O_14
REMARK                            x       y       z     vdW  Elec       q    Type
REMARK                         _______ _______ _______ _____ _____    ______ ____
ROOT
ATOM      1  C   UNL     1       6.347   5.396  15.605  0.00  0.00    +0.000 A 
ATOM      2  C   UNL     1       5.628   6.593  15.641  0.00  0.00    +0.000 A 
ATOM      3  C   UNL     1       4.583   6.782  16.562  0.00  0.00    +0.000 A 
ATOM      4  C   UNL     1       4.213   5.759  17.438  0.00  0.00    +0.000 A 
ATOM      5  C   UNL     1       4.908   4.565  17.359  0.00  0.00    +0.000 A 
ATOM      6  C   UNL     1       5.945   4.361  16.441  0.00  0.00    +0.000 A 
ATOM      7  S   UNL     1       4.486   3.263  18.425  0.00  0.00    +0.000 S 
ATOM      8  O   UNL     1       5.585   3.100  19.357  0.00  0.00    +0.000 OA
ATOM      9  O   UNL     1       4.018   2.165  17.603  0.00  0.00    +0.000 OA
ATOM     10  C   UNL     1       3.124   3.823  19.345  0.00  0.00    +0.000 A 
ATOM     11  C   UNL     1       2.534   2.941  20.258  0.00  0.00    +0.000 A 
ATOM     12  C   UNL     1       1.450   3.381  20.998  0.00  0.00    +0.000 A 
ATOM     13  C   UNL     1       0.960   4.671  20.833  0.00  0.00    +0.000 A 
ATOM     14  C   UNL     1       1.563   5.536  19.911  0.00  0.00    +0.000 A 
ATOM     15  C   UNL     1       2.660   5.116  19.151  0.00  0.00    +0.000 A 
ATOM     16  O   UNL     1       3.175   6.047  18.286  0.00  0.00    +0.000 OA
ENDROOT
BRANCH   1  17
ATOM     17  N   UNL     1       7.286   5.154  14.600  0.00  0.00    +0.000 N 
ATOM     18  H   UNL     1       6.939   5.292  13.657  0.00  0.00    +0.000 HD
ATOM     19  H   UNL     1       8.183   5.609  14.749  0.00  0.00    +0.000 HD
ENDBRANCH   1  17
BRANCH  12  20
ATOM     20  O   UNL     1       0.838   2.569  21.906  0.00  0.00    +0.000 OA
ATOM     21  H   UNL     1      -0.081   2.421  21.630  0.00  0.00    +0.000 HD
ENDBRANCH  12  20
TORSDOF 2
ENDMDL
MODEL 7
REMARK VINA RESULT:      -6.6      3.355      5.748
REMARK  Name = 
REMARK  2 active torsions:
REMARK  status: ('A' for Active; 'I' for Inactive)
REMARK    1  A    between atoms: N_1  and  C_2
REMARK    2  A    between atoms: C_13  and  O_14
REMARK                            x       y       z     vdW  Elec       q    Type
REMARK                         _______ _______ _______ _____ _____    ______ ____
ROOT
ATOM      1  C   UNL     1       1.456   3.306  21.076  0.00  0.00    +0.000 A 
ATOM      2  C   UNL     1       0.967   4.601  20.886  0.00  0.00    +0.000 A 
ATOM      3  C   UNL     1       1.515   5.444  19.905  0.00  0.00    +0.000 A 
ATOM      4  C   UNL     1       2.591   5.020  19.121  0.00  0.00    +0.000 A 
ATOM      5  C   UNL     1       3.090   3.750  19.352  0.00  0.00    +0.000 A 
ATOM      6  C   UNL     1       2.559   2.903  20.332  0.00  0.00    +0.000 A 
ATOM      7  S   UNL     1       4.426   3.176  18.407  0.00  0.00    +0.000 S 
ATOM      8  O   UNL     1       3.921   2.124  17.546  0.00  0.00    +0.000 OA
ATOM      9  O   UNL     1       5.534   2.949  19.315  0.00  0.00    +0.000 OA
ATOM     10  C   UNL     1       4.882   4.496  17.374  0.00  0.00    +0.000 A 
ATOM     11  C   UNL     1       5.985   4.327  16.530  0.00  0.00    +0.000 A 
ATOM     12  C   UNL     1       6.352   5.373  15.701  0.00  0.00    +0.000 A 
ATOM     13  C   UNL     1       5.638   6.565  15.712  0.00  0.00    +0.000 A 
ATOM     14  C   UNL     1       4.538   6.715  16.568  0.00  0.00    +0.000 A 
ATOM     15  C   UNL     1       4.147   5.672  17.414  0.00  0.00    +0.000 A 
ATOM     16  O   UNL     1       3.054   5.926  18.203  0.00  0.00    +0.000 OA
ENDROOT
BRANCH   1  17
ATOM     17  N   UNL     1       1.010   2.521  22.141  0.00  0.00    +0.000 N 
ATOM     18  H   UNL     1       1.556   1.681  22.303  0.00  0.00    +0.000 HD
ATOM     19  H   UNL     1       0.840   3.039  22.998  0.00  0.00    +0.000 HD
ENDBRANCH   1  17
BRANCH  12  20
ATOM     20  O   UNL     1       7.415   5.265  14.854  0.00  0.00    +0.000 OA
ATOM     21  H   UNL     1       7.857   6.127  14.788  0.00  0.00    +0.000 HD
ENDBRANCH  12  20
TORSDOF 2
ENDMDL
MODEL 8
REMARK VINA RESULT:      -6.5      1.669      1.989
REMARK  Name = 
REMARK  2 active torsions:
REMARK  status: ('A' for Active; 'I' for Inactive)
REMARK    1  A    between atoms: N_1  and  C_2
REMARK    2  A    between atoms: C_13  and  O_14
REMARK                            x       y       z     vdW  Elec       q    Type
REMARK                         _______ _______ _______ _____ _____    ______ ____
ROOT
ATOM      1  C   UNL     1       6.925   6.931  17.071  0.00  0.00    +0.000 A 
ATOM      2  C   UNL     1       7.389   5.718  16.555  0.00  0.00    +0.000 A 
ATOM      3  C   UNL     1       6.599   4.558  16.613  0.00  0.00    +0.000 A 
ATOM      4  C   UNL     1       5.344   4.581  17.225  0.00  0.00    +0.000 A 
ATOM      5  C   UNL     1       4.918   5.781  17.769  0.00  0.00    +0.000 A 
ATOM      6  C   UNL     1       5.698   6.941  17.725  0.00  0.00    +0.000 A 
ATOM      7  S   UNL     1       3.367   5.862  18.541  0.00  0.00    +0.000 S 
ATOM      8  O   UNL     1       2.512   6.677  17.700  0.00  0.00    +0.000 OA
ATOM      9  O   UNL     1       3.594   6.186  19.936  0.00  0.00    +0.000 OA
ATOM     10  C   UNL     1       2.726   4.248  18.495  0.00  0.00    +0.000 A 
ATOM     11  C   UNL     1       1.490   4.008  19.106  0.00  0.00    +0.000 A 
ATOM     12  C   UNL     1       0.971   2.725  19.070  0.00  0.00    +0.000 A 
ATOM     13  C   UNL     1       1.668   1.700  18.442  0.00  0.00    +0.000 A 
ATOM     14  C   UNL     1       2.905   1.961  17.839  0.00  0.00    +0.000 A 
ATOM     15  C   UNL     1       3.451   3.249  17.861  0.00  0.00    +0.000 A 
ATOM     16  O   UNL     1       4.663   3.392  17.235  0.00  0.00    +0.000 OA
ENDROOT
BRANCH   1  17
ATOM     17  N   UNL     1       7.762   8.046  17.143  0.00  0.00    +0.000 N 
ATOM     18  H   UNL     1       8.661   7.871  17.578  0.00  0.00    +0.000 HD
ATOM     19  H   UNL     1       7.851   8.557  16.269  0.00  0.00    +0.000 HD
ENDBRANCH   1  17
BRANCH  12  20
ATOM     20  O   UNL     1      -0.230   2.433  19.643  0.00  0.00    +0.000 OA
ATOM     21  H   UNL     1      -0.208   1.523  19.981  0.00  0.00    +0.000 HD
ENDBRANCH  12  20
TORSDOF 2
ENDMDL
MODEL 9
REMARK VINA RESULT:      -6.5      2.751      3.521
REMARK  Name = 
REMARK  2 active torsions:
REMARK  status: ('A' for Active; 'I' for Inactive)
REMARK    1  A    between atoms: N_1  and  C_2
REMARK    2  A    between atoms: C_13  and  O_14
REMARK                            x       y       z     vdW  Elec       q    Type
REMARK                         _______ _______ _______ _____ _____    ______ ____
ROOT
ATOM      1  C   UNL     1       7.213   5.158  14.168  0.00  0.00    +0.000 A 
ATOM      2  C   UNL     1       6.466   4.055  13.749  0.00  0.00    +0.000 A 
ATOM      3  C   UNL     1       5.401   3.566  14.524  0.00  0.00    +0.000 A 
ATOM      4  C   UNL     1       5.088   4.150  15.754  0.00  0.00    +0.000 A 
ATOM      5  C   UNL     1       5.866   5.215  16.173  0.00  0.00    +0.000 A 
ATOM      6  C   UNL     1       6.935   5.706  15.415  0.00  0.00    +0.000 A 
ATOM      7  S   UNL     1       5.519   5.974  17.694  0.00  0.00    +0.000 S 
ATOM      8  O   UNL     1       5.002   7.297  17.403  0.00  0.00    +0.000 OA
ATOM      9  O   UNL     1       6.675   5.781  18.548  0.00  0.00    +0.000 OA
ATOM     10  C   UNL     1       4.215   5.066  18.394  0.00  0.00    +0.000 A 
ATOM     11  C   UNL     1       3.762   5.431  19.667  0.00  0.00    +0.000 A 
ATOM     12  C   UNL     1       2.721   4.714  20.231  0.00  0.00    +0.000 A 
ATOM     13  C   UNL     1       2.141   3.654  19.544  0.00  0.00    +0.000 A 
ATOM     14  C   UNL     1       2.612   3.304  18.271  0.00  0.00    +0.000 A 
ATOM     15  C   UNL     1       3.663   4.013  17.680  0.00  0.00    +0.000 A 
ATOM     16  O   UNL     1       4.037   3.588  16.431  0.00  0.00    +0.000 OA
ENDROOT
BRANCH   1  17
ATOM     17  N   UNL     1       8.357   5.555  13.473  0.00  0.00    +0.000 N 
ATOM     18  H   UNL     1       9.216   5.505  14.012  0.00  0.00    +0.000 HD
ATOM     19  H   UNL     1       8.455   5.132  12.555  0.00  0.00    +0.000 HD
ENDBRANCH   1  17
BRANCH  12  20
ATOM     20  O   UNL     1       2.234   5.026  21.465  0.00  0.00    +0.000 OA
ATOM     21  H   UNL     1       2.910   5.521  21.957  0.00  0.00    +0.000 HD
ENDBRANCH  12  20
TORSDOF 2
ENDMDL
