MODEL 1
REMARK VINA RESULT:      -6.6      0.000      0.000
REMARK  Name = 
REMARK  8 active torsions:
REMARK  status: ('A' for Active; 'I' for Inactive)
REMARK    1  A    between atoms: C_1  and  C_2
REMARK    2  A    between atoms: C_6  and  O_8
REMARK    3  A    between atoms: O_8  and  C_9
REMARK    4  A    between atoms: C_9  and  C_10
REMARK    5  A    between atoms: C_9  and  C_11
REMARK    6  A    between atoms: C_9  and  C_12
REMARK    7  A    between atoms: C_14  and  C_15
REMARK    8  A    between atoms: N_17  and  C_18
REMARK                            x       y       z     vdW  Elec       q    Type
REMARK                         _______ _______ _______ _____ _____    ______ ____
ROOT
ATOM      1  C   UNL     1       1.485   3.951  18.772  0.00  0.00    +0.000 C 
ATOM      2  C   UNL     1       2.658   4.487  18.028  0.00  0.00    +0.000 A 
ATOM      3  N   UNL     1       3.385   3.614  17.213  0.00  0.00    +0.000 NA
ATOM      4  C   UNL     1       4.331   4.273  16.589  0.00  0.00    +0.000 A 
ATOM      5  N   UNL     1       5.172   3.705  15.662  0.00  0.00    +0.000 N 
ATOM      6  C   UNL     1       5.948   4.425  14.794  0.00  0.00    +0.000 C 
ATOM      7  O   UNL     1       6.006   5.645  14.719  0.00  0.00    +0.000 OA
ATOM      8  S   UNL     1       4.495   5.907  17.042  0.00  0.00    +0.000 S 
ATOM      9  C   UNL     1       3.120   5.798  18.039  0.00  0.00    +0.000 A 
ATOM     10  H   UNL     1       5.090   2.709  15.527  0.00  0.00    +0.000 HD
ENDROOT
BRANCH   9  11
ATOM     11  C   UNL     1       2.613   6.954  18.760  0.00  0.00    +0.000 C 
ATOM     12  O   UNL     1       2.562   6.964  19.987  0.00  0.00    +0.000 OA
ATOM     13  N   UNL     1       2.168   7.997  17.953  0.00  0.00    +0.000 N 
ATOM     14  H   UNL     1       2.136   7.802  16.957  0.00  0.00    +0.000 HD
BRANCH  13  15
ATOM     15  C   UNL     1       1.688   9.257  18.360  0.00  0.00    +0.000 A 
ATOM     16  C   UNL     1       0.579   9.417  19.191  0.00  0.00    +0.000 A 
ATOM     17  C   UNL     1       0.131  10.693  19.543  0.00  0.00    +0.000 A 
ATOM     18  C   UNL     1       0.791  11.822  19.067  0.00  0.00    +0.000 A 
ATOM     19  C   UNL     1       1.916  11.675  18.259  0.00  0.00    +0.000 A 
ATOM     20  C   UNL     1       2.372  10.398  17.916  0.00  0.00    +0.000 A 
ENDBRANCH  13  15
ENDBRANCH   9  11
BRANCH   6  21
ATOM     21  O   UNL     1       6.647   3.594  13.966  0.00  0.00    +0.000 OA
BRANCH  21  22
ATOM     22  C   UNL     1       6.385   3.703  12.535  0.00  0.00    +0.000 C 
ATOM     23  C   UNL     1       7.250   4.799  11.887  0.00  0.00    +0.000 C 
ATOM     24  C   UNL     1       6.791   2.358  11.911  0.00  0.00    +0.000 C 
ATOM     25  C   UNL     1       4.886   3.907  12.263  0.00  0.00    +0.000 C 
ENDBRANCH  21  22
ENDBRANCH   6  21
TORSDOF 4
ENDMDL
MODEL 2
REMARK VINA RESULT:      -6.5      0.359      1.025
REMARK  Name = 
REMARK  8 active torsions:
REMARK  status: ('A' for Active; 'I' for Inactive)
REMARK    1  A    between atoms: C_1  and  C_2
REMARK    2  A    between atoms: C_6  and  O_8
REMARK    3  A    between atoms: O_8  and  C_9
REMARK    4  A    between atoms: C_9  and  C_10
REMARK    5  A    between atoms: C_9  and  C_11
REMARK    6  A    between atoms: C_9  and  C_12
REMARK    7  A    between atoms: C_14  and  C_15
REMARK    8  A    between atoms: N_17  and  C_18
REMARK                            x       y       z     vdW  Elec       q    Type
REMARK                         _______ _______ _______ _____ _____    ______ ____
ROOT
ATOM      1  C   UNL     1       1.743   4.137  19.053  0.00  0.00    +0.000 C 
ATOM      2  C   UNL     1       2.819   4.678  18.176  0.00  0.00    +0.000 A 
ATOM      3  N   UNL     1       3.570   3.778  17.413  0.00  0.00    +0.000 NA
ATOM      4  C   UNL     1       4.416   4.437  16.657  0.00  0.00    +0.000 A 
ATOM      5  N   UNL     1       5.247   3.835  15.742  0.00  0.00    +0.000 N 
ATOM      6  C   UNL     1       5.904   4.512  14.750  0.00  0.00    +0.000 C 
ATOM      7  O   UNL     1       5.850   5.715  14.538  0.00  0.00    +0.000 OA
ATOM      8  S   UNL     1       4.461   6.119  16.916  0.00  0.00    +0.000 S 
ATOM      9  C   UNL     1       3.163   6.014  18.012  0.00  0.00    +0.000 A 
ATOM     10  H   UNL     1       5.246   2.827  15.723  0.00  0.00    +0.000 HD
ENDROOT
BRANCH   9  11
ATOM     11  C   UNL     1       2.599   7.201  18.634  0.00  0.00    +0.000 C 
ATOM     12  O   UNL     1       2.475   7.278  19.854  0.00  0.00    +0.000 OA
ATOM     13  N   UNL     1       2.189   8.190  17.746  0.00  0.00    +0.000 N 
ATOM     14  H   UNL     1       2.219   7.939  16.762  0.00  0.00    +0.000 HD
BRANCH  13  15
ATOM     15  C   UNL     1       1.671   9.463  18.051  0.00  0.00    +0.000 A 
ATOM     16  C   UNL     1       2.445  10.623  18.035  0.00  0.00    +0.000 A 
ATOM     17  C   UNL     1       1.884  11.858  18.372  0.00  0.00    +0.000 A 
ATOM     18  C   UNL     1       0.541  11.943  18.727  0.00  0.00    +0.000 A 
ATOM     19  C   UNL     1      -0.249  10.796  18.720  0.00  0.00    +0.000 A 
ATOM     20  C   UNL     1       0.310   9.561  18.371  0.00  0.00    +0.000 A 
ENDBRANCH  13  15
ENDBRANCH   9  11
BRANCH   6  21
ATOM     21  O   UNL     1       6.623   3.651  13.972  0.00  0.00    +0.000 OA
BRANCH  21  22
ATOM     22  C   UNL     1       6.397   3.704  12.531  0.00  0.00    +0.000 C 
ATOM     23  C   UNL     1       7.229   4.819  11.873  0.00  0.00    +0.000 C 
ATOM     24  C   UNL     1       6.881   2.362  11.960  0.00  0.00    +0.000 C 
ATOM     25  C   UNL     1       4.898   3.831  12.214  0.00  0.00    +0.000 C 
ENDBRANCH  21  22
ENDBRANCH   6  21
TORSDOF 4
ENDMDL
MODEL 3
REMARK VINA RESULT:      -6.5      4.387     10.264
REMARK  Name = 
REMARK  8 active torsions:
REMARK  status: ('A' for Active; 'I' for Inactive)
REMARK    1  A    between atoms: C_1  and  C_2
REMARK    2  A    between atoms: C_6  and  O_8
REMARK    3  A    between atoms: O_8  and  C_9
REMARK    4  A    between atoms: C_9  and  C_10
REMARK    5  A    between atoms: C_9  and  C_11
REMARK    6  A    between atoms: C_9  and  C_12
REMARK    7  A    between atoms: C_14  and  C_15
REMARK    8  A    between atoms: N_17  and  C_18
REMARK                            x       y       z     vdW  Elec       q    Type
REMARK                         _______ _______ _______ _____ _____    ______ ____
ROOT
ATOM      1  C   UNL     1       1.816   9.367  17.834  0.00  0.00    +0.000 C 
ATOM      2  C   UNL     1       1.371   9.524  19.246  0.00  0.00    +0.000 A 
ATOM      3  N   UNL     1       0.901  10.774  19.660  0.00  0.00    +0.000 NA
ATOM      4  C   UNL     1       0.491  10.704  20.904  0.00  0.00    +0.000 A 
ATOM      5  N   UNL     1      -0.090  11.754  21.575  0.00  0.00    +0.000 N 
ATOM      6  C   UNL     1      -0.786  11.618  22.746  0.00  0.00    +0.000 C 
ATOM      7  O   UNL     1      -0.987  10.574  23.350  0.00  0.00    +0.000 OA
ATOM      8  S   UNL     1       0.774   9.213  21.677  0.00  0.00    +0.000 S 
ATOM      9  C   UNL     1       1.354   8.539  20.226  0.00  0.00    +0.000 A 
ATOM     10  H   UNL     1      -0.123  12.638  21.091  0.00  0.00    +0.000 HD
ENDROOT
BRANCH   9  11
ATOM     11  C   UNL     1       1.762   7.145  20.149  0.00  0.00    +0.000 C 
ATOM     12  O   UNL     1       1.456   6.346  21.030  0.00  0.00    +0.000 OA
ATOM     13  N   UNL     1       2.540   6.824  19.041  0.00  0.00    +0.000 N 
ATOM     14  H   UNL     1       2.836   7.608  18.467  0.00  0.00    +0.000 HD
BRANCH  13  15
ATOM     15  C   UNL     1       3.024   5.556  18.666  0.00  0.00    +0.000 A 
ATOM     16  C   UNL     1       2.332   4.701  17.808  0.00  0.00    +0.000 A 
ATOM     17  C   UNL     1       2.848   3.442  17.490  0.00  0.00    +0.000 A 
ATOM     18  C   UNL     1       4.063   3.027  18.027  0.00  0.00    +0.000 A 
ATOM     19  C   UNL     1       4.777   3.882  18.863  0.00  0.00    +0.000 A 
ATOM     20  C   UNL     1       4.266   5.148  19.172  0.00  0.00    +0.000 A 
ENDBRANCH  13  15
ENDBRANCH   9  11
BRANCH   6  21
ATOM     21  O   UNL     1      -1.281  12.822  23.157  0.00  0.00    +0.000 OA
BRANCH  21  22
ATOM     22  C   UNL     1      -2.691  13.092  22.890  0.00  0.00    +0.000 C 
ATOM     23  C   UNL     1      -3.599  12.421  23.935  0.00  0.00    +0.000 C 
ATOM     24  C   UNL     1      -2.878  14.612  23.013  0.00  0.00    +0.000 C 
ATOM     25  C   UNL     1      -3.064  12.694  21.453  0.00  0.00    +0.000 C 
ENDBRANCH  21  22
ENDBRANCH   6  21
TORSDOF 4
ENDMDL
MODEL 4
REMARK VINA RESULT:      -6.4      4.645      6.737
REMARK  Name = 
REMARK  8 active torsions:
REMARK  status: ('A' for Active; 'I' for Inactive)
REMARK    1  A    between atoms: C_1  and  C_2
REMARK    2  A    between atoms: C_6  and  O_8
REMARK    3  A    between atoms: O_8  and  C_9
REMARK    4  A    between atoms: C_9  and  C_10
REMARK    5  A    between atoms: C_9  and  C_11
REMARK    6  A    between atoms: C_9  and  C_12
REMARK    7  A    between atoms: C_14  and  C_15
REMARK    8  A    between atoms: N_17  and  C_18
REMARK                            x       y       z     vdW  Elec       q    Type
REMARK                         _______ _______ _______ _____ _____    ______ ____
ROOT
ATOM      1  C   UNL     1      -0.940  10.415  23.031  0.00  0.00    +0.000 C 
ATOM      2  C   UNL     1      -0.115   9.955  21.879  0.00  0.00    +0.000 A 
ATOM      3  N   UNL     1       0.657   8.800  22.033  0.00  0.00    +0.000 NA
ATOM      4  C   UNL     1       1.256   8.513  20.902  0.00  0.00    +0.000 A 
ATOM      5  N   UNL     1       2.033   7.395  20.714  0.00  0.00    +0.000 N 
ATOM      6  C   UNL     1       2.410   6.927  19.484  0.00  0.00    +0.000 C 
ATOM      7  O   UNL     1       2.120   7.422  18.403  0.00  0.00    +0.000 OA
ATOM      8  S   UNL     1       1.052   9.662  19.662  0.00  0.00    +0.000 S 
ATOM      9  C   UNL     1      -0.033  10.552  20.627  0.00  0.00    +0.000 A 
ATOM     10  H   UNL     1       2.201   6.819  21.524  0.00  0.00    +0.000 HD
ENDROOT
BRANCH   9  11
ATOM     11  C   UNL     1      -0.692  11.745  20.121  0.00  0.00    +0.000 C 
ATOM     12  O   UNL     1      -1.758  11.672  19.515  0.00  0.00    +0.000 OA
ATOM     13  N   UNL     1      -0.004  12.933  20.345  0.00  0.00    +0.000 N 
ATOM     14  H   UNL     1       0.931  12.836  20.732  0.00  0.00    +0.000 HD
BRANCH  13  15
ATOM     15  C   UNL     1      -0.418  14.242  20.031  0.00  0.00    +0.000 A 
ATOM     16  C   UNL     1      -1.406  14.919  20.748  0.00  0.00    +0.000 A 
ATOM     17  C   UNL     1      -1.796  16.208  20.376  0.00  0.00    +0.000 A 
ATOM     18  C   UNL     1      -1.200  16.833  19.285  0.00  0.00    +0.000 A 
ATOM     19  C   UNL     1      -0.194  16.178  18.579  0.00  0.00    +0.000 A 
ATOM     20  C   UNL     1       0.206  14.892  18.958  0.00  0.00    +0.000 A 
ENDBRANCH  13  15
ENDBRANCH   9  11
BRANCH   6  21
ATOM     21  O   UNL     1       3.143   5.781  19.606  0.00  0.00    +0.000 OA
BRANCH  21  22
ATOM     22  C   UNL     1       2.433   4.515  19.454  0.00  0.00    +0.000 C 
ATOM     23  C   UNL     1       2.027   4.271  17.990  0.00  0.00    +0.000 C 
ATOM     24  C   UNL     1       3.419   3.407  19.857  0.00  0.00    +0.000 C 
ATOM     25  C   UNL     1       1.233   4.439  20.411  0.00  0.00    +0.000 C 
ENDBRANCH  21  22
ENDBRANCH   6  21
TORSDOF 4
ENDMDL
MODEL 5
REMARK VINA RESULT:      -6.4      2.743      8.563
REMARK  Name = 
REMARK  8 active torsions:
REMARK  status: ('A' for Active; 'I' for Inactive)
REMARK    1  A    between atoms: C_1  and  C_2
REMARK    2  A    between atoms: C_6  and  O_8
REMARK    3  A    between atoms: O_8  and  C_9
REMARK    4  A    between atoms: C_9  and  C_10
REMARK    5  A    between atoms: C_9  and  C_11
REMARK    6  A    between atoms: C_9  and  C_12
REMARK    7  A    between atoms: C_14  and  C_15
REMARK    8  A    between atoms: N_17  and  C_18
REMARK                            x       y       z     vdW  Elec       q    Type
REMARK                         _______ _______ _______ _____ _____    ______ ____
ROOT
ATOM      1  C   UNL     1       2.084   5.419  21.023  0.00  0.00    +0.000 C 
ATOM      2  C   UNL     1       1.937   6.663  20.217  0.00  0.00    +0.000 A 
ATOM      3  N   UNL     1       1.274   7.752  20.789  0.00  0.00    +0.000 NA
ATOM      4  C   UNL     1       1.303   8.772  19.965  0.00  0.00    +0.000 A 
ATOM      5  N   UNL     1       0.795  10.012  20.269  0.00  0.00    +0.000 N 
ATOM      6  C   UNL     1       1.079  11.147  19.559  0.00  0.00    +0.000 C 
ATOM      7  O   UNL     1       1.806  11.223  18.578  0.00  0.00    +0.000 OA
ATOM      8  S   UNL     1       1.981   8.448  18.436  0.00  0.00    +0.000 S 
ATOM      9  C   UNL     1       2.411   6.877  18.928  0.00  0.00    +0.000 A 
ATOM     10  H   UNL     1       0.309  10.100  21.148  0.00  0.00    +0.000 HD
ENDROOT
BRANCH   9  11
ATOM     11  C   UNL     1       3.137   5.979  18.045  0.00  0.00    +0.000 C 
ATOM     12  O   UNL     1       2.626   4.939  17.638  0.00  0.00    +0.000 OA
ATOM     13  N   UNL     1       4.438   6.375  17.748  0.00  0.00    +0.000 N 
ATOM     14  H   UNL     1       4.782   7.181  18.262  0.00  0.00    +0.000 HD
BRANCH  13  15
ATOM     15  C   UNL     1       5.353   5.750  16.879  0.00  0.00    +0.000 A 
ATOM     16  C   UNL     1       6.426   4.981  17.330  0.00  0.00    +0.000 A 
ATOM     17  C   UNL     1       7.318   4.404  16.423  0.00  0.00    +0.000 A 
ATOM     18  C   UNL     1       7.144   4.590  15.055  0.00  0.00    +0.000 A 
ATOM     19  C   UNL     1       6.061   5.333  14.591  0.00  0.00    +0.000 A 
ATOM     20  C   UNL     1       5.160   5.901  15.499  0.00  0.00    +0.000 A 
ENDBRANCH  13  15
ENDBRANCH   9  11
BRANCH   6  21
ATOM     21  O   UNL     1       0.466  12.233  20.115  0.00  0.00    +0.000 OA
BRANCH  21  22
ATOM     22  C   UNL     1      -0.691  12.780  19.413  0.00  0.00    +0.000 C 
ATOM     23  C   UNL     1      -1.765  13.272  20.399  0.00  0.00    +0.000 C 
ATOM     24  C   UNL     1      -0.189  13.998  18.622  0.00  0.00    +0.000 C 
ATOM     25  C   UNL     1      -1.249  11.767  18.401  0.00  0.00    +0.000 C 
ENDBRANCH  21  22
ENDBRANCH   6  21
TORSDOF 4
ENDMDL
MODEL 6
REMARK VINA RESULT:      -6.4      2.195      8.574
REMARK  Name = 
REMARK  8 active torsions:
REMARK  status: ('A' for Active; 'I' for Inactive)
REMARK    1  A    between atoms: C_1  and  C_2
REMARK    2  A    between atoms: C_6  and  O_8
REMARK    3  A    between atoms: O_8  and  C_9
REMARK    4  A    between atoms: C_9  and  C_10
REMARK    5  A    between atoms: C_9  and  C_11
REMARK    6  A    between atoms: C_9  and  C_12
REMARK    7  A    between atoms: C_14  and  C_15
REMARK    8  A    between atoms: N_17  and  C_18
REMARK                            x       y       z     vdW  Elec       q    Type
REMARK                         _______ _______ _______ _____ _____    ______ ____
ROOT
ATOM      1  C   UNL     1       5.558   4.066  18.956  0.00  0.00    +0.000 C 
ATOM      2  C   UNL     1       4.519   5.122  18.798  0.00  0.00    +0.000 A 
ATOM      3  N   UNL     1       3.632   5.345  19.855  0.00  0.00    +0.000 NA
ATOM      4  C   UNL     1       2.841   6.350  19.566  0.00  0.00    +0.000 A 
ATOM      5  N   UNL     1       1.904   6.857  20.435  0.00  0.00    +0.000 N 
ATOM      6  C   UNL     1       1.292   8.071  20.272  0.00  0.00    +0.000 C 
ATOM      7  O   UNL     1       1.483   8.860  19.357  0.00  0.00    +0.000 OA
ATOM      8  S   UNL     1       3.012   6.976  17.991  0.00  0.00    +0.000 S 
ATOM      9  C   UNL     1       4.334   5.946  17.695  0.00  0.00    +0.000 A 
ATOM     10  H   UNL     1       1.782   6.366  21.306  0.00  0.00    +0.000 HD
ENDROOT
BRANCH   9  11
ATOM     11  C   UNL     1       5.064   5.993  16.438  0.00  0.00    +0.000 C 
ATOM     12  O   UNL     1       5.603   7.029  16.057  0.00  0.00    +0.000 OA
ATOM     13  N   UNL     1       5.058   4.805  15.713  0.00  0.00    +0.000 N 
ATOM     14  H   UNL     1       4.458   4.070  16.074  0.00  0.00    +0.000 HD
BRANCH  13  15
ATOM     15  C   UNL     1       5.725   4.530  14.504  0.00  0.00    +0.000 A 
ATOM     16  C   UNL     1       5.184   3.722  13.504  0.00  0.00    +0.000 A 
ATOM     17  C   UNL     1       5.902   3.462  12.333  0.00  0.00    +0.000 A 
ATOM     18  C   UNL     1       7.168   4.010  12.152  0.00  0.00    +0.000 A 
ATOM     19  C   UNL     1       7.708   4.841  13.131  0.00  0.00    +0.000 A 
ATOM     20  C   UNL     1       6.984   5.111  14.298  0.00  0.00    +0.000 A 
ENDBRANCH  13  15
ENDBRANCH   9  11
BRANCH   6  21
ATOM     21  O   UNL     1       0.441   8.326  21.309  0.00  0.00    +0.000 OA
BRANCH  21  22
ATOM     22  C   UNL     1       0.698   9.520  22.107  0.00  0.00    +0.000 C 
ATOM     23  C   UNL     1       0.559  10.800  21.264  0.00  0.00    +0.000 C 
ATOM     24  C   UNL     1      -0.382   9.560  23.199  0.00  0.00    +0.000 C 
ATOM     25  C   UNL     1       2.064   9.429  22.808  0.00  0.00    +0.000 C 
ENDBRANCH  21  22
ENDBRANCH   6  21
TORSDOF 4
ENDMDL
MODEL 7
REMARK VINA RESULT:      -6.4      4.420      6.496
REMARK  Name = 
REMARK  8 active torsions:
REMARK  status: ('A' for Active; 'I' for Inactive)
REMARK    1  A    between atoms: C_1  and  C_2
REMARK    2  A    between atoms: C_6  and  O_8
REMARK    3  A    between atoms: O_8  and  C_9
REMARK    4  A    between atoms: C_9  and  C_10
REMARK    5  A    between atoms: C_9  and  C_11
REMARK    6  A    between atoms: C_9  and  C_12
REMARK    7  A    between atoms: C_14  and  C_15
REMARK    8  A    between atoms: N_17  and  C_18
REMARK                            x       y       z     vdW  Elec       q    Type
REMARK                         _______ _______ _______ _____ _____    ______ ____
ROOT
ATOM      1  C   UNL     1      -0.613  10.258  22.839  0.00  0.00    +0.000 C 
ATOM      2  C   UNL     1       0.149   9.757  21.661  0.00  0.00    +0.000 A 
ATOM      3  N   UNL     1       0.912   8.595  21.809  0.00  0.00    +0.000 NA
ATOM      4  C   UNL     1       1.451   8.269  20.658  0.00  0.00    +0.000 A 
ATOM      5  N   UNL     1       2.202   7.135  20.463  0.00  0.00    +0.000 N 
ATOM      6  C   UNL     1       2.513   6.630  19.229  0.00  0.00    +0.000 C 
ATOM      7  O   UNL     1       2.177   7.100  18.150  0.00  0.00    +0.000 OA
ATOM      8  S   UNL     1       1.201   9.389  19.399  0.00  0.00    +0.000 S 
ATOM      9  C   UNL     1       0.178  10.319  20.391  0.00  0.00    +0.000 A 
ATOM     10  H   UNL     1       2.402   6.578  21.278  0.00  0.00    +0.000 HD
ENDROOT
BRANCH   9  11
ATOM     11  C   UNL     1      -0.489  11.508  19.886  0.00  0.00    +0.000 C 
ATOM     12  O   UNL     1      -1.513  11.423  19.211  0.00  0.00    +0.000 OA
ATOM     13  N   UNL     1       0.142  12.709  20.195  0.00  0.00    +0.000 N 
ATOM     14  H   UNL     1       1.053  12.628  20.637  0.00  0.00    +0.000 HD
BRANCH  13  15
ATOM     15  C   UNL     1      -0.296  14.015  19.901  0.00  0.00    +0.000 A 
ATOM     16  C   UNL     1       0.194  14.758  18.827  0.00  0.00    +0.000 A 
ATOM     17  C   UNL     1      -0.258  16.059  18.597  0.00  0.00    +0.000 A 
ATOM     18  C   UNL     1      -1.209  16.629  19.439  0.00  0.00    +0.000 A 
ATOM     19  C   UNL     1      -1.726  15.888  20.498  0.00  0.00    +0.000 A 
ATOM     20  C   UNL     1      -1.282  14.580  20.722  0.00  0.00    +0.000 A 
ENDBRANCH  13  15
ENDBRANCH   9  11
BRANCH   6  21
ATOM     21  O   UNL     1       3.235   5.477  19.345  0.00  0.00    +0.000 OA
BRANCH  21  22
ATOM     22  C   UNL     1       2.517   4.218  19.167  0.00  0.00    +0.000 C 
ATOM     23  C   UNL     1       2.058   4.035  17.710  0.00  0.00    +0.000 C 
ATOM     24  C   UNL     1       3.516   3.095  19.488  0.00  0.00    +0.000 C 
ATOM     25  C   UNL     1       1.353   4.103  20.164  0.00  0.00    +0.000 C 
ENDBRANCH  21  22
ENDBRANCH   6  21
TORSDOF 4
ENDMDL
MODEL 8
REMARK VINA RESULT:      -6.4      4.364     10.272
REMARK  Name = 
REMARK  8 active torsions:
REMARK  status: ('A' for Active; 'I' for Inactive)
REMARK    1  A    between atoms: C_1  and  C_2
REMARK    2  A    between atoms: C_6  and  O_8
REMARK    3  A    between atoms: O_8  and  C_9
REMARK    4  A    between atoms: C_9  and  C_10
REMARK    5  A    between atoms: C_9  and  C_11
REMARK    6  A    between atoms: C_9  and  C_12
REMARK    7  A    between atoms: C_14  and  C_15
REMARK    8  A    between atoms: N_17  and  C_18
REMARK                            x       y       z     vdW  Elec       q    Type
REMARK                         _______ _______ _______ _____ _____    ______ ____
ROOT
ATOM      1  C   UNL     1       1.778   9.469  17.814  0.00  0.00    +0.000 C 
ATOM      2  C   UNL     1       1.346   9.635  19.230  0.00  0.00    +0.000 A 
ATOM      3  N   UNL     1       0.873  10.885  19.639  0.00  0.00    +0.000 NA
ATOM      4  C   UNL     1       0.476  10.823  20.887  0.00  0.00    +0.000 A 
ATOM      5  N   UNL     1      -0.104  11.874  21.556  0.00  0.00    +0.000 N 
ATOM      6  C   UNL     1      -0.787  11.743  22.735  0.00  0.00    +0.000 C 
ATOM      7  O   UNL     1      -0.976  10.702  23.349  0.00  0.00    +0.000 OA
ATOM      8  S   UNL     1       0.775   9.339  21.669  0.00  0.00    +0.000 S 
ATOM      9  C   UNL     1       1.344   8.657  20.217  0.00  0.00    +0.000 A 
ATOM     10  H   UNL     1      -0.147  12.754  21.067  0.00  0.00    +0.000 HD
ENDROOT
BRANCH   9  11
ATOM     11  C   UNL     1       1.758   7.265  20.146  0.00  0.00    +0.000 C 
ATOM     12  O   UNL     1       1.395   6.451  20.992  0.00  0.00    +0.000 OA
ATOM     13  N   UNL     1       2.610   6.961  19.088  0.00  0.00    +0.000 N 
ATOM     14  H   UNL     1       2.943   7.754  18.548  0.00  0.00    +0.000 HD
BRANCH  13  15
ATOM     15  C   UNL     1       3.121   5.699  18.727  0.00  0.00    +0.000 A 
ATOM     16  C   UNL     1       4.350   5.219  19.180  0.00  0.00    +0.000 A 
ATOM     17  C   UNL     1       4.820   3.969  18.769  0.00  0.00    +0.000 A 
ATOM     18  C   UNL     1       4.062   3.186  17.902  0.00  0.00    +0.000 A 
ATOM     19  C   UNL     1       2.821   3.643  17.466  0.00  0.00    +0.000 A 
ATOM     20  C   UNL     1       2.345   4.890  17.886  0.00  0.00    +0.000 A 
ENDBRANCH  13  15
ENDBRANCH   9  11
BRANCH   6  21
ATOM     21  O   UNL     1      -1.285  12.948  23.142  0.00  0.00    +0.000 OA
BRANCH  21  22
ATOM     22  C   UNL     1      -2.708  13.191  22.926  0.00  0.00    +0.000 C 
ATOM     23  C   UNL     1      -3.027  14.696  22.920  0.00  0.00    +0.000 C 
ATOM     24  C   UNL     1      -3.042  12.636  21.533  0.00  0.00    +0.000 C 
ATOM     25  C   UNL     1      -3.559  12.420  23.949  0.00  0.00    +0.000 C 
ENDBRANCH  21  22
ENDBRANCH   6  21
TORSDOF 4
ENDMDL
MODEL 9
REMARK VINA RESULT:      -6.3      2.776      8.575
REMARK  Name = 
REMARK  8 active torsions:
REMARK  status: ('A' for Active; 'I' for Inactive)
REMARK    1  A    between atoms: C_1  and  C_2
REMARK    2  A    between atoms: C_6  and  O_8
REMARK    3  A    between atoms: O_8  and  C_9
REMARK    4  A    between atoms: C_9  and  C_10
REMARK    5  A    between atoms: C_9  and  C_11
REMARK    6  A    between atoms: C_9  and  C_12
REMARK    7  A    between atoms: C_14  and  C_15
REMARK    8  A    between atoms: N_17  and  C_18
REMARK                            x       y       z     vdW  Elec       q    Type
REMARK                         _______ _______ _______ _____ _____    ______ ____
ROOT
ATOM      1  C   UNL     1       2.098   5.345  21.048  0.00  0.00    +0.000 C 
ATOM      2  C   UNL     1       1.927   6.603  20.269  0.00  0.00    +0.000 A 
ATOM      3  N   UNL     1       1.252   7.670  20.868  0.00  0.00    +0.000 NA
ATOM      4  C   UNL     1       1.260   8.707  20.066  0.00  0.00    +0.000 A 
ATOM      5  N   UNL     1       0.736   9.933  20.399  0.00  0.00    +0.000 N 
ATOM      6  C   UNL     1       0.998  11.087  19.711  0.00  0.00    +0.000 C 
ATOM      7  O   UNL     1       1.717  11.194  18.727  0.00  0.00    +0.000 OA
ATOM      8  S   UNL     1       1.931   8.426  18.525  0.00  0.00    +0.000 S 
ATOM      9  C   UNL     1       2.387   6.851  18.981  0.00  0.00    +0.000 A 
ATOM     10  H   UNL     1       0.255   9.995  21.283  0.00  0.00    +0.000 HD
ENDROOT
BRANCH   9  11
ATOM     11  C   UNL     1       3.121   5.982  18.074  0.00  0.00    +0.000 C 
ATOM     12  O   UNL     1       2.616   4.950  17.639  0.00  0.00    +0.000 OA
ATOM     13  N   UNL     1       4.419   6.395  17.789  0.00  0.00    +0.000 N 
ATOM     14  H   UNL     1       4.757   7.189  18.325  0.00  0.00    +0.000 HD
BRANCH  13  15
ATOM     15  C   UNL     1       5.338   5.800  16.904  0.00  0.00    +0.000 A 
ATOM     16  C   UNL     1       5.198   5.849  15.517  0.00  0.00    +0.000 A 
ATOM     17  C   UNL     1       6.127   5.219  14.685  0.00  0.00    +0.000 A 
ATOM     18  C   UNL     1       7.208   4.535  15.235  0.00  0.00    +0.000 A 
ATOM     19  C   UNL     1       7.374   4.503  16.618  0.00  0.00    +0.000 A 
ATOM     20  C   UNL     1       6.449   5.144  17.450  0.00  0.00    +0.000 A 
ENDBRANCH  13  15
ENDBRANCH   9  11
BRANCH   6  21
ATOM     21  O   UNL     1       0.373  12.151  20.295  0.00  0.00    +0.000 OA
BRANCH  21  22
ATOM     22  C   UNL     1      -0.762  12.732  19.584  0.00  0.00    +0.000 C 
ATOM     23  C   UNL     1      -0.299  13.607  18.406  0.00  0.00    +0.000 C 
ATOM     24  C   UNL     1      -1.566  11.557  19.007  0.00  0.00    +0.000 C 
ATOM     25  C   UNL     1      -1.683  13.495  20.550  0.00  0.00    +0.000 C 
ENDBRANCH  21  22
ENDBRANCH   6  21
TORSDOF 4
ENDMDL
