MODEL 1
REMARK VINA RESULT:      -8.7      0.000      0.000
REMARK  Name = 
REMARK  5 active torsions:
REMARK  status: ('A' for Active; 'I' for Inactive)
REMARK    1  A    between atoms: C_2  and  C_18
REMARK    2  A    between atoms: N_3  and  C_4
REMARK    3  A    between atoms: C_4  and  C_5
REMARK    4  A    between atoms: C_5  and  C_6
REMARK    5  A    between atoms: C_9  and  N_10
REMARK                            x       y       z     vdW  Elec       q    Type
REMARK                         _______ _______ _______ _____ _____    ______ ____
ROOT
ATOM      1  O   UNL     1       7.560   6.063  16.085  0.00  0.00    +0.000 OA
ATOM      2  C   UNL     1       6.809   6.288  17.026  0.00  0.00    +0.000 C 
ATOM      3  N   UNL     1       6.874   7.433  17.799  0.00  0.00    +0.000 N 
ATOM      4  H   UNL     1       6.339   7.450  18.655  0.00  0.00    +0.000 HD
ENDROOT
BRANCH   2   5
ATOM      5  C   UNL     1       5.781   5.376  17.472  0.00  0.00    +0.000 A 
ATOM      6  C   UNL     1       4.454   5.326  17.085  0.00  0.00    +0.000 A 
ATOM      7  C   UNL     1       3.810   4.295  17.795  0.00  0.00    +0.000 A 
ATOM      8  C   UNL     1       2.495   3.802  17.786  0.00  0.00    +0.000 A 
ATOM      9  C   UNL     1       2.140   2.808  18.695  0.00  0.00    +0.000 A 
ATOM     10 CL   UNL     1       0.528   2.200  18.679  0.00  0.00    +0.000 Cl
ATOM     11  C   UNL     1       3.066   2.311  19.610  0.00  0.00    +0.000 A 
ATOM     12  C   UNL     1       4.399   2.755  19.603  0.00  0.00    +0.000 A 
ATOM     13  C   UNL     1       4.750   3.738  18.670  0.00  0.00    +0.000 A 
ATOM     14  N   UNL     1       5.961   4.346  18.376  0.00  0.00    +0.000 N 
ATOM     15  H   UNL     1       6.851   4.102  18.791  0.00  0.00    +0.000 HD
ENDBRANCH   2   5
BRANCH   3  16
ATOM     16  C   UNL     1       7.786   8.541  17.575  0.00  0.00    +0.000 C 
BRANCH  16  17
ATOM     17  C   UNL     1       8.793   8.704  18.718  0.00  0.00    +0.000 C 
BRANCH  17  18
ATOM     18  C   UNL     1       9.137  10.149  18.979  0.00  0.00    +0.000 A 
ATOM     19  C   UNL     1       9.477  10.594  20.257  0.00  0.00    +0.000 A 
ATOM     20  C   UNL     1       9.773  11.946  20.488  0.00  0.00    +0.000 A 
ATOM     21  C   UNL     1       9.740  12.905  19.464  0.00  0.00    +0.000 A 
ATOM     22  C   UNL     1       9.402  12.433  18.187  0.00  0.00    +0.000 A 
ATOM     23  C   UNL     1       9.105  11.084  17.943  0.00  0.00    +0.000 A 
BRANCH  21  24
ATOM     24  N   UNL     1      10.017  14.239  19.705  0.00  0.00    +0.000 N 
ATOM     25  C   UNL     1      10.939  15.008  18.867  0.00  0.00    +0.000 C 
ATOM     26  C   UNL     1      12.062  15.575  19.732  0.00  0.00    +0.000 C 
ATOM     27  C   UNL     1      11.503  16.379  20.906  0.00  0.00    +0.000 C 
ATOM     28  C   UNL     1      10.481  15.568  21.700  0.00  0.00    +0.000 C 
ATOM     29  C   UNL     1       9.390  14.984  20.799  0.00  0.00    +0.000 C 
ENDBRANCH  21  24
ENDBRANCH  17  18
ENDBRANCH  16  17
ENDBRANCH   3  16
TORSDOF 5
ENDMDL
MODEL 2
REMARK VINA RESULT:      -8.5      1.280      1.806
REMARK  Name = 
REMARK  5 active torsions:
REMARK  status: ('A' for Active; 'I' for Inactive)
REMARK    1  A    between atoms: C_2  and  C_18
REMARK    2  A    between atoms: N_3  and  C_4
REMARK    3  A    between atoms: C_4  and  C_5
REMARK    4  A    between atoms: C_5  and  C_6
REMARK    5  A    between atoms: C_9  and  N_10
REMARK                            x       y       z     vdW  Elec       q    Type
REMARK                         _______ _______ _______ _____ _____    ______ ____
ROOT
ATOM      1  O   UNL     1       7.498   6.088  16.299  0.00  0.00    +0.000 OA
ATOM      2  C   UNL     1       6.745   6.498  17.174  0.00  0.00    +0.000 C 
ATOM      3  N   UNL     1       6.907   7.713  17.814  0.00  0.00    +0.000 N 
ATOM      4  H   UNL     1       6.349   7.885  18.638  0.00  0.00    +0.000 HD
ENDROOT
BRANCH   2   5
ATOM      5  C   UNL     1       5.611   5.756  17.674  0.00  0.00    +0.000 A 
ATOM      6  C   UNL     1       4.685   5.020  16.957  0.00  0.00    +0.000 A 
ATOM      7  C   UNL     1       3.735   4.488  17.849  0.00  0.00    +0.000 A 
ATOM      8  C   UNL     1       2.608   3.669  17.672  0.00  0.00    +0.000 A 
ATOM      9  C   UNL     1       1.800   3.384  18.770  0.00  0.00    +0.000 A 
ATOM     10 CL   UNL     1       0.421   2.375  18.552  0.00  0.00    +0.000 Cl
ATOM     11  C   UNL     1       2.093   3.907  20.028  0.00  0.00    +0.000 A 
ATOM     12  C   UNL     1       3.242   4.688  20.237  0.00  0.00    +0.000 A 
ATOM     13  C   UNL     1       4.059   4.949  19.130  0.00  0.00    +0.000 A 
ATOM     14  N   UNL     1       5.259   5.630  19.005  0.00  0.00    +0.000 N 
ATOM     15  H   UNL     1       5.791   6.019  19.773  0.00  0.00    +0.000 HD
ENDBRANCH   2   5
BRANCH   3  16
ATOM     16  C   UNL     1       7.940   8.688  17.508  0.00  0.00    +0.000 C 
BRANCH  16  17
ATOM     17  C   UNL     1       8.723   9.114  18.752  0.00  0.00    +0.000 C 
BRANCH  17  18
ATOM     18  C   UNL     1       9.177  10.551  18.681  0.00  0.00    +0.000 A 
ATOM     19  C   UNL     1      10.180  11.037  19.521  0.00  0.00    +0.000 A 
ATOM     20  C   UNL     1      10.576  12.382  19.458  0.00  0.00    +0.000 A 
ATOM     21  C   UNL     1       9.992  13.292  18.564  0.00  0.00    +0.000 A 
ATOM     22  C   UNL     1       8.992  12.780  17.726  0.00  0.00    +0.000 A 
ATOM     23  C   UNL     1       8.587  11.437  17.779  0.00  0.00    +0.000 A 
BRANCH  21  24
ATOM     24  N   UNL     1      10.378  14.620  18.521  0.00  0.00    +0.000 N 
ATOM     25  C   UNL     1       9.837  15.620  19.445  0.00  0.00    +0.000 C 
ATOM     26  C   UNL     1       9.181  16.747  18.649  0.00  0.00    +0.000 C 
ATOM     27  C   UNL     1      10.150  17.336  17.624  0.00  0.00    +0.000 C 
ATOM     28  C   UNL     1      10.757  16.247  16.741  0.00  0.00    +0.000 C 
ATOM     29  C   UNL     1      11.373  15.116  17.568  0.00  0.00    +0.000 C 
ENDBRANCH  21  24
ENDBRANCH  17  18
ENDBRANCH  16  17
ENDBRANCH   3  16
TORSDOF 5
ENDMDL
MODEL 3
REMARK VINA RESULT:      -8.5      1.500      2.184
REMARK  Name = 
REMARK  5 active torsions:
REMARK  status: ('A' for Active; 'I' for Inactive)
REMARK    1  A    between atoms: C_2  and  C_18
REMARK    2  A    between atoms: N_3  and  C_4
REMARK    3  A    between atoms: C_4  and  C_5
REMARK    4  A    between atoms: C_5  and  C_6
REMARK    5  A    between atoms: C_9  and  N_10
REMARK                            x       y       z     vdW  Elec       q    Type
REMARK                         _______ _______ _______ _____ _____    ______ ____
ROOT
ATOM      1  O   UNL     1       7.579   6.121  16.497  0.00  0.00    +0.000 OA
ATOM      2  C   UNL     1       6.815   6.643  17.300  0.00  0.00    +0.000 C 
ATOM      3  N   UNL     1       7.013   7.902  17.836  0.00  0.00    +0.000 N 
ATOM      4  H   UNL     1       6.434   8.174  18.617  0.00  0.00    +0.000 HD
ENDROOT
BRANCH   2   5
ATOM      5  C   UNL     1       5.626   6.003  17.814  0.00  0.00    +0.000 A 
ATOM      6  C   UNL     1       5.493   5.230  18.953  0.00  0.00    +0.000 A 
ATOM      7  C   UNL     1       4.161   4.788  19.051  0.00  0.00    +0.000 A 
ATOM      8  C   UNL     1       3.479   4.004  19.996  0.00  0.00    +0.000 A 
ATOM      9  C   UNL     1       2.150   3.660  19.757  0.00  0.00    +0.000 A 
ATOM     10 CL   UNL     1       1.314   2.702  20.918  0.00  0.00    +0.000 Cl
ATOM     11  C   UNL     1       1.502   4.076  18.596  0.00  0.00    +0.000 A 
ATOM     12  C   UNL     1       2.150   4.903  17.662  0.00  0.00    +0.000 A 
ATOM     13  C   UNL     1       3.478   5.260  17.924  0.00  0.00    +0.000 A 
ATOM     14  N   UNL     1       4.367   6.079  17.247  0.00  0.00    +0.000 N 
ATOM     15  H   UNL     1       4.145   6.628  16.427  0.00  0.00    +0.000 HD
ENDBRANCH   2   5
BRANCH   3  16
ATOM     16  C   UNL     1       8.106   8.795  17.489  0.00  0.00    +0.000 C 
BRANCH  16  17
ATOM     17  C   UNL     1       8.915   9.226  18.716  0.00  0.00    +0.000 C 
BRANCH  17  18
ATOM     18  C   UNL     1       9.306  10.682  18.664  0.00  0.00    +0.000 A 
ATOM     19  C   UNL     1      10.380  11.171  19.408  0.00  0.00    +0.000 A 
ATOM     20  C   UNL     1      10.717  12.533  19.366  0.00  0.00    +0.000 A 
ATOM     21  C   UNL     1      10.002  13.457  18.589  0.00  0.00    +0.000 A 
ATOM     22  C   UNL     1       8.931  12.941  17.845  0.00  0.00    +0.000 A 
ATOM     23  C   UNL     1       8.584  11.582  17.878  0.00  0.00    +0.000 A 
BRANCH  21  24
ATOM     24  N   UNL     1      10.332  14.800  18.567  0.00  0.00    +0.000 N 
ATOM     25  C   UNL     1       9.372  15.846  18.929  0.00  0.00    +0.000 C 
ATOM     26  C   UNL     1       9.212  16.817  17.760  0.00  0.00    +0.000 C 
ATOM     27  C   UNL     1      10.564  17.371  17.314  0.00  0.00    +0.000 C 
ATOM     28  C   UNL     1      11.561  16.248  17.033  0.00  0.00    +0.000 C 
ATOM     29  C   UNL     1      11.671  15.272  18.207  0.00  0.00    +0.000 C 
ENDBRANCH  21  24
ENDBRANCH  17  18
ENDBRANCH  16  17
ENDBRANCH   3  16
TORSDOF 5
ENDMDL
MODEL 4
REMARK VINA RESULT:      -8.3      3.681     10.519
REMARK  Name = 
REMARK  5 active torsions:
REMARK  status: ('A' for Active; 'I' for Inactive)
REMARK    1  A    between atoms: C_2  and  C_18
REMARK    2  A    between atoms: N_3  and  C_4
REMARK    3  A    between atoms: C_4  and  C_5
REMARK    4  A    between atoms: C_5  and  C_6
REMARK    5  A    between atoms: C_9  and  N_10
REMARK                            x       y       z     vdW  Elec       q    Type
REMARK                         _______ _______ _______ _____ _____    ______ ____
ROOT
ATOM      1  O   UNL     1       7.671   6.493  18.679  0.00  0.00    +0.000 OA
ATOM      2  C   UNL     1       7.892   7.386  17.870  0.00  0.00    +0.000 C 
ATOM      3  N   UNL     1       7.772   7.226  16.502  0.00  0.00    +0.000 N 
ATOM      4  H   UNL     1       8.145   7.955  15.911  0.00  0.00    +0.000 HD
ENDROOT
BRANCH   2   5
ATOM      5  C   UNL     1       8.336   8.712  18.235  0.00  0.00    +0.000 A 
ATOM      6  C   UNL     1       8.183   9.892  17.529  0.00  0.00    +0.000 A 
ATOM      7  C   UNL     1       8.794  10.936  18.248  0.00  0.00    +0.000 A 
ATOM      8  C   UNL     1       8.923  12.314  18.011  0.00  0.00    +0.000 A 
ATOM      9  C   UNL     1       9.683  13.083  18.890  0.00  0.00    +0.000 A 
ATOM     10 CL   UNL     1       9.837  14.774  18.601  0.00  0.00    +0.000 Cl
ATOM     11  C   UNL     1      10.316  12.501  19.986  0.00  0.00    +0.000 A 
ATOM     12  C   UNL     1      10.159  11.133  20.269  0.00  0.00    +0.000 A 
ATOM     13  C   UNL     1       9.375  10.375  19.391  0.00  0.00    +0.000 A 
ATOM     14  N   UNL     1       8.991   9.043  19.407  0.00  0.00    +0.000 N 
ATOM     15  H   UNL     1       9.193   8.387  20.150  0.00  0.00    +0.000 HD
ENDBRANCH   2   5
BRANCH   3  16
ATOM     16  C   UNL     1       7.319   6.014  15.840  0.00  0.00    +0.000 C 
BRANCH  16  17
ATOM     17  C   UNL     1       5.814   6.034  15.559  0.00  0.00    +0.000 C 
BRANCH  17  18
ATOM     18  C   UNL     1       5.033   5.219  16.560  0.00  0.00    +0.000 A 
ATOM     19  C   UNL     1       4.936   3.832  16.448  0.00  0.00    +0.000 A 
ATOM     20  C   UNL     1       4.187   3.090  17.374  0.00  0.00    +0.000 A 
ATOM     21  C   UNL     1       3.506   3.696  18.441  0.00  0.00    +0.000 A 
ATOM     22  C   UNL     1       3.624   5.089  18.537  0.00  0.00    +0.000 A 
ATOM     23  C   UNL     1       4.370   5.842  17.618  0.00  0.00    +0.000 A 
BRANCH  21  24
ATOM     24  N   UNL     1       2.757   2.958  19.340  0.00  0.00    +0.000 N 
ATOM     25  C   UNL     1       1.335   2.678  19.126  0.00  0.00    +0.000 C 
ATOM     26  C   UNL     1       0.527   3.208  20.309  0.00  0.00    +0.000 C 
ATOM     27  C   UNL     1       1.057   2.654  21.631  0.00  0.00    +0.000 C 
ATOM     28  C   UNL     1       2.559   2.890  21.772  0.00  0.00    +0.000 C 
ATOM     29  C   UNL     1       3.336   2.381  20.555  0.00  0.00    +0.000 C 
ENDBRANCH  21  24
ENDBRANCH  17  18
ENDBRANCH  16  17
ENDBRANCH   3  16
TORSDOF 5
ENDMDL
MODEL 5
REMARK VINA RESULT:      -8.2      1.375      1.957
REMARK  Name = 
REMARK  5 active torsions:
REMARK  status: ('A' for Active; 'I' for Inactive)
REMARK    1  A    between atoms: C_2  and  C_18
REMARK    2  A    between atoms: N_3  and  C_4
REMARK    3  A    between atoms: C_4  and  C_5
REMARK    4  A    between atoms: C_5  and  C_6
REMARK    5  A    between atoms: C_9  and  N_10
REMARK                            x       y       z     vdW  Elec       q    Type
REMARK                         _______ _______ _______ _____ _____    ______ ____
ROOT
ATOM      1  O   UNL     1       7.817   5.593  20.187  0.00  0.00    +0.000 OA
ATOM      2  C   UNL     1       7.046   5.788  19.255  0.00  0.00    +0.000 C 
ATOM      3  N   UNL     1       7.204   6.803  18.330  0.00  0.00    +0.000 N 
ATOM      4  H   UNL     1       6.431   6.996  17.709  0.00  0.00    +0.000 HD
ENDROOT
BRANCH   2   5
ATOM      5  C   UNL     1       5.855   5.004  19.017  0.00  0.00    +0.000 A 
ATOM      6  C   UNL     1       4.589   5.187  19.542  0.00  0.00    +0.000 A 
ATOM      7  C   UNL     1       3.743   4.171  19.058  0.00  0.00    +0.000 A 
ATOM      8  C   UNL     1       2.381   3.886  19.250  0.00  0.00    +0.000 A 
ATOM      9  C   UNL     1       1.848   2.726  18.693  0.00  0.00    +0.000 A 
ATOM     10 CL   UNL     1       0.177   2.381  18.924  0.00  0.00    +0.000 Cl
ATOM     11  C   UNL     1       2.648   1.851  17.961  0.00  0.00    +0.000 A 
ATOM     12  C   UNL     1       4.001   2.142  17.715  0.00  0.00    +0.000 A 
ATOM     13  C   UNL     1       4.520   3.321  18.262  0.00  0.00    +0.000 A 
ATOM     14  N   UNL     1       5.772   3.911  18.173  0.00  0.00    +0.000 N 
ATOM     15  H   UNL     1       6.536   3.572  17.604  0.00  0.00    +0.000 HD
ENDBRANCH   2   5
BRANCH   3  16
ATOM     16  C   UNL     1       8.319   7.735  18.295  0.00  0.00    +0.000 C 
BRANCH  16  17
ATOM     17  C   UNL     1       7.931   9.082  17.678  0.00  0.00    +0.000 C 
BRANCH  17  18
ATOM     18  C   UNL     1       8.677  10.235  18.300  0.00  0.00    +0.000 A 
ATOM     19  C   UNL     1       8.706  11.492  17.694  0.00  0.00    +0.000 A 
ATOM     20  C   UNL     1       9.423  12.549  18.275  0.00  0.00    +0.000 A 
ATOM     21  C   UNL     1      10.139  12.399  19.472  0.00  0.00    +0.000 A 
ATOM     22  C   UNL     1      10.089  11.130  20.066  0.00  0.00    +0.000 A 
ATOM     23  C   UNL     1       9.376  10.065  19.497  0.00  0.00    +0.000 A 
BRANCH  21  24
ATOM     24  N   UNL     1      10.856  13.443  20.028  0.00  0.00    +0.000 N 
ATOM     25  C   UNL     1      10.358  14.212  21.171  0.00  0.00    +0.000 C 
ATOM     26  C   UNL     1      10.277  15.690  20.795  0.00  0.00    +0.000 C 
ATOM     27  C   UNL     1      11.618  16.199  20.266  0.00  0.00    +0.000 C 
ATOM     28  C   UNL     1      12.142  15.317  19.135  0.00  0.00    +0.000 C 
ATOM     29  C   UNL     1      12.176  13.838  19.531  0.00  0.00    +0.000 C 
ENDBRANCH  21  24
ENDBRANCH  17  18
ENDBRANCH  16  17
ENDBRANCH   3  16
TORSDOF 5
ENDMDL
MODEL 6
REMARK VINA RESULT:      -8.2      0.763      1.216
REMARK  Name = 
REMARK  5 active torsions:
REMARK  status: ('A' for Active; 'I' for Inactive)
REMARK    1  A    between atoms: C_2  and  C_18
REMARK    2  A    between atoms: N_3  and  C_4
REMARK    3  A    between atoms: C_4  and  C_5
REMARK    4  A    between atoms: C_5  and  C_6
REMARK    5  A    between atoms: C_9  and  N_10
REMARK                            x       y       z     vdW  Elec       q    Type
REMARK                         _______ _______ _______ _____ _____    ______ ____
ROOT
ATOM      1  O   UNL     1       7.491   6.169  16.300  0.00  0.00    +0.000 OA
ATOM      2  C   UNL     1       7.005   6.109  17.422  0.00  0.00    +0.000 C 
ATOM      3  N   UNL     1       7.453   6.863  18.491  0.00  0.00    +0.000 N 
ATOM      4  H   UNL     1       7.114   6.619  19.410  0.00  0.00    +0.000 HD
ENDROOT
BRANCH   2   5
ATOM      5  C   UNL     1       5.922   5.224  17.785  0.00  0.00    +0.000 A 
ATOM      6  C   UNL     1       4.616   5.237  17.329  0.00  0.00    +0.000 A 
ATOM      7  C   UNL     1       3.899   4.210  17.971  0.00  0.00    +0.000 A 
ATOM      8  C   UNL     1       2.569   3.768  17.879  0.00  0.00    +0.000 A 
ATOM      9  C   UNL     1       2.130   2.760  18.736  0.00  0.00    +0.000 A 
ATOM     10 CL   UNL     1       0.501   2.216  18.618  0.00  0.00    +0.000 Cl
ATOM     11  C   UNL     1       2.989   2.199  19.679  0.00  0.00    +0.000 A 
ATOM     12  C   UNL     1       4.336   2.592  19.755  0.00  0.00    +0.000 A 
ATOM     13  C   UNL     1       4.771   3.590  18.874  0.00  0.00    +0.000 A 
ATOM     14  N   UNL     1       6.016   4.160  18.662  0.00  0.00    +0.000 N 
ATOM     15  H   UNL     1       6.874   3.869  19.114  0.00  0.00    +0.000 HD
ENDBRANCH   2   5
BRANCH   3  16
ATOM     16  C   UNL     1       8.509   7.859  18.426  0.00  0.00    +0.000 C 
BRANCH  16  17
ATOM     17  C   UNL     1       8.082   9.109  17.651  0.00  0.00    +0.000 C 
BRANCH  17  18
ATOM     18  C   UNL     1       8.630  10.376  18.258  0.00  0.00    +0.000 A 
ATOM     19  C   UNL     1       9.300  10.363  19.482  0.00  0.00    +0.000 A 
ATOM     20  C   UNL     1       9.785  11.554  20.044  0.00  0.00    +0.000 A 
ATOM     21  C   UNL     1       9.622  12.798  19.416  0.00  0.00    +0.000 A 
ATOM     22  C   UNL     1       8.953  12.786  18.185  0.00  0.00    +0.000 A 
ATOM     23  C   UNL     1       8.463  11.602  17.612  0.00  0.00    +0.000 A 
BRANCH  21  24
ATOM     24  N   UNL     1      10.089  13.969  19.987  0.00  0.00    +0.000 N 
ATOM     25  C   UNL     1      10.391  14.075  21.416  0.00  0.00    +0.000 C 
ATOM     26  C   UNL     1       9.559  15.198  22.031  0.00  0.00    +0.000 C 
ATOM     27  C   UNL     1       9.760  16.511  21.276  0.00  0.00    +0.000 C 
ATOM     28  C   UNL     1       9.521  16.334  19.777  0.00  0.00    +0.000 C 
ATOM     29  C   UNL     1      10.341  15.178  19.199  0.00  0.00    +0.000 C 
ENDBRANCH  21  24
ENDBRANCH  17  18
ENDBRANCH  16  17
ENDBRANCH   3  16
TORSDOF 5
ENDMDL
MODEL 7
REMARK VINA RESULT:      -8.2      5.524      8.591
REMARK  Name = 
REMARK  5 active torsions:
REMARK  status: ('A' for Active; 'I' for Inactive)
REMARK    1  A    between atoms: C_2  and  C_18
REMARK    2  A    between atoms: N_3  and  C_4
REMARK    3  A    between atoms: C_4  and  C_5
REMARK    4  A    between atoms: C_5  and  C_6
REMARK    5  A    between atoms: C_9  and  N_10
REMARK                            x       y       z     vdW  Elec       q    Type
REMARK                         _______ _______ _______ _____ _____    ______ ____
ROOT
ATOM      1  O   UNL     1       2.254   4.444  21.734  0.00  0.00    +0.000 OA
ATOM      2  C   UNL     1       1.669   4.878  20.749  0.00  0.00    +0.000 C 
ATOM      3  N   UNL     1       1.006   4.076  19.838  0.00  0.00    +0.000 N 
ATOM      4  H   UNL     1       0.709   4.500  18.971  0.00  0.00    +0.000 HD
ENDROOT
BRANCH   2   5
ATOM      5  C   UNL     1       1.618   6.277  20.394  0.00  0.00    +0.000 A 
ATOM      6  C   UNL     1       1.090   7.328  21.122  0.00  0.00    +0.000 A 
ATOM      7  C   UNL     1       1.233   8.515  20.380  0.00  0.00    +0.000 A 
ATOM      8  C   UNL     1       0.894   9.853  20.639  0.00  0.00    +0.000 A 
ATOM      9  C   UNL     1       1.088  10.805  19.640  0.00  0.00    +0.000 A 
ATOM     10 CL   UNL     1       0.676  12.446  19.960  0.00  0.00    +0.000 Cl
ATOM     11  C   UNL     1       1.602  10.443  18.397  0.00  0.00    +0.000 A 
ATOM     12  C   UNL     1       1.994   9.118  18.134  0.00  0.00    +0.000 A 
ATOM     13  C   UNL     1       1.815   8.176  19.153  0.00  0.00    +0.000 A 
ATOM     14  N   UNL     1       2.131   6.828  19.234  0.00  0.00    +0.000 N 
ATOM     15  H   UNL     1       2.631   6.304  18.528  0.00  0.00    +0.000 HD
ENDBRANCH   2   5
BRANCH   3  16
ATOM     16  C   UNL     1       0.862   2.634  19.945  0.00  0.00    +0.000 C 
BRANCH  16  17
ATOM     17  C   UNL     1       1.843   1.884  19.039  0.00  0.00    +0.000 C 
BRANCH  17  18
ATOM     18  C   UNL     1       3.024   2.735  18.642  0.00  0.00    +0.000 A 
ATOM     19  C   UNL     1       4.143   2.852  19.468  0.00  0.00    +0.000 A 
ATOM     20  C   UNL     1       5.224   3.665  19.095  0.00  0.00    +0.000 A 
ATOM     21  C   UNL     1       5.234   4.392  17.894  0.00  0.00    +0.000 A 
ATOM     22  C   UNL     1       4.103   4.253  17.079  0.00  0.00    +0.000 A 
ATOM     23  C   UNL     1       3.016   3.443  17.439  0.00  0.00    +0.000 A 
BRANCH  21  24
ATOM     24  N   UNL     1       6.298   5.204  17.544  0.00  0.00    +0.000 N 
ATOM     25  C   UNL     1       7.628   5.049  18.139  0.00  0.00    +0.000 C 
ATOM     26  C   UNL     1       8.046   6.360  18.801  0.00  0.00    +0.000 C 
ATOM     27  C   UNL     1       7.959   7.527  17.818  0.00  0.00    +0.000 C 
ATOM     28  C   UNL     1       6.584   7.598  17.156  0.00  0.00    +0.000 C 
ATOM     29  C   UNL     1       6.179   6.258  16.534  0.00  0.00    +0.000 C 
ENDBRANCH  21  24
ENDBRANCH  17  18
ENDBRANCH  16  17
ENDBRANCH   3  16
TORSDOF 5
ENDMDL
MODEL 8
REMARK VINA RESULT:      -8.2      7.715      9.531
REMARK  Name = 
REMARK  5 active torsions:
REMARK  status: ('A' for Active; 'I' for Inactive)
REMARK    1  A    between atoms: C_2  and  C_18
REMARK    2  A    between atoms: N_3  and  C_4
REMARK    3  A    between atoms: C_4  and  C_5
REMARK    4  A    between atoms: C_5  and  C_6
REMARK    5  A    between atoms: C_9  and  N_10
REMARK                            x       y       z     vdW  Elec       q    Type
REMARK                         _______ _______ _______ _____ _____    ______ ____
ROOT
ATOM      1  O   UNL     1       2.347   4.770  21.050  0.00  0.00    +0.000 OA
ATOM      2  C   UNL     1       2.667   5.622  20.229  0.00  0.00    +0.000 C 
ATOM      3  N   UNL     1       2.114   6.888  20.186  0.00  0.00    +0.000 N 
ATOM      4  H   UNL     1       2.306   7.455  19.373  0.00  0.00    +0.000 HD
ENDROOT
BRANCH   2   5
ATOM      5  C   UNL     1       3.639   5.407  19.182  0.00  0.00    +0.000 A 
ATOM      6  C   UNL     1       3.417   5.241  17.827  0.00  0.00    +0.000 A 
ATOM      7  C   UNL     1       4.651   5.032  17.184  0.00  0.00    +0.000 A 
ATOM      8  C   UNL     1       5.010   4.827  15.842  0.00  0.00    +0.000 A 
ATOM      9  C   UNL     1       6.340   4.554  15.532  0.00  0.00    +0.000 A 
ATOM     10 CL   UNL     1       6.779   4.308  13.884  0.00  0.00    +0.000 Cl
ATOM     11  C   UNL     1       7.306   4.473  16.532  0.00  0.00    +0.000 A 
ATOM     12  C   UNL     1       6.978   4.723  17.876  0.00  0.00    +0.000 A 
ATOM     13  C   UNL     1       5.642   5.019  18.173  0.00  0.00    +0.000 A 
ATOM     14  N   UNL     1       5.009   5.352  19.360  0.00  0.00    +0.000 N 
ATOM     15  H   UNL     1       5.474   5.497  20.247  0.00  0.00    +0.000 HD
ENDBRANCH   2   5
BRANCH   3  16
ATOM     16  C   UNL     1       1.132   7.403  21.125  0.00  0.00    +0.000 C 
BRANCH  16  17
ATOM     17  C   UNL     1       1.610   8.680  21.823  0.00  0.00    +0.000 C 
BRANCH  17  18
ATOM     18  C   UNL     1       0.513   9.706  21.958  0.00  0.00    +0.000 A 
ATOM     19  C   UNL     1      -0.246   9.807  23.125  0.00  0.00    +0.000 A 
ATOM     20  C   UNL     1      -1.278  10.752  23.227  0.00  0.00    +0.000 A 
ATOM     21  C   UNL     1      -1.597  11.627  22.177  0.00  0.00    +0.000 A 
ATOM     22  C   UNL     1      -0.817  11.512  21.018  0.00  0.00    +0.000 A 
ATOM     23  C   UNL     1       0.218  10.572  20.904  0.00  0.00    +0.000 A 
BRANCH  21  24
ATOM     24  N   UNL     1      -2.627  12.545  22.282  0.00  0.00    +0.000 N 
ATOM     25  C   UNL     1      -2.995  13.163  23.558  0.00  0.00    +0.000 C 
ATOM     26  C   UNL     1      -4.464  12.871  23.861  0.00  0.00    +0.000 C 
ATOM     27  C   UNL     1      -5.363  13.302  22.703  0.00  0.00    +0.000 C 
ATOM     28  C   UNL     1      -4.890  12.704  21.379  0.00  0.00    +0.000 C 
ATOM     29  C   UNL     1      -3.407  12.983  21.122  0.00  0.00    +0.000 C 
ENDBRANCH  21  24
ENDBRANCH  17  18
ENDBRANCH  16  17
ENDBRANCH   3  16
TORSDOF 5
ENDMDL
MODEL 9
REMARK VINA RESULT:      -8.1      7.988      9.819
REMARK  Name = 
REMARK  5 active torsions:
REMARK  status: ('A' for Active; 'I' for Inactive)
REMARK    1  A    between atoms: C_2  and  C_18
REMARK    2  A    between atoms: N_3  and  C_4
REMARK    3  A    between atoms: C_4  and  C_5
REMARK    4  A    between atoms: C_5  and  C_6
REMARK    5  A    between atoms: C_9  and  N_10
REMARK                            x       y       z     vdW  Elec       q    Type
REMARK                         _______ _______ _______ _____ _____    ______ ____
ROOT
ATOM      1  O   UNL     1       1.881   5.077  20.778  0.00  0.00    +0.000 OA
ATOM      2  C   UNL     1       2.425   5.961  20.127  0.00  0.00    +0.000 C 
ATOM      3  N   UNL     1       2.085   7.298  20.218  0.00  0.00    +0.000 N 
ATOM      4  H   UNL     1       2.459   7.924  19.520  0.00  0.00    +0.000 HD
ENDROOT
BRANCH   2   5
ATOM      5  C   UNL     1       3.471   5.720  19.160  0.00  0.00    +0.000 A 
ATOM      6  C   UNL     1       3.376   5.710  17.780  0.00  0.00    +0.000 A 
ATOM      7  C   UNL     1       4.639   5.405  17.239  0.00  0.00    +0.000 A 
ATOM      8  C   UNL     1       5.112   5.280  15.922  0.00  0.00    +0.000 A 
ATOM      9  C   UNL     1       6.426   4.868  15.712  0.00  0.00    +0.000 A 
ATOM     10 CL   UNL     1       7.006   4.721  14.097  0.00  0.00    +0.000 Cl
ATOM     11  C   UNL     1       7.264   4.575  16.786  0.00  0.00    +0.000 A 
ATOM     12  C   UNL     1       6.827   4.740  18.111  0.00  0.00    +0.000 A 
ATOM     13  C   UNL     1       5.511   5.176  18.309  0.00  0.00    +0.000 A 
ATOM     14  N   UNL     1       4.798   5.476  19.460  0.00  0.00    +0.000 N 
ATOM     15  H   UNL     1       5.180   5.479  20.397  0.00  0.00    +0.000 HD
ENDBRANCH   2   5
BRANCH   3  16
ATOM     16  C   UNL     1       1.089   7.847  21.123  0.00  0.00    +0.000 C 
BRANCH  16  17
ATOM     17  C   UNL     1       1.481   9.231  21.646  0.00  0.00    +0.000 C 
BRANCH  17  18
ATOM     18  C   UNL     1       0.284  10.120  21.871  0.00  0.00    +0.000 A 
ATOM     19  C   UNL     1      -0.155  11.008  20.887  0.00  0.00    +0.000 A 
ATOM     20  C   UNL     1      -1.257  11.845  21.120  0.00  0.00    +0.000 A 
ATOM     21  C   UNL     1      -1.961  11.835  22.334  0.00  0.00    +0.000 A 
ATOM     22  C   UNL     1      -1.507  10.930  23.303  0.00  0.00    +0.000 A 
ATOM     23  C   UNL     1      -0.407  10.088  23.084  0.00  0.00    +0.000 A 
BRANCH  21  24
ATOM     24  N   UNL     1      -3.037  12.675  22.559  0.00  0.00    +0.000 N 
ATOM     25  C   UNL     1      -3.412  13.119  23.903  0.00  0.00    +0.000 C 
ATOM     26  C   UNL     1      -4.857  12.714  24.189  0.00  0.00    +0.000 C 
ATOM     27  C   UNL     1      -5.800  13.227  23.101  0.00  0.00    +0.000 C 
ATOM     28  C   UNL     1      -5.322  12.816  21.710  0.00  0.00    +0.000 C 
ATOM     29  C   UNL     1      -3.860  13.203  21.469  0.00  0.00    +0.000 C 
ENDBRANCH  21  24
ENDBRANCH  17  18
ENDBRANCH  16  17
ENDBRANCH   3  16
TORSDOF 5
ENDMDL
