MODEL 1
REMARK VINA RESULT:      -6.8      0.000      0.000
REMARK  Name = 
REMARK  11 active torsions:
REMARK  status: ('A' for Active; 'I' for Inactive)
REMARK    1  A    between atoms: C_1  and  O_2
REMARK    2  A    between atoms: O_2  and  C_3
REMARK    3  A    between atoms: C_3  and  C_4
REMARK    4  A    between atoms: C_4  and  N_5
REMARK    5  A    between atoms: C_6  and  C_7
REMARK    6  A    between atoms: C_7  and  N_8
REMARK    7  A    between atoms: N_11  and  C_12
REMARK    8  A    between atoms: C_15  and  O_16
REMARK    9  A    between atoms: O_16  and  C_17
REMARK   10  A    between atoms: N_27  and  C_28
REMARK   11  A    between atoms: N_31  and  C_32
REMARK                            x       y       z     vdW  Elec       q    Type
REMARK                         _______ _______ _______ _____ _____    ______ ____
ROOT
ATOM      1  N   UNL     1       0.399  13.825  20.194  0.00  0.00    +0.000 N 
ATOM      2  C   UNL     1       1.473  12.928  20.107  0.00  0.00    +0.000 A 
ATOM      3  N   UNL     1       2.483  13.525  19.501  0.00  0.00    +0.000 NA
ATOM      4  C   UNL     1       2.033  14.717  19.083  0.00  0.00    +0.000 A 
ATOM      5  C   UNL     1       0.758  14.961  19.483  0.00  0.00    +0.000 A 
ATOM      6  C   UNL     1       0.086  16.179  19.120  0.00  0.00    +0.000 A 
ATOM      7  O   UNL     1      -1.077  16.425  19.419  0.00  0.00    +0.000 OA
ATOM      8  N   UNL     1       0.888  17.037  18.341  0.00  0.00    +0.000 N 
ATOM      9  C   UNL     1       0.325  18.286  17.861  0.00  0.00    +0.000 C 
ATOM     10  C   UNL     1       2.186  16.753  17.875  0.00  0.00    +0.000 A 
ATOM     11  O   UNL     1       2.777  17.525  17.108  0.00  0.00    +0.000 OA
ATOM     12  N   UNL     1       2.757  15.565  18.292  0.00  0.00    +0.000 N 
ATOM     13  C   UNL     1       4.058  15.142  17.811  0.00  0.00    +0.000 C 
ENDROOT
BRANCH   1  14
ATOM     14  C   UNL     1      -0.866  13.608  20.875  0.00  0.00    +0.000 C 
BRANCH  14  15
ATOM     15  C   UNL     1      -0.833  13.938  22.367  0.00  0.00    +0.000 C 
BRANCH  15  17
ATOM     16  C   UNL     1      -1.495  11.719  22.825  0.00  0.00    +0.000 C 
ATOM     17  O   UNL     1      -0.572  12.758  23.125  0.00  0.00    +0.000 OA
ENDBRANCH  15  17
ENDBRANCH  14  15
ENDBRANCH   1  14
BRANCH   2  18
ATOM     18  C   UNL     1       1.539  11.495  20.624  0.00  0.00    +0.000 C 
BRANCH  18  19
ATOM     19  N   UNL     1       0.575  10.577  19.965  0.00  0.00    +0.000 NA
ATOM     20  C   UNL     1       0.781  10.392  18.505  0.00  0.00    +0.000 C 
ATOM     21  C   UNL     1       2.005   9.536  18.107  0.00  0.00    +0.000 C 
ATOM     22  N   UNL     1       1.851   8.196  18.687  0.00  0.00    +0.000 N 
ATOM     23  C   UNL     1       1.627   8.204  20.152  0.00  0.00    +0.000 C 
ATOM     24  C   UNL     1       0.530   9.224  20.571  0.00  0.00    +0.000 C 
BRANCH  22  25
ATOM     25  C   UNL     1       2.621   7.137  18.208  0.00  0.00    +0.000 A 
ATOM     26  C   UNL     1       2.298   5.784  18.367  0.00  0.00    +0.000 A 
ATOM     27  C   UNL     1       3.106   4.771  17.812  0.00  0.00    +0.000 A 
ATOM     28  C   UNL     1       4.260   5.095  17.101  0.00  0.00    +0.000 A 
ATOM     29  C   UNL     1       4.636   6.426  17.004  0.00  0.00    +0.000 A 
ATOM     30  C   UNL     1       3.825   7.427  17.546  0.00  0.00    +0.000 A 
BRANCH  28  31
ATOM     31  O   UNL     1       4.981   4.047  16.589  0.00  0.00    +0.000 OA
ATOM     32  C   UNL     1       5.523   4.266  15.287  0.00  0.00    +0.000 C 
ENDBRANCH  28  31
ENDBRANCH  22  25
ENDBRANCH  18  19
ENDBRANCH   2  18
TORSDOF 7
ENDMDL
MODEL 2
REMARK VINA RESULT:      -6.8      3.953     10.135
REMARK  Name = 
REMARK  11 active torsions:
REMARK  status: ('A' for Active; 'I' for Inactive)
REMARK    1  A    between atoms: C_1  and  O_2
REMARK    2  A    between atoms: O_2  and  C_3
REMARK    3  A    between atoms: C_3  and  C_4
REMARK    4  A    between atoms: C_4  and  N_5
REMARK    5  A    between atoms: C_6  and  C_7
REMARK    6  A    between atoms: C_7  and  N_8
REMARK    7  A    between atoms: N_11  and  C_12
REMARK    8  A    between atoms: C_15  and  O_16
REMARK    9  A    between atoms: O_16  and  C_17
REMARK   10  A    between atoms: N_27  and  C_28
REMARK   11  A    between atoms: N_31  and  C_32
REMARK                            x       y       z     vdW  Elec       q    Type
REMARK                         _______ _______ _______ _____ _____    ______ ____
ROOT
ATOM      1  N   UNL     1       2.194   7.608  19.344  0.00  0.00    +0.000 N 
ATOM      2  C   UNL     1       1.362   7.402  20.454  0.00  0.00    +0.000 A 
ATOM      3  N   UNL     1       1.608   6.206  20.959  0.00  0.00    +0.000 NA
ATOM      4  C   UNL     1       2.464   5.602  20.123  0.00  0.00    +0.000 A 
ATOM      5  C   UNL     1       2.865   6.416  19.111  0.00  0.00    +0.000 A 
ATOM      6  C   UNL     1       3.770   5.948  18.096  0.00  0.00    +0.000 A 
ATOM      7  O   UNL     1       4.125   6.630  17.141  0.00  0.00    +0.000 OA
ATOM      8  N   UNL     1       4.165   4.609  18.288  0.00  0.00    +0.000 N 
ATOM      9  C   UNL     1       5.043   3.986  17.313  0.00  0.00    +0.000 C 
ATOM     10  C   UNL     1       3.698   3.749  19.301  0.00  0.00    +0.000 A 
ATOM     11  O   UNL     1       4.022   2.555  19.330  0.00  0.00    +0.000 OA
ATOM     12  N   UNL     1       2.844   4.295  20.243  0.00  0.00    +0.000 N 
ATOM     13  C   UNL     1       2.247   3.479  21.283  0.00  0.00    +0.000 C 
ENDROOT
BRANCH   1  14
ATOM     14  C   UNL     1       2.319   8.825  18.561  0.00  0.00    +0.000 C 
BRANCH  14  15
ATOM     15  C   UNL     1       1.150   9.073  17.608  0.00  0.00    +0.000 C 
BRANCH  15  17
ATOM     16  C   UNL     1      -0.994  10.027  17.864  0.00  0.00    +0.000 C 
ATOM     17  O   UNL     1       0.405  10.214  18.032  0.00  0.00    +0.000 OA
ENDBRANCH  15  17
ENDBRANCH  14  15
ENDBRANCH   1  14
BRANCH   2  18
ATOM     18  C   UNL     1       0.339   8.364  21.047  0.00  0.00    +0.000 C 
BRANCH  18  19
ATOM     19  N   UNL     1       0.935   9.401  21.928  0.00  0.00    +0.000 NA
ATOM     20  C   UNL     1       0.972  10.770  21.351  0.00  0.00    +0.000 C 
ATOM     21  C   UNL     1      -0.390  11.497  21.267  0.00  0.00    +0.000 C 
ATOM     22  N   UNL     1      -0.940  11.622  22.622  0.00  0.00    +0.000 N 
ATOM     23  C   UNL     1      -1.037  10.334  23.347  0.00  0.00    +0.000 C 
ATOM     24  C   UNL     1       0.278   9.508  23.252  0.00  0.00    +0.000 C 
BRANCH  22  25
ATOM     25  C   UNL     1      -1.970  12.527  22.875  0.00  0.00    +0.000 A 
ATOM     26  C   UNL     1      -1.968  13.868  22.471  0.00  0.00    +0.000 A 
ATOM     27  C   UNL     1      -3.071  14.708  22.725  0.00  0.00    +0.000 A 
ATOM     28  C   UNL     1      -4.189  14.224  23.402  0.00  0.00    +0.000 A 
ATOM     29  C   UNL     1      -4.172  12.922  23.878  0.00  0.00    +0.000 A 
ATOM     30  C   UNL     1      -3.082  12.090  23.613  0.00  0.00    +0.000 A 
BRANCH  28  31
ATOM     31  O   UNL     1      -5.218  15.109  23.598  0.00  0.00    +0.000 OA
ATOM     32  C   UNL     1      -4.873  16.283  24.334  0.00  0.00    +0.000 C 
ENDBRANCH  28  31
ENDBRANCH  22  25
ENDBRANCH  18  19
ENDBRANCH   2  18
TORSDOF 7
ENDMDL
MODEL 3
REMARK VINA RESULT:      -6.6      3.686      5.042
REMARK  Name = 
REMARK  11 active torsions:
REMARK  status: ('A' for Active; 'I' for Inactive)
REMARK    1  A    between atoms: C_1  and  O_2
REMARK    2  A    between atoms: O_2  and  C_3
REMARK    3  A    between atoms: C_3  and  C_4
REMARK    4  A    between atoms: C_4  and  N_5
REMARK    5  A    between atoms: C_6  and  C_7
REMARK    6  A    between atoms: C_7  and  N_8
REMARK    7  A    between atoms: N_11  and  C_12
REMARK    8  A    between atoms: C_15  and  O_16
REMARK    9  A    between atoms: O_16  and  C_17
REMARK   10  A    between atoms: N_27  and  C_28
REMARK   11  A    between atoms: N_31  and  C_32
REMARK                            x       y       z     vdW  Elec       q    Type
REMARK                         _______ _______ _______ _____ _____    ______ ____
ROOT
ATOM      1  N   UNL     1      -2.858  11.855  19.106  0.00  0.00    +0.000 N 
ATOM      2  C   UNL     1      -1.545  11.499  19.451  0.00  0.00    +0.000 A 
ATOM      3  N   UNL     1      -1.306  11.889  20.690  0.00  0.00    +0.000 NA
ATOM      4  C   UNL     1      -2.373  12.599  21.084  0.00  0.00    +0.000 A 
ATOM      5  C   UNL     1      -3.363  12.610  20.154  0.00  0.00    +0.000 A 
ATOM      6  C   UNL     1      -4.585  13.334  20.378  0.00  0.00    +0.000 A 
ATOM      7  O   UNL     1      -5.488  13.409  19.552  0.00  0.00    +0.000 OA
ATOM      8  N   UNL     1      -4.615  13.987  21.627  0.00  0.00    +0.000 N 
ATOM      9  C   UNL     1      -5.770  14.796  21.973  0.00  0.00    +0.000 C 
ATOM     10  C   UNL     1      -3.562  14.025  22.561  0.00  0.00    +0.000 A 
ATOM     11  O   UNL     1      -3.639  14.712  23.589  0.00  0.00    +0.000 OA
ATOM     12  N   UNL     1      -2.433  13.284  22.265  0.00  0.00    +0.000 N 
ATOM     13  C   UNL     1      -1.263  13.314  23.123  0.00  0.00    +0.000 C 
ENDROOT
BRANCH   1  14
ATOM     14  C   UNL     1      -3.556  11.524  17.876  0.00  0.00    +0.000 C 
BRANCH  14  15
ATOM     15  C   UNL     1      -3.709  10.023  17.634  0.00  0.00    +0.000 C 
BRANCH  15  17
ATOM     16  C   UNL     1      -2.855  10.792  15.572  0.00  0.00    +0.000 C 
ATOM     17  O   UNL     1      -3.094   9.660  16.398  0.00  0.00    +0.000 OA
ENDBRANCH  15  17
ENDBRANCH  14  15
ENDBRANCH   1  14
BRANCH   2  18
ATOM     18  C   UNL     1      -0.520  10.763  18.595  0.00  0.00    +0.000 C 
BRANCH  18  19
ATOM     19  N   UNL     1       0.851  10.771  19.167  0.00  0.00    +0.000 NA
ATOM     20  C   UNL     1       1.049   9.875  20.337  0.00  0.00    +0.000 C 
ATOM     21  C   UNL     1       1.093   8.363  20.021  0.00  0.00    +0.000 C 
ATOM     22  N   UNL     1       2.206   8.107  19.098  0.00  0.00    +0.000 N 
ATOM     23  C   UNL     1       2.162   8.935  17.869  0.00  0.00    +0.000 C 
ATOM     24  C   UNL     1       1.909  10.437  18.183  0.00  0.00    +0.000 C 
BRANCH  22  25
ATOM     25  C   UNL     1       2.683   6.809  18.925  0.00  0.00    +0.000 A 
ATOM     26  C   UNL     1       3.488   6.393  17.856  0.00  0.00    +0.000 A 
ATOM     27  C   UNL     1       3.969   5.071  17.778  0.00  0.00    +0.000 A 
ATOM     28  C   UNL     1       3.641   4.138  18.759  0.00  0.00    +0.000 A 
ATOM     29  C   UNL     1       2.780   4.513  19.779  0.00  0.00    +0.000 A 
ATOM     30  C   UNL     1       2.315   5.828  19.859  0.00  0.00    +0.000 A 
BRANCH  28  31
ATOM     31  O   UNL     1       4.160   2.878  18.606  0.00  0.00    +0.000 OA
ATOM     32  C   UNL     1       3.200   1.821  18.637  0.00  0.00    +0.000 C 
ENDBRANCH  28  31
ENDBRANCH  22  25
ENDBRANCH  18  19
ENDBRANCH   2  18
TORSDOF 7
ENDMDL
MODEL 4
REMARK VINA RESULT:      -6.6      4.432      9.588
REMARK  Name = 
REMARK  11 active torsions:
REMARK  status: ('A' for Active; 'I' for Inactive)
REMARK    1  A    between atoms: C_1  and  O_2
REMARK    2  A    between atoms: O_2  and  C_3
REMARK    3  A    between atoms: C_3  and  C_4
REMARK    4  A    between atoms: C_4  and  N_5
REMARK    5  A    between atoms: C_6  and  C_7
REMARK    6  A    between atoms: C_7  and  N_8
REMARK    7  A    between atoms: N_11  and  C_12
REMARK    8  A    between atoms: C_15  and  O_16
REMARK    9  A    between atoms: O_16  and  C_17
REMARK   10  A    between atoms: N_27  and  C_28
REMARK   11  A    between atoms: N_31  and  C_32
REMARK                            x       y       z     vdW  Elec       q    Type
REMARK                         _______ _______ _______ _____ _____    ______ ____
ROOT
ATOM      1  N   UNL     1       2.737   5.620  18.058  0.00  0.00    +0.000 N 
ATOM      2  C   UNL     1       2.872   6.868  18.685  0.00  0.00    +0.000 A 
ATOM      3  N   UNL     1       3.984   7.442  18.262  0.00  0.00    +0.000 NA
ATOM      4  C   UNL     1       4.619   6.541  17.501  0.00  0.00    +0.000 A 
ATOM      5  C   UNL     1       3.899   5.400  17.334  0.00  0.00    +0.000 A 
ATOM      6  C   UNL     1       4.417   4.301  16.564  0.00  0.00    +0.000 A 
ATOM      7  O   UNL     1       3.824   3.238  16.422  0.00  0.00    +0.000 OA
ATOM      8  N   UNL     1       5.696   4.558  16.033  0.00  0.00    +0.000 N 
ATOM      9  C   UNL     1       6.364   3.519  15.270  0.00  0.00    +0.000 C 
ATOM     10  C   UNL     1       6.466   5.716  16.259  0.00  0.00    +0.000 A 
ATOM     11  O   UNL     1       7.625   5.810  15.835  0.00  0.00    +0.000 OA
ATOM     12  N   UNL     1       5.876   6.726  16.997  0.00  0.00    +0.000 N 
ATOM     13  C   UNL     1       6.608   7.927  17.352  0.00  0.00    +0.000 C 
ENDROOT
BRANCH   1  14
ATOM     14  C   UNL     1       1.610   4.710  18.162  0.00  0.00    +0.000 C 
BRANCH  14  15
ATOM     15  C   UNL     1       1.629   3.839  19.418  0.00  0.00    +0.000 C 
BRANCH  15  17
ATOM     16  C   UNL     1       3.491   2.627  20.216  0.00  0.00    +0.000 C 
ATOM     17  O   UNL     1       2.480   2.711  19.219  0.00  0.00    +0.000 OA
ENDBRANCH  15  17
ENDBRANCH  14  15
ENDBRANCH   1  14
BRANCH   2  18
ATOM     18  C   UNL     1       1.920   7.522  19.680  0.00  0.00    +0.000 C 
BRANCH  18  19
ATOM     19  N   UNL     1       1.947   9.007  19.643  0.00  0.00    +0.000 NA
ATOM     20  C   UNL     1       1.690   9.608  18.308  0.00  0.00    +0.000 C 
ATOM     21  C   UNL     1       0.228   9.533  17.812  0.00  0.00    +0.000 C 
ATOM     22  N   UNL     1      -0.630  10.243  18.769  0.00  0.00    +0.000 N 
ATOM     23  C   UNL     1      -0.487   9.766  20.164  0.00  0.00    +0.000 C 
ATOM     24  C   UNL     1       1.003   9.645  20.592  0.00  0.00    +0.000 C 
BRANCH  22  25
ATOM     25  C   UNL     1      -1.919  10.625  18.399  0.00  0.00    +0.000 A 
ATOM     26  C   UNL     1      -2.641  10.064  17.338  0.00  0.00    +0.000 A 
ATOM     27  C   UNL     1      -3.959  10.474  17.056  0.00  0.00    +0.000 A 
ATOM     28  C   UNL     1      -4.573  11.464  17.821  0.00  0.00    +0.000 A 
ATOM     29  C   UNL     1      -3.843  12.085  18.823  0.00  0.00    +0.000 A 
ATOM     30  C   UNL     1      -2.540  11.666  19.107  0.00  0.00    +0.000 A 
BRANCH  28  31
ATOM     31  O   UNL     1      -5.859  11.794  17.481  0.00  0.00    +0.000 OA
ATOM     32  C   UNL     1      -6.871  11.192  18.289  0.00  0.00    +0.000 C 
ENDBRANCH  28  31
ENDBRANCH  22  25
ENDBRANCH  18  19
ENDBRANCH   2  18
TORSDOF 7
ENDMDL
MODEL 5
REMARK VINA RESULT:      -6.5      3.866      5.919
REMARK  Name = 
REMARK  11 active torsions:
REMARK  status: ('A' for Active; 'I' for Inactive)
REMARK    1  A    between atoms: C_1  and  O_2
REMARK    2  A    between atoms: O_2  and  C_3
REMARK    3  A    between atoms: C_3  and  C_4
REMARK    4  A    between atoms: C_4  and  N_5
REMARK    5  A    between atoms: C_6  and  C_7
REMARK    6  A    between atoms: C_7  and  N_8
REMARK    7  A    between atoms: N_11  and  C_12
REMARK    8  A    between atoms: C_15  and  O_16
REMARK    9  A    between atoms: O_16  and  C_17
REMARK   10  A    between atoms: N_27  and  C_28
REMARK   11  A    between atoms: N_31  and  C_32
REMARK                            x       y       z     vdW  Elec       q    Type
REMARK                         _______ _______ _______ _____ _____    ______ ____
ROOT
ATOM      1  N   UNL     1      -3.553  11.893  18.909  0.00  0.00    +0.000 N 
ATOM      2  C   UNL     1      -2.306  12.316  19.394  0.00  0.00    +0.000 A 
ATOM      3  N   UNL     1      -2.441  12.694  20.652  0.00  0.00    +0.000 NA
ATOM      4  C   UNL     1      -3.752  12.655  20.929  0.00  0.00    +0.000 A 
ATOM      5  C   UNL     1      -4.488  12.165  19.897  0.00  0.00    +0.000 A 
ATOM      6  C   UNL     1      -5.919  12.061  19.988  0.00  0.00    +0.000 A 
ATOM      7  O   UNL     1      -6.628  11.667  19.069  0.00  0.00    +0.000 OA
ATOM      8  N   UNL     1      -6.424  12.505  21.227  0.00  0.00    +0.000 N 
ATOM      9  C   UNL     1      -7.859  12.500  21.446  0.00  0.00    +0.000 C 
ATOM     10  C   UNL     1      -5.665  13.070  22.270  0.00  0.00    +0.000 A 
ATOM     11  O   UNL     1      -6.209  13.528  23.284  0.00  0.00    +0.000 OA
ATOM     12  N   UNL     1      -4.294  13.112  22.098  0.00  0.00    +0.000 N 
ATOM     13  C   UNL     1      -3.428  13.741  23.077  0.00  0.00    +0.000 C 
ENDROOT
BRANCH   1  14
ATOM     14  C   UNL     1      -3.829  11.304  17.610  0.00  0.00    +0.000 C 
BRANCH  14  15
ATOM     15  C   UNL     1      -3.329   9.867  17.461  0.00  0.00    +0.000 C 
BRANCH  15  17
ATOM     16  C   UNL     1      -3.049  10.387  15.175  0.00  0.00    +0.000 C 
ATOM     17  O   UNL     1      -2.482   9.759  16.317  0.00  0.00    +0.000 OA
ENDBRANCH  15  17
ENDBRANCH  14  15
ENDBRANCH   1  14
BRANCH   2  18
ATOM     18  C   UNL     1      -0.974  12.339  18.654  0.00  0.00    +0.000 C 
BRANCH  18  19
ATOM     19  N   UNL     1       0.207  12.204  19.546  0.00  0.00    +0.000 NA
ATOM     20  C   UNL     1       0.078  11.171  20.606  0.00  0.00    +0.000 C 
ATOM     21  C   UNL     1       0.164   9.704  20.124  0.00  0.00    +0.000 C 
ATOM     22  N   UNL     1       1.467   9.495  19.484  0.00  0.00    +0.000 N 
ATOM     23  C   UNL     1       1.758  10.459  18.397  0.00  0.00    +0.000 C 
ATOM     24  C   UNL     1       1.472  11.927  18.824  0.00  0.00    +0.000 C 
BRANCH  22  25
ATOM     25  C   UNL     1       1.941   8.200  19.274  0.00  0.00    +0.000 A 
ATOM     26  C   UNL     1       1.893   7.173  20.224  0.00  0.00    +0.000 A 
ATOM     27  C   UNL     1       2.351   5.875  19.919  0.00  0.00    +0.000 A 
ATOM     28  C   UNL     1       2.880   5.588  18.662  0.00  0.00    +0.000 A 
ATOM     29  C   UNL     1       3.007   6.614  17.738  0.00  0.00    +0.000 A 
ATOM     30  C   UNL     1       2.540   7.896  18.042  0.00  0.00    +0.000 A 
BRANCH  28  31
ATOM     31  O   UNL     1       3.293   4.298  18.450  0.00  0.00    +0.000 OA
ATOM     32  C   UNL     1       4.009   3.707  19.535  0.00  0.00    +0.000 C 
ENDBRANCH  28  31
ENDBRANCH  22  25
ENDBRANCH  18  19
ENDBRANCH   2  18
TORSDOF 7
ENDMDL
MODEL 6
REMARK VINA RESULT:      -6.4      3.691      4.935
REMARK  Name = 
REMARK  11 active torsions:
REMARK  status: ('A' for Active; 'I' for Inactive)
REMARK    1  A    between atoms: C_1  and  O_2
REMARK    2  A    between atoms: O_2  and  C_3
REMARK    3  A    between atoms: C_3  and  C_4
REMARK    4  A    between atoms: C_4  and  N_5
REMARK    5  A    between atoms: C_6  and  C_7
REMARK    6  A    between atoms: C_7  and  N_8
REMARK    7  A    between atoms: N_11  and  C_12
REMARK    8  A    between atoms: C_15  and  O_16
REMARK    9  A    between atoms: O_16  and  C_17
REMARK   10  A    between atoms: N_27  and  C_28
REMARK   11  A    between atoms: N_31  and  C_32
REMARK                            x       y       z     vdW  Elec       q    Type
REMARK                         _______ _______ _______ _____ _____    ______ ____
ROOT
ATOM      1  N   UNL     1      -2.905  11.933  19.161  0.00  0.00    +0.000 N 
ATOM      2  C   UNL     1      -1.620  11.498  19.520  0.00  0.00    +0.000 A 
ATOM      3  N   UNL     1      -1.379  11.856  20.769  0.00  0.00    +0.000 NA
ATOM      4  C   UNL     1      -2.410  12.619  21.158  0.00  0.00    +0.000 A 
ATOM      5  C   UNL     1      -3.384  12.700  20.214  0.00  0.00    +0.000 A 
ATOM      6  C   UNL     1      -4.566  13.488  20.431  0.00  0.00    +0.000 A 
ATOM      7  O   UNL     1      -5.450  13.627  19.593  0.00  0.00    +0.000 OA
ATOM      8  N   UNL     1      -4.579  14.123  21.689  0.00  0.00    +0.000 N 
ATOM      9  C   UNL     1      -5.692  14.990  22.031  0.00  0.00    +0.000 C 
ATOM     10  C   UNL     1      -3.540  14.087  22.640  0.00  0.00    +0.000 A 
ATOM     11  O   UNL     1      -3.595  14.762  23.677  0.00  0.00    +0.000 OA
ATOM     12  N   UNL     1      -2.450  13.288  22.349  0.00  0.00    +0.000 N 
ATOM     13  C   UNL     1      -1.294  13.239  23.224  0.00  0.00    +0.000 C 
ENDROOT
BRANCH   1  14
ATOM     14  C   UNL     1      -3.601  11.660  17.916  0.00  0.00    +0.000 C 
BRANCH  14  15
ATOM     15  C   UNL     1      -4.604  10.511  18.005  0.00  0.00    +0.000 C 
BRANCH  15  17
ATOM     16  C   UNL     1      -6.836  10.489  18.775  0.00  0.00    +0.000 C 
ATOM     17  O   UNL     1      -5.930  11.001  17.806  0.00  0.00    +0.000 OA
ENDBRANCH  15  17
ENDBRANCH  14  15
ENDBRANCH   1  14
BRANCH   2  18
ATOM     18  C   UNL     1      -0.625  10.718  18.669  0.00  0.00    +0.000 C 
BRANCH  18  19
ATOM     19  N   UNL     1       0.766  10.759  19.188  0.00  0.00    +0.000 NA
ATOM     20  C   UNL     1       1.020   9.895  20.371  0.00  0.00    +0.000 C 
ATOM     21  C   UNL     1       1.074   8.376  20.090  0.00  0.00    +0.000 C 
ATOM     22  N   UNL     1       2.155   8.113  19.132  0.00  0.00    +0.000 N 
ATOM     23  C   UNL     1       2.054   8.909  17.887  0.00  0.00    +0.000 C 
ATOM     24  C   UNL     1       1.792  10.415  18.174  0.00  0.00    +0.000 C 
BRANCH  22  25
ATOM     25  C   UNL     1       2.645   6.817  18.973  0.00  0.00    +0.000 A 
ATOM     26  C   UNL     1       2.397   5.759  19.857  0.00  0.00    +0.000 A 
ATOM     27  C   UNL     1       2.891   4.464  19.600  0.00  0.00    +0.000 A 
ATOM     28  C   UNL     1       3.654   4.209  18.463  0.00  0.00    +0.000 A 
ATOM     29  C   UNL     1       3.975   5.263  17.621  0.00  0.00    +0.000 A 
ATOM     30  C   UNL     1       3.473   6.542  17.873  0.00  0.00    +0.000 A 
BRANCH  28  31
ATOM     31  O   UNL     1       4.086   2.919  18.289  0.00  0.00    +0.000 OA
ATOM     32  C   UNL     1       3.094   1.915  18.510  0.00  0.00    +0.000 C 
ENDBRANCH  28  31
ENDBRANCH  22  25
ENDBRANCH  18  19
ENDBRANCH   2  18
TORSDOF 7
ENDMDL
MODEL 7
REMARK VINA RESULT:      -6.4      3.935      6.018
REMARK  Name = 
REMARK  11 active torsions:
REMARK  status: ('A' for Active; 'I' for Inactive)
REMARK    1  A    between atoms: C_1  and  O_2
REMARK    2  A    between atoms: O_2  and  C_3
REMARK    3  A    between atoms: C_3  and  C_4
REMARK    4  A    between atoms: C_4  and  N_5
REMARK    5  A    between atoms: C_6  and  C_7
REMARK    6  A    between atoms: C_7  and  N_8
REMARK    7  A    between atoms: N_11  and  C_12
REMARK    8  A    between atoms: C_15  and  O_16
REMARK    9  A    between atoms: O_16  and  C_17
REMARK   10  A    between atoms: N_27  and  C_28
REMARK   11  A    between atoms: N_31  and  C_32
REMARK                            x       y       z     vdW  Elec       q    Type
REMARK                         _______ _______ _______ _____ _____    ______ ____
ROOT
ATOM      1  N   UNL     1      -3.148  11.908  18.367  0.00  0.00    +0.000 N 
ATOM      2  C   UNL     1      -2.048  12.520  18.987  0.00  0.00    +0.000 A 
ATOM      3  N   UNL     1      -2.378  12.842  20.225  0.00  0.00    +0.000 NA
ATOM      4  C   UNL     1      -3.686  12.581  20.357  0.00  0.00    +0.000 A 
ATOM      5  C   UNL     1      -4.215  12.000  19.248  0.00  0.00    +0.000 A 
ATOM      6  C   UNL     1      -5.610  11.658  19.182  0.00  0.00    +0.000 A 
ATOM      7  O   UNL     1      -6.142  11.174  18.189  0.00  0.00    +0.000 OA
ATOM      8  N   UNL     1      -6.311  11.984  20.360  0.00  0.00    +0.000 N 
ATOM      9  C   UNL     1      -7.741  11.738  20.422  0.00  0.00    +0.000 C 
ATOM     10  C   UNL     1      -5.774  12.643  21.483  0.00  0.00    +0.000 A 
ATOM     11  O   UNL     1      -6.491  12.982  22.434  0.00  0.00    +0.000 OA
ATOM     12  N   UNL     1      -4.418  12.915  21.462  0.00  0.00    +0.000 N 
ATOM     13  C   UNL     1      -3.779  13.655  22.533  0.00  0.00    +0.000 C 
ENDROOT
BRANCH   1  14
ATOM     14  C   UNL     1      -3.181  11.312  17.043  0.00  0.00    +0.000 C 
BRANCH  14  15
ATOM     15  C   UNL     1      -2.734   9.851  17.008  0.00  0.00    +0.000 C 
BRANCH  15  17
ATOM     16  C   UNL     1      -3.101  10.291  14.718  0.00  0.00    +0.000 C 
ATOM     17  O   UNL     1      -2.991   9.289  15.721  0.00  0.00    +0.000 OA
ENDBRANCH  15  17
ENDBRANCH  14  15
ENDBRANCH   1  14
BRANCH   2  18
ATOM     18  C   UNL     1      -0.667  12.780  18.397  0.00  0.00    +0.000 C 
BRANCH  18  19
ATOM     19  N   UNL     1       0.444  12.561  19.359  0.00  0.00    +0.000 NA
ATOM     20  C   UNL     1       0.178  11.538  20.404  0.00  0.00    +0.000 C 
ATOM     21  C   UNL     1       0.189  10.070  19.920  0.00  0.00    +0.000 C 
ATOM     22  N   UNL     1       1.512   9.770  19.359  0.00  0.00    +0.000 N 
ATOM     23  C   UNL     1       1.937  10.712  18.298  0.00  0.00    +0.000 C 
ATOM     24  C   UNL     1       1.728  12.196  18.715  0.00  0.00    +0.000 C 
BRANCH  22  25
ATOM     25  C   UNL     1       1.905   8.445  19.172  0.00  0.00    +0.000 A 
ATOM     26  C   UNL     1       2.438   7.934  17.982  0.00  0.00    +0.000 A 
ATOM     27  C   UNL     1       2.855   6.592  17.887  0.00  0.00    +0.000 A 
ATOM     28  C   UNL     1       2.732   5.732  18.977  0.00  0.00    +0.000 A 
ATOM     29  C   UNL     1       2.132   6.202  20.136  0.00  0.00    +0.000 A 
ATOM     30  C   UNL     1       1.732   7.537  20.229  0.00  0.00    +0.000 A 
BRANCH  28  31
ATOM     31  O   UNL     1       3.171   4.446  18.798  0.00  0.00    +0.000 OA
ATOM     32  C   UNL     1       4.511   4.200  19.223  0.00  0.00    +0.000 C 
ENDBRANCH  28  31
ENDBRANCH  22  25
ENDBRANCH  18  19
ENDBRANCH   2  18
TORSDOF 7
ENDMDL
MODEL 8
REMARK VINA RESULT:      -6.4      1.013      1.220
REMARK  Name = 
REMARK  11 active torsions:
REMARK  status: ('A' for Active; 'I' for Inactive)
REMARK    1  A    between atoms: C_1  and  O_2
REMARK    2  A    between atoms: O_2  and  C_3
REMARK    3  A    between atoms: C_3  and  C_4
REMARK    4  A    between atoms: C_4  and  N_5
REMARK    5  A    between atoms: C_6  and  C_7
REMARK    6  A    between atoms: C_7  and  N_8
REMARK    7  A    between atoms: N_11  and  C_12
REMARK    8  A    between atoms: C_15  and  O_16
REMARK    9  A    between atoms: O_16  and  C_17
REMARK   10  A    between atoms: N_27  and  C_28
REMARK   11  A    between atoms: N_31  and  C_32
REMARK                            x       y       z     vdW  Elec       q    Type
REMARK                         _______ _______ _______ _____ _____    ______ ____
ROOT
ATOM      1  N   UNL     1       0.325  13.683  20.344  0.00  0.00    +0.000 N 
ATOM      2  C   UNL     1       1.409  12.808  20.178  0.00  0.00    +0.000 A 
ATOM      3  N   UNL     1       2.378  13.441  19.544  0.00  0.00    +0.000 NA
ATOM      4  C   UNL     1       1.889  14.636  19.183  0.00  0.00    +0.000 A 
ATOM      5  C   UNL     1       0.631  14.845  19.651  0.00  0.00    +0.000 A 
ATOM      6  C   UNL     1      -0.079  16.061  19.357  0.00  0.00    +0.000 A 
ATOM      7  O   UNL     1      -1.230  16.277  19.719  0.00  0.00    +0.000 OA
ATOM      8  N   UNL     1       0.670  16.956  18.567  0.00  0.00    +0.000 N 
ATOM      9  C   UNL     1       0.064  18.209  18.153  0.00  0.00    +0.000 C 
ATOM     10  C   UNL     1       1.950  16.710  18.032  0.00  0.00    +0.000 A 
ATOM     11  O   UNL     1       2.489  17.515  17.261  0.00  0.00    +0.000 OA
ATOM     12  N   UNL     1       2.560  15.520  18.385  0.00  0.00    +0.000 N 
ATOM     13  C   UNL     1       3.843  15.135  17.830  0.00  0.00    +0.000 C 
ENDROOT
BRANCH   1  14
ATOM     14  C   UNL     1      -0.902  13.422  21.077  0.00  0.00    +0.000 C 
BRANCH  14  15
ATOM     15  C   UNL     1      -2.123  13.201  20.185  0.00  0.00    +0.000 C 
BRANCH  15  17
ATOM     16  C   UNL     1      -2.671  11.585  18.555  0.00  0.00    +0.000 C 
ATOM     17  O   UNL     1      -1.732  12.569  18.966  0.00  0.00    +0.000 OA
ENDBRANCH  15  17
ENDBRANCH  14  15
ENDBRANCH   1  14
BRANCH   2  18
ATOM     18  C   UNL     1       1.524  11.362  20.648  0.00  0.00    +0.000 C 
BRANCH  18  19
ATOM     19  N   UNL     1       0.579  10.437  19.971  0.00  0.00    +0.000 NA
ATOM     20  C   UNL     1       0.804  10.267  18.512  0.00  0.00    +0.000 C 
ATOM     21  C   UNL     1       2.043   9.430  18.120  0.00  0.00    +0.000 C 
ATOM     22  N   UNL     1       1.901   8.084  18.687  0.00  0.00    +0.000 N 
ATOM     23  C   UNL     1       1.661   8.076  20.149  0.00  0.00    +0.000 C 
ATOM     24  C   UNL     1       0.546   9.079  20.565  0.00  0.00    +0.000 C 
BRANCH  22  25
ATOM     25  C   UNL     1       2.690   7.039  18.208  0.00  0.00    +0.000 A 
ATOM     26  C   UNL     1       2.427   5.681  18.422  0.00  0.00    +0.000 A 
ATOM     27  C   UNL     1       3.249   4.682  17.864  0.00  0.00    +0.000 A 
ATOM     28  C   UNL     1       4.358   5.025  17.093  0.00  0.00    +0.000 A 
ATOM     29  C   UNL     1       4.677   6.365  16.939  0.00  0.00    +0.000 A 
ATOM     30  C   UNL     1       3.852   7.353  17.484  0.00  0.00    +0.000 A 
BRANCH  28  31
ATOM     31  O   UNL     1       5.096   3.988  16.583  0.00  0.00    +0.000 OA
ATOM     32  C   UNL     1       6.312   4.372  15.940  0.00  0.00    +0.000 C 
ENDBRANCH  28  31
ENDBRANCH  22  25
ENDBRANCH  18  19
ENDBRANCH   2  18
TORSDOF 7
ENDMDL
MODEL 9
REMARK VINA RESULT:      -6.4      1.095      1.171
REMARK  Name = 
REMARK  11 active torsions:
REMARK  status: ('A' for Active; 'I' for Inactive)
REMARK    1  A    between atoms: C_1  and  O_2
REMARK    2  A    between atoms: O_2  and  C_3
REMARK    3  A    between atoms: C_3  and  C_4
REMARK    4  A    between atoms: C_4  and  N_5
REMARK    5  A    between atoms: C_6  and  C_7
REMARK    6  A    between atoms: C_7  and  N_8
REMARK    7  A    between atoms: N_11  and  C_12
REMARK    8  A    between atoms: C_15  and  O_16
REMARK    9  A    between atoms: O_16  and  C_17
REMARK   10  A    between atoms: N_27  and  C_28
REMARK   11  A    between atoms: N_31  and  C_32
REMARK                            x       y       z     vdW  Elec       q    Type
REMARK                         _______ _______ _______ _____ _____    ______ ____
ROOT
ATOM      1  N   UNL     1      -0.138  13.060  20.506  0.00  0.00    +0.000 N 
ATOM      2  C   UNL     1       1.099  12.494  20.163  0.00  0.00    +0.000 A 
ATOM      3  N   UNL     1       1.857  13.423  19.608  0.00  0.00    +0.000 NA
ATOM      4  C   UNL     1       1.089  14.512  19.463  0.00  0.00    +0.000 A 
ATOM      5  C   UNL     1      -0.148  14.352  20.001  0.00  0.00    +0.000 A 
ATOM      6  C   UNL     1      -1.130  15.401  19.933  0.00  0.00    +0.000 A 
ATOM      7  O   UNL     1      -2.272  15.288  20.364  0.00  0.00    +0.000 OA
ATOM      8  N   UNL     1      -0.656  16.553  19.274  0.00  0.00    +0.000 N 
ATOM      9  C   UNL     1      -1.554  17.679  19.088  0.00  0.00    +0.000 C 
ATOM     10  C   UNL     1       0.605  16.693  18.662  0.00  0.00    +0.000 A 
ATOM     11  O   UNL     1       0.896  17.707  18.015  0.00  0.00    +0.000 OA
ATOM     12  N   UNL     1       1.488  15.637  18.797  0.00  0.00    +0.000 N 
ATOM     13  C   UNL     1       2.783  15.647  18.143  0.00  0.00    +0.000 C 
ENDROOT
BRANCH   1  14
ATOM     14  C   UNL     1      -1.221  12.416  21.228  0.00  0.00    +0.000 C 
BRANCH  14  15
ATOM     15  C   UNL     1      -1.091  12.503  22.749  0.00  0.00    +0.000 C 
BRANCH  15  17
ATOM     16  C   UNL     1      -0.992  10.187  23.193  0.00  0.00    +0.000 C 
ATOM     17  O   UNL     1      -0.293  11.424  23.235  0.00  0.00    +0.000 OA
ENDBRANCH  15  17
ENDBRANCH  14  15
ENDBRANCH   1  14
BRANCH   2  18
ATOM     18  C   UNL     1       1.566  11.061  20.389  0.00  0.00    +0.000 C 
BRANCH  18  19
ATOM     19  N   UNL     1       0.643  10.038  19.833  0.00  0.00    +0.000 NA
ATOM     20  C   UNL     1       0.757   9.819  18.367  0.00  0.00    +0.000 C 
ATOM     21  C   UNL     1       2.021   9.061  17.901  0.00  0.00    +0.000 C 
ATOM     22  N   UNL     1       2.033   7.735  18.530  0.00  0.00    +0.000 N 
ATOM     23  C   UNL     1       1.918   7.775  20.007  0.00  0.00    +0.000 C 
ATOM     24  C   UNL     1       0.767   8.709  20.479  0.00  0.00    +0.000 C 
BRANCH  22  25
ATOM     25  C   UNL     1       2.859   6.731  18.024  0.00  0.00    +0.000 A 
ATOM     26  C   UNL     1       2.568   5.362  18.075  0.00  0.00    +0.000 A 
ATOM     27  C   UNL     1       3.434   4.412  17.499  0.00  0.00    +0.000 A 
ATOM     28  C   UNL     1       4.614   4.813  16.875  0.00  0.00    +0.000 A 
ATOM     29  C   UNL     1       4.954   6.157  16.888  0.00  0.00    +0.000 A 
ATOM     30  C   UNL     1       4.086   7.097  17.450  0.00  0.00    +0.000 A 
BRANCH  28  31
ATOM     31  O   UNL     1       5.392   3.822  16.335  0.00  0.00    +0.000 OA
ATOM     32  C   UNL     1       6.238   4.235  15.261  0.00  0.00    +0.000 C 
ENDBRANCH  28  31
ENDBRANCH  22  25
ENDBRANCH  18  19
ENDBRANCH   2  18
TORSDOF 7
ENDMDL
