MODEL 1
REMARK VINA RESULT:      -8.6      0.000      0.000
REMARK  Name = 
REMARK  9 active torsions:
REMARK  status: ('A' for Active; 'I' for Inactive)
REMARK    1  A    between atoms: C_1  and  N_2
REMARK    2  A    between atoms: N_2  and  C_3
REMARK    3  A    between atoms: N_2  and  C_10
REMARK    4  A    between atoms: C_3  and  C_4
REMARK    5  A    between atoms: C_4  and  C_5
REMARK    6  A    between atoms: C_10  and  C_11
REMARK    7  A    between atoms: C_13  and  C_14
REMARK    8  A    between atoms: C_14  and  C_15
REMARK    9  A    between atoms: C_14  and  C_21
REMARK                            x       y       z     vdW  Elec       q    Type
REMARK                         _______ _______ _______ _____ _____    ______ ____
ROOT
ATOM      1  C   UNL     1       2.000   8.731  18.458  0.00  0.00    +0.000 A 
ATOM      2  N   UNL     1       2.437   7.964  17.488  0.00  0.00    +0.000 NA
ATOM      3  C   UNL     1       2.864   6.841  18.167  0.00  0.00    +0.000 A 
ATOM      4  N   UNL     1       2.666   6.890  19.496  0.00  0.00    +0.000 NA
ATOM      5  O   UNL     1       2.096   8.154  19.691  0.00  0.00    +0.000 OA
ENDROOT
BRANCH   1   6
ATOM      6  C   UNL     1       1.430  10.107  18.377  0.00  0.00    +0.000 C 
BRANCH   6   8
ATOM      7  C   UNL     1       1.007  11.860  20.014  0.00  0.00    +0.000 C 
ATOM      8  N   UNL     1       0.623  10.515  19.554  0.00  0.00    +0.000 NA
BRANCH   8   9
ATOM      9  C   UNL     1      -0.825  10.525  19.233  0.00  0.00    +0.000 C 
BRANCH   9  10
ATOM     10  C   UNL     1      -1.161  10.054  17.808  0.00  0.00    +0.000 C 
BRANCH  10  11
ATOM     11  C   UNL     1      -2.382  10.706  17.256  0.00  0.00    +0.000 A 
ATOM     12  C   UNL     1      -3.491  11.218  17.965  0.00  0.00    +0.000 A 
ATOM     13  N   UNL     1      -4.433  11.710  17.156  0.00  0.00    +0.000 NA
ATOM     14  N   UNL     1      -3.935  11.506  15.927  0.00  0.00    +0.000 N 
ATOM     15  C   UNL     1      -2.704  10.919  15.932  0.00  0.00    +0.000 A 
ATOM     16  H   UNL     1      -4.494  11.786  15.128  0.00  0.00    +0.000 HD
ENDBRANCH  10  11
ENDBRANCH   9  10
ENDBRANCH   8   9
ENDBRANCH   6   8
ENDBRANCH   1   6
BRANCH   3  17
ATOM     17  C   UNL     1       3.533   5.677  17.490  0.00  0.00    +0.000 C 
BRANCH  17  18
ATOM     18  C   UNL     1       5.009   5.848  17.847  0.00  0.00    +0.000 A 
ATOM     19  C   UNL     1       5.574   5.246  18.989  0.00  0.00    +0.000 A 
ATOM     20  C   UNL     1       6.888   5.517  19.366  0.00  0.00    +0.000 A 
ATOM     21  C   UNL     1       7.663   6.398  18.617  0.00  0.00    +0.000 A 
ATOM     22  C   UNL     1       7.131   6.989  17.472  0.00  0.00    +0.000 A 
ATOM     23  C   UNL     1       5.817   6.713  17.086  0.00  0.00    +0.000 A 
ENDBRANCH  17  18
BRANCH  17  24
ATOM     24  C   UNL     1       2.864   4.370  17.936  0.00  0.00    +0.000 A 
ATOM     25  C   UNL     1       1.716   4.295  18.747  0.00  0.00    +0.000 A 
ATOM     26  C   UNL     1       1.185   3.072  19.157  0.00  0.00    +0.000 A 
ATOM     27  C   UNL     1       1.774   1.885  18.742  0.00  0.00    +0.000 A 
ATOM     28  C   UNL     1       2.889   1.925  17.912  0.00  0.00    +0.000 A 
ATOM     29  C   UNL     1       3.428   3.151  17.508  0.00  0.00    +0.000 A 
ENDBRANCH  17  24
ENDBRANCH   3  17
TORSDOF 8
ENDMDL
MODEL 2
REMARK VINA RESULT:      -8.4      0.661      1.091
REMARK  Name = 
REMARK  9 active torsions:
REMARK  status: ('A' for Active; 'I' for Inactive)
REMARK    1  A    between atoms: C_1  and  N_2
REMARK    2  A    between atoms: N_2  and  C_3
REMARK    3  A    between atoms: N_2  and  C_10
REMARK    4  A    between atoms: C_3  and  C_4
REMARK    5  A    between atoms: C_4  and  C_5
REMARK    6  A    between atoms: C_10  and  C_11
REMARK    7  A    between atoms: C_13  and  C_14
REMARK    8  A    between atoms: C_14  and  C_15
REMARK    9  A    between atoms: C_14  and  C_21
REMARK                            x       y       z     vdW  Elec       q    Type
REMARK                         _______ _______ _______ _____ _____    ______ ____
ROOT
ATOM      1  C   UNL     1       1.982   8.499  18.835  0.00  0.00    +0.000 A 
ATOM      2  N   UNL     1       2.433   7.863  17.780  0.00  0.00    +0.000 NA
ATOM      3  C   UNL     1       2.925   6.695  18.327  0.00  0.00    +0.000 A 
ATOM      4  N   UNL     1       2.753   6.591  19.657  0.00  0.00    +0.000 NA
ATOM      5  O   UNL     1       2.131   7.799  19.996  0.00  0.00    +0.000 OA
ENDROOT
BRANCH   1   6
ATOM      6  C   UNL     1       1.348   9.847  18.912  0.00  0.00    +0.000 C 
BRANCH   6   8
ATOM      7  C   UNL     1       0.011  10.262  20.905  0.00  0.00    +0.000 C 
ATOM      8  N   UNL     1      -0.020   9.857  19.490  0.00  0.00    +0.000 NA
BRANCH   8   9
ATOM      9  C   UNL     1      -0.905  10.792  18.754  0.00  0.00    +0.000 C 
BRANCH   9  10
ATOM     10  C   UNL     1      -1.627  10.165  17.549  0.00  0.00    +0.000 C 
BRANCH  10  11
ATOM     11  C   UNL     1      -2.979  10.748  17.317  0.00  0.00    +0.000 A 
ATOM     12  C   UNL     1      -3.751  11.534  18.200  0.00  0.00    +0.000 A 
ATOM     13  N   UNL     1      -4.937  11.867  17.686  0.00  0.00    +0.000 NA
ATOM     14  N   UNL     1      -4.934  11.288  16.476  0.00  0.00    +0.000 N 
ATOM     15  C   UNL     1      -3.779  10.616  16.201  0.00  0.00    +0.000 A 
ATOM     16  H   UNL     1      -5.757  11.387  15.892  0.00  0.00    +0.000 HD
ENDBRANCH  10  11
ENDBRANCH   9  10
ENDBRANCH   8   9
ENDBRANCH   6   8
ENDBRANCH   1   6
BRANCH   3  17
ATOM     17  C   UNL     1       3.632   5.643  17.517  0.00  0.00    +0.000 C 
BRANCH  17  18
ATOM     18  C   UNL     1       5.110   5.876  17.831  0.00  0.00    +0.000 A 
ATOM     19  C   UNL     1       5.735   5.291  18.949  0.00  0.00    +0.000 A 
ATOM     20  C   UNL     1       7.047   5.615  19.289  0.00  0.00    +0.000 A 
ATOM     21  C   UNL     1       7.760   6.534  18.525  0.00  0.00    +0.000 A 
ATOM     22  C   UNL     1       7.167   7.110  17.402  0.00  0.00    +0.000 A 
ATOM     23  C   UNL     1       5.856   6.780  17.053  0.00  0.00    +0.000 A 
ENDBRANCH  17  18
BRANCH  17  24
ATOM     24  C   UNL     1       3.064   4.260  17.864  0.00  0.00    +0.000 A 
ATOM     25  C   UNL     1       3.812   3.069  17.876  0.00  0.00    +0.000 A 
ATOM     26  C   UNL     1       3.223   1.834  18.153  0.00  0.00    +0.000 A 
ATOM     27  C   UNL     1       1.869   1.763  18.454  0.00  0.00    +0.000 A 
ATOM     28  C   UNL     1       1.110   2.927  18.484  0.00  0.00    +0.000 A 
ATOM     29  C   UNL     1       1.697   4.164  18.198  0.00  0.00    +0.000 A 
ENDBRANCH  17  24
ENDBRANCH   3  17
TORSDOF 8
ENDMDL
MODEL 3
REMARK VINA RESULT:      -8.4      0.808      1.635
REMARK  Name = 
REMARK  9 active torsions:
REMARK  status: ('A' for Active; 'I' for Inactive)
REMARK    1  A    between atoms: C_1  and  N_2
REMARK    2  A    between atoms: N_2  and  C_3
REMARK    3  A    between atoms: N_2  and  C_10
REMARK    4  A    between atoms: C_3  and  C_4
REMARK    5  A    between atoms: C_4  and  C_5
REMARK    6  A    between atoms: C_10  and  C_11
REMARK    7  A    between atoms: C_13  and  C_14
REMARK    8  A    between atoms: C_14  and  C_15
REMARK    9  A    between atoms: C_14  and  C_21
REMARK                            x       y       z     vdW  Elec       q    Type
REMARK                         _______ _______ _______ _____ _____    ______ ____
ROOT
ATOM      1  C   UNL     1       1.876   8.683  18.829  0.00  0.00    +0.000 A 
ATOM      2  N   UNL     1       2.387   8.054  17.798  0.00  0.00    +0.000 NA
ATOM      3  C   UNL     1       2.836   6.876  18.362  0.00  0.00    +0.000 A 
ATOM      4  N   UNL     1       2.580   6.761  19.677  0.00  0.00    +0.000 NA
ATOM      5  O   UNL     1       1.947   7.969  19.989  0.00  0.00    +0.000 OA
ENDROOT
BRANCH   1   6
ATOM      6  C   UNL     1       1.248  10.035  18.881  0.00  0.00    +0.000 C 
BRANCH   6   8
ATOM      7  C   UNL     1      -0.457  10.508  20.553  0.00  0.00    +0.000 C 
ATOM      8  N   UNL     1      -0.205  10.033  19.183  0.00  0.00    +0.000 NA
BRANCH   8   9
ATOM      9  C   UNL     1      -0.949  10.904  18.241  0.00  0.00    +0.000 C 
BRANCH   9  10
ATOM     10  C   UNL     1      -2.127  10.211  17.534  0.00  0.00    +0.000 C 
BRANCH  10  11
ATOM     11  C   UNL     1      -3.385  11.007  17.590  0.00  0.00    +0.000 A 
ATOM     12  C   UNL     1      -4.342  11.195  16.569  0.00  0.00    +0.000 A 
ATOM     13  N   UNL     1      -5.342  11.997  16.944  0.00  0.00    +0.000 NA
ATOM     14  N   UNL     1      -5.024  12.334  18.204  0.00  0.00    +0.000 N 
ATOM     15  C   UNL     1      -3.868  11.757  18.642  0.00  0.00    +0.000 A 
ATOM     16  H   UNL     1      -5.638  12.967  18.703  0.00  0.00    +0.000 HD
ENDBRANCH  10  11
ENDBRANCH   9  10
ENDBRANCH   8   9
ENDBRANCH   6   8
ENDBRANCH   1   6
BRANCH   3  17
ATOM     17  C   UNL     1       3.585   5.828  17.587  0.00  0.00    +0.000 C 
BRANCH  17  18
ATOM     18  C   UNL     1       5.047   6.083  17.948  0.00  0.00    +0.000 A 
ATOM     19  C   UNL     1       5.891   6.864  17.133  0.00  0.00    +0.000 A 
ATOM     20  C   UNL     1       7.251   6.980  17.413  0.00  0.00    +0.000 A 
ATOM     21  C   UNL     1       7.799   6.316  18.506  0.00  0.00    +0.000 A 
ATOM     22  C   UNL     1       6.979   5.554  19.338  0.00  0.00    +0.000 A 
ATOM     23  C   UNL     1       5.614   5.443  19.066  0.00  0.00    +0.000 A 
ENDBRANCH  17  18
BRANCH  17  24
ATOM     24  C   UNL     1       3.024   4.440  17.926  0.00  0.00    +0.000 A 
ATOM     25  C   UNL     1       3.801   3.275  18.063  0.00  0.00    +0.000 A 
ATOM     26  C   UNL     1       3.222   2.033  18.326  0.00  0.00    +0.000 A 
ATOM     27  C   UNL     1       1.847   1.928  18.488  0.00  0.00    +0.000 A 
ATOM     28  C   UNL     1       1.055   3.066  18.393  0.00  0.00    +0.000 A 
ATOM     29  C   UNL     1       1.633   4.311  18.120  0.00  0.00    +0.000 A 
ENDBRANCH  17  24
ENDBRANCH   3  17
TORSDOF 8
ENDMDL
MODEL 4
REMARK VINA RESULT:      -8.3      0.765      1.121
REMARK  Name = 
REMARK  9 active torsions:
REMARK  status: ('A' for Active; 'I' for Inactive)
REMARK    1  A    between atoms: C_1  and  N_2
REMARK    2  A    between atoms: N_2  and  C_3
REMARK    3  A    between atoms: N_2  and  C_10
REMARK    4  A    between atoms: C_3  and  C_4
REMARK    5  A    between atoms: C_4  and  C_5
REMARK    6  A    between atoms: C_10  and  C_11
REMARK    7  A    between atoms: C_13  and  C_14
REMARK    8  A    between atoms: C_14  and  C_15
REMARK    9  A    between atoms: C_14  and  C_21
REMARK                            x       y       z     vdW  Elec       q    Type
REMARK                         _______ _______ _______ _____ _____    ______ ____
ROOT
ATOM      1  C   UNL     1       1.928   9.013  18.572  0.00  0.00    +0.000 A 
ATOM      2  N   UNL     1       2.235   8.081  17.700  0.00  0.00    +0.000 NA
ATOM      3  C   UNL     1       2.496   6.993  18.509  0.00  0.00    +0.000 A 
ATOM      4  N   UNL     1       2.322   7.226  19.822  0.00  0.00    +0.000 NA
ATOM      5  O   UNL     1       1.950   8.575  19.864  0.00  0.00    +0.000 OA
ENDROOT
BRANCH   1   6
ATOM      6  C   UNL     1       1.569  10.440  18.327  0.00  0.00    +0.000 C 
BRANCH   6   8
ATOM      7  C   UNL     1       1.244  12.345  19.807  0.00  0.00    +0.000 C 
ATOM      8  N   UNL     1       0.703  11.049  19.367  0.00  0.00    +0.000 NA
BRANCH   8   9
ATOM      9  C   UNL     1      -0.673  11.264  18.860  0.00  0.00    +0.000 C 
BRANCH   9  10
ATOM     10  C   UNL     1      -1.187  10.150  17.931  0.00  0.00    +0.000 C 
BRANCH  10  11
ATOM     11  C   UNL     1      -2.332  10.586  17.082  0.00  0.00    +0.000 A 
ATOM     12  C   UNL     1      -2.633  10.194  15.759  0.00  0.00    +0.000 A 
ATOM     13  N   UNL     1      -3.721  10.801  15.280  0.00  0.00    +0.000 NA
ATOM     14  N   UNL     1      -4.115  11.592  16.290  0.00  0.00    +0.000 N 
ATOM     15  C   UNL     1      -3.324  11.490  17.397  0.00  0.00    +0.000 A 
ATOM     16  H   UNL     1      -4.930  12.180  16.152  0.00  0.00    +0.000 HD
ENDBRANCH  10  11
ENDBRANCH   9  10
ENDBRANCH   8   9
ENDBRANCH   6   8
ENDBRANCH   1   6
BRANCH   3  17
ATOM     17  C   UNL     1       2.976   5.672  17.977  0.00  0.00    +0.000 C 
BRANCH  17  18
ATOM     18  C   UNL     1       4.498   5.776  18.063  0.00  0.00    +0.000 A 
ATOM     19  C   UNL     1       5.227   5.193  19.118  0.00  0.00    +0.000 A 
ATOM     20  C   UNL     1       6.598   5.407  19.247  0.00  0.00    +0.000 A 
ATOM     21  C   UNL     1       7.269   6.211  18.331  0.00  0.00    +0.000 A 
ATOM     22  C   UNL     1       6.572   6.782  17.267  0.00  0.00    +0.000 A 
ATOM     23  C   UNL     1       5.199   6.562  17.129  0.00  0.00    +0.000 A 
ENDBRANCH  17  18
BRANCH  17  24
ATOM     24  C   UNL     1       2.319   4.531  18.766  0.00  0.00    +0.000 A 
ATOM     25  C   UNL     1       2.233   4.475  20.169  0.00  0.00    +0.000 A 
ATOM     26  C   UNL     1       1.664   3.385  20.828  0.00  0.00    +0.000 A 
ATOM     27  C   UNL     1       1.137   2.329  20.095  0.00  0.00    +0.000 A 
ATOM     28  C   UNL     1       1.175   2.370  18.706  0.00  0.00    +0.000 A 
ATOM     29  C   UNL     1       1.754   3.459  18.045  0.00  0.00    +0.000 A 
ENDBRANCH  17  24
ENDBRANCH   3  17
TORSDOF 8
ENDMDL
MODEL 5
REMARK VINA RESULT:      -8.2      1.291      1.926
REMARK  Name = 
REMARK  9 active torsions:
REMARK  status: ('A' for Active; 'I' for Inactive)
REMARK    1  A    between atoms: C_1  and  N_2
REMARK    2  A    between atoms: N_2  and  C_3
REMARK    3  A    between atoms: N_2  and  C_10
REMARK    4  A    between atoms: C_3  and  C_4
REMARK    5  A    between atoms: C_4  and  C_5
REMARK    6  A    between atoms: C_10  and  C_11
REMARK    7  A    between atoms: C_13  and  C_14
REMARK    8  A    between atoms: C_14  and  C_15
REMARK    9  A    between atoms: C_14  and  C_21
REMARK                            x       y       z     vdW  Elec       q    Type
REMARK                         _______ _______ _______ _____ _____    ______ ____
ROOT
ATOM      1  C   UNL     1       1.978   8.588  19.119  0.00  0.00    +0.000 A 
ATOM      2  N   UNL     1       2.018   7.294  19.332  0.00  0.00    +0.000 NA
ATOM      3  C   UNL     1       2.679   6.831  18.212  0.00  0.00    +0.000 A 
ATOM      4  N   UNL     1       3.068   7.796  17.361  0.00  0.00    +0.000 NA
ATOM      5  O   UNL     1       2.593   8.967  17.963  0.00  0.00    +0.000 OA
ENDROOT
BRANCH   1   6
ATOM      6  C   UNL     1       1.363   9.654  19.962  0.00  0.00    +0.000 C 
BRANCH   6   8
ATOM      7  C   UNL     1      -0.681  10.595  20.892  0.00  0.00    +0.000 C 
ATOM      8  N   UNL     1      -0.101   9.819  19.784  0.00  0.00    +0.000 NA
BRANCH   8   9
ATOM      9  C   UNL     1      -0.411  10.514  18.512  0.00  0.00    +0.000 C 
BRANCH   9  10
ATOM     10  C   UNL     1      -1.214   9.669  17.508  0.00  0.00    +0.000 C 
BRANCH  10  11
ATOM     11  C   UNL     1      -2.313  10.434  16.854  0.00  0.00    +0.000 A 
ATOM     12  C   UNL     1      -2.696  10.418  15.495  0.00  0.00    +0.000 A 
ATOM     13  N   UNL     1      -3.706  11.252  15.237  0.00  0.00    +0.000 NA
ATOM     14  N   UNL     1      -3.968  11.812  16.428  0.00  0.00    +0.000 N 
ATOM     15  C   UNL     1      -3.170  11.348  17.432  0.00  0.00    +0.000 A 
ATOM     16  H   UNL     1      -4.702  12.510  16.481  0.00  0.00    +0.000 HD
ENDBRANCH  10  11
ENDBRANCH   9  10
ENDBRANCH   8   9
ENDBRANCH   6   8
ENDBRANCH   1   6
BRANCH   3  17
ATOM     17  C   UNL     1       2.911   5.370  17.941  0.00  0.00    +0.000 C 
BRANCH  17  18
ATOM     18  C   UNL     1       4.421   5.274  17.730  0.00  0.00    +0.000 A 
ATOM     19  C   UNL     1       4.977   4.815  16.520  0.00  0.00    +0.000 A 
ATOM     20  C   UNL     1       6.350   4.615  16.392  0.00  0.00    +0.000 A 
ATOM     21  C   UNL     1       7.196   4.861  17.469  0.00  0.00    +0.000 A 
ATOM     22  C   UNL     1       6.670   5.335  18.670  0.00  0.00    +0.000 A 
ATOM     23  C   UNL     1       5.295   5.546  18.800  0.00  0.00    +0.000 A 
ENDBRANCH  17  18
BRANCH  17  24
ATOM     24  C   UNL     1       2.321   4.536  19.087  0.00  0.00    +0.000 A 
ATOM     25  C   UNL     1       2.711   4.641  20.435  0.00  0.00    +0.000 A 
ATOM     26  C   UNL     1       2.168   3.817  21.423  0.00  0.00    +0.000 A 
ATOM     27  C   UNL     1       1.196   2.883  21.091  0.00  0.00    +0.000 A 
ATOM     28  C   UNL     1       0.765   2.779  19.773  0.00  0.00    +0.000 A 
ATOM     29  C   UNL     1       1.314   3.598  18.781  0.00  0.00    +0.000 A 
ENDBRANCH  17  24
ENDBRANCH   3  17
TORSDOF 8
ENDMDL
MODEL 6
REMARK VINA RESULT:      -8.2      1.320      1.748
REMARK  Name = 
REMARK  9 active torsions:
REMARK  status: ('A' for Active; 'I' for Inactive)
REMARK    1  A    between atoms: C_1  and  N_2
REMARK    2  A    between atoms: N_2  and  C_3
REMARK    3  A    between atoms: N_2  and  C_10
REMARK    4  A    between atoms: C_3  and  C_4
REMARK    5  A    between atoms: C_4  and  C_5
REMARK    6  A    between atoms: C_10  and  C_11
REMARK    7  A    between atoms: C_13  and  C_14
REMARK    8  A    between atoms: C_14  and  C_15
REMARK    9  A    between atoms: C_14  and  C_21
REMARK                            x       y       z     vdW  Elec       q    Type
REMARK                         _______ _______ _______ _____ _____    ______ ____
ROOT
ATOM      1  C   UNL     1       2.020   7.772  19.963  0.00  0.00    +0.000 A 
ATOM      2  N   UNL     1       2.645   6.650  19.694  0.00  0.00    +0.000 NA
ATOM      3  C   UNL     1       2.923   6.782  18.348  0.00  0.00    +0.000 A 
ATOM      4  N   UNL     1       2.524   7.949  17.812  0.00  0.00    +0.000 NA
ATOM      5  O   UNL     1       1.915   8.605  18.888  0.00  0.00    +0.000 OA
ENDROOT
BRANCH   1   6
ATOM      6  C   UNL     1       1.433   8.227  21.256  0.00  0.00    +0.000 C 
BRANCH   6   8
ATOM      7  C   UNL     1      -0.577   8.978  22.406  0.00  0.00    +0.000 C 
ATOM      8  N   UNL     1       0.156   8.973  21.130  0.00  0.00    +0.000 NA
BRANCH   8   9
ATOM      9  C   UNL     1       0.396  10.378  20.722  0.00  0.00    +0.000 C 
BRANCH   9  10
ATOM     10  C   UNL     1      -0.885  11.203  20.505  0.00  0.00    +0.000 C 
BRANCH  10  11
ATOM     11  C   UNL     1      -1.397  11.121  19.108  0.00  0.00    +0.000 A 
ATOM     12  C   UNL     1      -2.555  11.723  18.569  0.00  0.00    +0.000 A 
ATOM     13  N   UNL     1      -2.740  11.419  17.282  0.00  0.00    +0.000 NA
ATOM     14  N   UNL     1      -1.706  10.614  16.994  0.00  0.00    +0.000 N 
ATOM     15  C   UNL     1      -0.865  10.414  18.050  0.00  0.00    +0.000 A 
ATOM     16  H   UNL     1      -1.640  10.231  16.058  0.00  0.00    +0.000 HD
ENDBRANCH  10  11
ENDBRANCH   9  10
ENDBRANCH   8   9
ENDBRANCH   6   8
ENDBRANCH   1   6
BRANCH   3  17
ATOM     17  C   UNL     1       3.578   5.699  17.535  0.00  0.00    +0.000 C 
BRANCH  17  18
ATOM     18  C   UNL     1       5.063   5.848  17.861  0.00  0.00    +0.000 A 
ATOM     19  C   UNL     1       5.628   5.302  19.030  0.00  0.00    +0.000 A 
ATOM     20  C   UNL     1       6.955   5.556  19.371  0.00  0.00    +0.000 A 
ATOM     21  C   UNL     1       7.743   6.366  18.559  0.00  0.00    +0.000 A 
ATOM     22  C   UNL     1       7.211   6.900  17.387  0.00  0.00    +0.000 A 
ATOM     23  C   UNL     1       5.884   6.640  17.036  0.00  0.00    +0.000 A 
ENDBRANCH  17  18
BRANCH  17  24
ATOM     24  C   UNL     1       2.932   4.347  17.868  0.00  0.00    +0.000 A 
ATOM     25  C   UNL     1       1.602   4.179  18.294  0.00  0.00    +0.000 A 
ATOM     26  C   UNL     1       1.090   2.924  18.628  0.00  0.00    +0.000 A 
ATOM     27  C   UNL     1       1.891   1.795  18.515  0.00  0.00    +0.000 A 
ATOM     28  C   UNL     1       3.199   1.924  18.063  0.00  0.00    +0.000 A 
ATOM     29  C   UNL     1       3.717   3.182  17.737  0.00  0.00    +0.000 A 
ENDBRANCH  17  24
ENDBRANCH   3  17
TORSDOF 8
ENDMDL
MODEL 7
REMARK VINA RESULT:      -8.2      1.293      3.693
REMARK  Name = 
REMARK  9 active torsions:
REMARK  status: ('A' for Active; 'I' for Inactive)
REMARK    1  A    between atoms: C_1  and  N_2
REMARK    2  A    between atoms: N_2  and  C_3
REMARK    3  A    between atoms: N_2  and  C_10
REMARK    4  A    between atoms: C_3  and  C_4
REMARK    5  A    between atoms: C_4  and  C_5
REMARK    6  A    between atoms: C_10  and  C_11
REMARK    7  A    between atoms: C_13  and  C_14
REMARK    8  A    between atoms: C_14  and  C_15
REMARK    9  A    between atoms: C_14  and  C_21
REMARK                            x       y       z     vdW  Elec       q    Type
REMARK                         _______ _______ _______ _____ _____    ______ ____
ROOT
ATOM      1  C   UNL     1       1.682   8.616  18.144  0.00  0.00    +0.000 A 
ATOM      2  N   UNL     1       1.923   7.709  19.061  0.00  0.00    +0.000 NA
ATOM      3  C   UNL     1       3.078   7.114  18.592  0.00  0.00    +0.000 A 
ATOM      4  N   UNL     1       3.556   7.653  17.457  0.00  0.00    +0.000 NA
ATOM      5  O   UNL     1       2.620   8.649  17.154  0.00  0.00    +0.000 OA
ENDROOT
BRANCH   1   6
ATOM      6  C   UNL     1       0.547   9.580  18.059  0.00  0.00    +0.000 C 
BRANCH   6   8
ATOM      7  C   UNL     1       1.085  11.243  19.754  0.00  0.00    +0.000 C 
ATOM      8  N   UNL     1       0.146  10.182  19.356  0.00  0.00    +0.000 NA
BRANCH   8   9
ATOM      9  C   UNL     1      -1.215  10.765  19.277  0.00  0.00    +0.000 C 
BRANCH   9  10
ATOM     10  C   UNL     1      -1.978  10.422  17.986  0.00  0.00    +0.000 C 
BRANCH  10  11
ATOM     11  C   UNL     1      -3.268  11.158  17.864  0.00  0.00    +0.000 A 
ATOM     12  C   UNL     1      -4.100  11.273  16.728  0.00  0.00    +0.000 A 
ATOM     13  N   UNL     1      -5.172  12.035  16.953  0.00  0.00    +0.000 NA
ATOM     14  N   UNL     1      -5.027  12.420  18.231  0.00  0.00    +0.000 N 
ATOM     15  C   UNL     1      -3.909  11.911  18.825  0.00  0.00    +0.000 A 
ATOM     16  H   UNL     1      -5.726  13.036  18.631  0.00  0.00    +0.000 HD
ENDBRANCH  10  11
ENDBRANCH   9  10
ENDBRANCH   8   9
ENDBRANCH   6   8
ENDBRANCH   1   6
BRANCH   3  17
ATOM     17  C   UNL     1       3.727   5.938  19.268  0.00  0.00    +0.000 C 
BRANCH  17  18
ATOM     18  C   UNL     1       2.590   4.926  19.406  0.00  0.00    +0.000 A 
ATOM     19  C   UNL     1       2.097   4.528  20.664  0.00  0.00    +0.000 A 
ATOM     20  C   UNL     1       1.149   3.512  20.773  0.00  0.00    +0.000 A 
ATOM     21  C   UNL     1       0.680   2.868  19.632  0.00  0.00    +0.000 A 
ATOM     22  C   UNL     1       1.140   3.259  18.376  0.00  0.00    +0.000 A 
ATOM     23  C   UNL     1       2.082   4.284  18.261  0.00  0.00    +0.000 A 
ENDBRANCH  17  18
BRANCH  17  24
ATOM     24  C   UNL     1       4.951   5.492  18.456  0.00  0.00    +0.000 A 
ATOM     25  C   UNL     1       4.895   4.935  17.165  0.00  0.00    +0.000 A 
ATOM     26  C   UNL     1       6.044   4.504  16.501  0.00  0.00    +0.000 A 
ATOM     27  C   UNL     1       7.288   4.647  17.101  0.00  0.00    +0.000 A 
ATOM     28  C   UNL     1       7.380   5.225  18.362  0.00  0.00    +0.000 A 
ATOM     29  C   UNL     1       6.228   5.648  19.033  0.00  0.00    +0.000 A 
ENDBRANCH  17  24
ENDBRANCH   3  17
TORSDOF 8
ENDMDL
MODEL 8
REMARK VINA RESULT:      -8.2      1.271      3.591
REMARK  Name = 
REMARK  9 active torsions:
REMARK  status: ('A' for Active; 'I' for Inactive)
REMARK    1  A    between atoms: C_1  and  N_2
REMARK    2  A    between atoms: N_2  and  C_3
REMARK    3  A    between atoms: N_2  and  C_10
REMARK    4  A    between atoms: C_3  and  C_4
REMARK    5  A    between atoms: C_4  and  C_5
REMARK    6  A    between atoms: C_10  and  C_11
REMARK    7  A    between atoms: C_13  and  C_14
REMARK    8  A    between atoms: C_14  and  C_15
REMARK    9  A    between atoms: C_14  and  C_21
REMARK                            x       y       z     vdW  Elec       q    Type
REMARK                         _______ _______ _______ _____ _____    ______ ____
ROOT
ATOM      1  C   UNL     1       1.994   8.670  18.367  0.00  0.00    +0.000 A 
ATOM      2  N   UNL     1       2.268   7.817  19.326  0.00  0.00    +0.000 NA
ATOM      3  C   UNL     1       3.196   6.988  18.728  0.00  0.00    +0.000 A 
ATOM      4  N   UNL     1       3.515   7.332  17.468  0.00  0.00    +0.000 NA
ATOM      5  O   UNL     1       2.707   8.449  17.225  0.00  0.00    +0.000 OA
ENDROOT
BRANCH   1   6
ATOM      6  C   UNL     1       1.033   9.810  18.377  0.00  0.00    +0.000 C 
BRANCH   6   8
ATOM      7  C   UNL     1       0.527  10.474  20.665  0.00  0.00    +0.000 C 
ATOM      8  N   UNL     1       0.031   9.767  19.472  0.00  0.00    +0.000 NA
BRANCH   8   9
ATOM      9  C   UNL     1      -1.247  10.392  19.054  0.00  0.00    +0.000 C 
BRANCH   9  10
ATOM     10  C   UNL     1      -1.681  10.046  17.620  0.00  0.00    +0.000 C 
BRANCH  10  11
ATOM     11  C   UNL     1      -3.024  10.593  17.274  0.00  0.00    +0.000 A 
ATOM     12  C   UNL     1      -4.040  11.027  18.154  0.00  0.00    +0.000 A 
ATOM     13  N   UNL     1      -5.137  11.433  17.511  0.00  0.00    +0.000 NA
ATOM     14  N   UNL     1      -4.832  11.251  16.216  0.00  0.00    +0.000 N 
ATOM     15  C   UNL     1      -3.574  10.762  16.020  0.00  0.00    +0.000 A 
ATOM     16  H   UNL     1      -5.534  11.476  15.520  0.00  0.00    +0.000 HD
ENDBRANCH  10  11
ENDBRANCH   9  10
ENDBRANCH   8   9
ENDBRANCH   6   8
ENDBRANCH   1   6
BRANCH   3  17
ATOM     17  C   UNL     1       3.773   5.777  19.409  0.00  0.00    +0.000 C 
BRANCH  17  18
ATOM     18  C   UNL     1       2.617   4.778  19.413  0.00  0.00    +0.000 A 
ATOM     19  C   UNL     1       2.144   4.191  20.602  0.00  0.00    +0.000 A 
ATOM     20  C   UNL     1       1.176   3.188  20.572  0.00  0.00    +0.000 A 
ATOM     21  C   UNL     1       0.666   2.746  19.355  0.00  0.00    +0.000 A 
ATOM     22  C   UNL     1       1.105   3.327  18.166  0.00  0.00    +0.000 A 
ATOM     23  C   UNL     1       2.068   4.338  18.193  0.00  0.00    +0.000 A 
ENDBRANCH  17  18
BRANCH  17  24
ATOM     24  C   UNL     1       5.056   5.344  18.685  0.00  0.00    +0.000 A 
ATOM     25  C   UNL     1       6.359   5.617  19.137  0.00  0.00    +0.000 A 
ATOM     26  C   UNL     1       7.485   5.237  18.406  0.00  0.00    +0.000 A 
ATOM     27  C   UNL     1       7.335   4.544  17.211  0.00  0.00    +0.000 A 
ATOM     28  C   UNL     1       6.061   4.229  16.755  0.00  0.00    +0.000 A 
ATOM     29  C   UNL     1       4.931   4.618  17.483  0.00  0.00    +0.000 A 
ENDBRANCH  17  24
ENDBRANCH   3  17
TORSDOF 8
ENDMDL
MODEL 9
REMARK VINA RESULT:      -8.2      1.316      3.751
REMARK  Name = 
REMARK  9 active torsions:
REMARK  status: ('A' for Active; 'I' for Inactive)
REMARK    1  A    between atoms: C_1  and  N_2
REMARK    2  A    between atoms: N_2  and  C_3
REMARK    3  A    between atoms: N_2  and  C_10
REMARK    4  A    between atoms: C_3  and  C_4
REMARK    5  A    between atoms: C_4  and  C_5
REMARK    6  A    between atoms: C_10  and  C_11
REMARK    7  A    between atoms: C_13  and  C_14
REMARK    8  A    between atoms: C_14  and  C_15
REMARK    9  A    between atoms: C_14  and  C_21
REMARK                            x       y       z     vdW  Elec       q    Type
REMARK                         _______ _______ _______ _____ _____    ______ ____
ROOT
ATOM      1  C   UNL     1       1.967   8.398  18.064  0.00  0.00    +0.000 A 
ATOM      2  N   UNL     1       2.191   7.499  18.992  0.00  0.00    +0.000 NA
ATOM      3  C   UNL     1       3.362   6.910  18.558  0.00  0.00    +0.000 A 
ATOM      4  N   UNL     1       3.865   7.446  17.431  0.00  0.00    +0.000 NA
ATOM      5  O   UNL     1       2.929   8.433  17.098  0.00  0.00    +0.000 OA
ENDROOT
BRANCH   1   6
ATOM      6  C   UNL     1       0.827   9.353  17.944  0.00  0.00    +0.000 C 
BRANCH   6   8
ATOM      7  C   UNL     1       1.808  11.535  18.397  0.00  0.00    +0.000 C 
ATOM      8  N   UNL     1       0.879  10.502  18.883  0.00  0.00    +0.000 NA
BRANCH   8   9
ATOM      9  C   UNL     1      -0.460  11.117  19.050  0.00  0.00    +0.000 C 
BRANCH   9  10
ATOM     10  C   UNL     1      -1.634  10.180  18.719  0.00  0.00    +0.000 C 
BRANCH  10  11
ATOM     11  C   UNL     1      -2.543  10.737  17.678  0.00  0.00    +0.000 A 
ATOM     12  C   UNL     1      -2.562  10.450  16.295  0.00  0.00    +0.000 A 
ATOM     13  N   UNL     1      -3.490  11.151  15.639  0.00  0.00    +0.000 NA
ATOM     14  N   UNL     1      -4.062  11.897  16.597  0.00  0.00    +0.000 N 
ATOM     15  C   UNL     1      -3.540  11.678  17.837  0.00  0.00    +0.000 A 
ATOM     16  H   UNL     1      -4.799  12.541  16.330  0.00  0.00    +0.000 HD
ENDBRANCH  10  11
ENDBRANCH   9  10
ENDBRANCH   8   9
ENDBRANCH   6   8
ENDBRANCH   1   6
BRANCH   3  17
ATOM     17  C   UNL     1       4.002   5.743  19.256  0.00  0.00    +0.000 C 
BRANCH  17  18
ATOM     18  C   UNL     1       2.868   4.726  19.379  0.00  0.00    +0.000 A 
ATOM     19  C   UNL     1       2.250   4.160  18.248  0.00  0.00    +0.000 A 
ATOM     20  C   UNL     1       1.135   3.333  18.378  0.00  0.00    +0.000 A 
ATOM     21  C   UNL     1       0.611   3.060  19.638  0.00  0.00    +0.000 A 
ATOM     22  C   UNL     1       1.219   3.595  20.773  0.00  0.00    +0.000 A 
ATOM     23  C   UNL     1       2.342   4.416  20.647  0.00  0.00    +0.000 A 
ENDBRANCH  17  18
BRANCH  17  24
ATOM     24  C   UNL     1       5.246   5.296  18.475  0.00  0.00    +0.000 A 
ATOM     25  C   UNL     1       6.569   5.432  18.933  0.00  0.00    +0.000 A 
ATOM     26  C   UNL     1       7.660   5.049  18.151  0.00  0.00    +0.000 A 
ATOM     27  C   UNL     1       7.453   4.491  16.896  0.00  0.00    +0.000 A 
ATOM     28  C   UNL     1       6.155   4.312  16.430  0.00  0.00    +0.000 A 
ATOM     29  C   UNL     1       5.062   4.705  17.208  0.00  0.00    +0.000 A 
ENDBRANCH  17  24
ENDBRANCH   3  17
TORSDOF 8
ENDMDL
