MODEL 1
REMARK VINA RESULT:      -8.1      0.000      0.000
REMARK  Name = 
REMARK  13 active torsions:
REMARK  status: ('A' for Active; 'I' for Inactive)
REMARK    1  A    between atoms: C_1  and  C_2
REMARK    2  A    between atoms: C_2  and  C_3
REMARK    3  A    between atoms: C_3  and  C_4
REMARK    4  A    between atoms: C_4  and  C_5
REMARK    5  A    between atoms: C_5  and  C_6
REMARK    6  A    between atoms: C_6  and  C_7
REMARK    7  A    between atoms: C_7  and  S_8
REMARK    8  A    between atoms: C_7  and  C_28
REMARK    9  A    between atoms: S_8  and  C_9
REMARK   10  A    between atoms: C_14  and  N_15
REMARK   11  A    between atoms: N_15  and  C_16
REMARK   12  A    between atoms: C_16  and  C_17
REMARK   13  A    between atoms: C_28  and  O_30
REMARK                            x       y       z     vdW  Elec       q    Type
REMARK                         _______ _______ _______ _____ _____    ______ ____
ROOT
ATOM      1  C   UNL     1       4.172   4.660  19.280  0.00  0.00    +0.000 A 
ATOM      2  N   UNL     1       3.591   3.604  19.842  0.00  0.00    +0.000 NA
ATOM      3  C   UNL     1       2.458   3.876  20.499  0.00  0.00    +0.000 A 
ATOM      4 CL   UNL     1       1.713   2.508  21.220  0.00  0.00    +0.000 Cl
ATOM      5  C   UNL     1       1.899   5.122  20.623  0.00  0.00    +0.000 A 
ATOM      6  C   UNL     1       2.568   6.150  20.000  0.00  0.00    +0.000 A 
ATOM      7  N   UNL     1       3.704   5.922  19.312  0.00  0.00    +0.000 NA
ENDROOT
BRANCH   6   8
ATOM      8  N   UNL     1       2.109   7.460  20.217  0.00  0.00    +0.000 N 
ATOM      9  H   UNL     1       2.870   8.129  20.301  0.00  0.00    +0.000 HD
BRANCH   8  10
ATOM     10  C   UNL     1       1.134   7.632  21.284  0.00  0.00    +0.000 C 
BRANCH  10  11
ATOM     11  C   UNL     1       0.558   9.033  21.228  0.00  0.00    +0.000 A 
ATOM     12  C   UNL     1       0.095   9.679  22.382  0.00  0.00    +0.000 A 
ATOM     13  C   UNL     1      -0.474  10.959  22.294  0.00  0.00    +0.000 A 
ATOM     14  C   UNL     1      -0.606  11.625  21.083  0.00  0.00    +0.000 A 
ATOM     15  N   UNL     1      -1.190  12.840  21.050  0.00  0.00    +0.000 NA
ATOM     16  C   UNL     1      -1.312  13.450  19.851  0.00  0.00    +0.000 A 
ATOM     17  C   UNL     1      -0.866  12.911  18.660  0.00  0.00    +0.000 A 
ATOM     18  C   UNL     1      -0.258  11.662  18.700  0.00  0.00    +0.000 A 
ATOM     19  C   UNL     1      -0.120  10.987  19.922  0.00  0.00    +0.000 A 
ATOM     20  C   UNL     1       0.466   9.710  20.003  0.00  0.00    +0.000 A 
ENDBRANCH  10  11
ENDBRANCH   8  10
ENDBRANCH   6   8
BRANCH   1  21
ATOM     21  S   UNL     1       5.590   4.345  18.259  0.00  0.00    +0.000 S 
BRANCH  21  22
ATOM     22  C   UNL     1       5.793   5.958  17.392  0.00  0.00    +0.000 C 
BRANCH  22  23
ATOM     23  C   UNL     1       7.075   6.684  17.806  0.00  0.00    +0.000 C 
ATOM     24  O   UNL     1       7.778   6.341  18.747  0.00  0.00    +0.000 OA
BRANCH  23  25
ATOM     25  O   UNL     1       7.467   7.685  16.981  0.00  0.00    +0.000 OA
ATOM     26  H   UNL     1       7.331   7.452  16.036  0.00  0.00    +0.000 HD
ENDBRANCH  23  25
ENDBRANCH  22  23
BRANCH  22  27
ATOM     27  C   UNL     1       5.660   5.914  15.859  0.00  0.00    +0.000 C 
BRANCH  27  28
ATOM     28  C   UNL     1       6.542   4.925  15.091  0.00  0.00    +0.000 C 
BRANCH  28  29
ATOM     29  C   UNL     1       5.799   3.843  14.298  0.00  0.00    +0.000 C 
BRANCH  29  30
ATOM     30  C   UNL     1       6.323   3.834  12.854  0.00  0.00    +0.000 C 
BRANCH  30  32
ATOM     31  C   UNL     1       4.343   3.283  11.426  0.00  0.00    +0.000 C 
ATOM     32  C   UNL     1       5.675   2.775  11.965  0.00  0.00    +0.000 C 
ENDBRANCH  30  32
ENDBRANCH  29  30
ENDBRANCH  28  29
ENDBRANCH  27  28
ENDBRANCH  22  27
ENDBRANCH  21  22
ENDBRANCH   1  21
TORSDOF 12
ENDMDL
MODEL 2
REMARK VINA RESULT:      -8.0      2.661      4.490
REMARK  Name = 
REMARK  13 active torsions:
REMARK  status: ('A' for Active; 'I' for Inactive)
REMARK    1  A    between atoms: C_1  and  C_2
REMARK    2  A    between atoms: C_2  and  C_3
REMARK    3  A    between atoms: C_3  and  C_4
REMARK    4  A    between atoms: C_4  and  C_5
REMARK    5  A    between atoms: C_5  and  C_6
REMARK    6  A    between atoms: C_6  and  C_7
REMARK    7  A    between atoms: C_7  and  S_8
REMARK    8  A    between atoms: C_7  and  C_28
REMARK    9  A    between atoms: S_8  and  C_9
REMARK   10  A    between atoms: C_14  and  N_15
REMARK   11  A    between atoms: N_15  and  C_16
REMARK   12  A    between atoms: C_16  and  C_17
REMARK   13  A    between atoms: C_28  and  O_30
REMARK                            x       y       z     vdW  Elec       q    Type
REMARK                         _______ _______ _______ _____ _____    ______ ____
ROOT
ATOM      1  C   UNL     1       4.147   5.060  17.817  0.00  0.00    +0.000 A 
ATOM      2  N   UNL     1       3.574   3.860  17.768  0.00  0.00    +0.000 NA
ATOM      3  C   UNL     1       2.470   3.740  18.513  0.00  0.00    +0.000 A 
ATOM      4 CL   UNL     1       1.736   2.189  18.443  0.00  0.00    +0.000 Cl
ATOM      5  C   UNL     1       1.930   4.733  19.288  0.00  0.00    +0.000 A 
ATOM      6  C   UNL     1       2.588   5.942  19.268  0.00  0.00    +0.000 A 
ATOM      7  N   UNL     1       3.695   6.116  18.519  0.00  0.00    +0.000 NA
ENDROOT
BRANCH   6   8
ATOM      8  N   UNL     1       2.152   6.942  20.152  0.00  0.00    +0.000 N 
ATOM      9  H   UNL     1       1.447   6.605  20.802  0.00  0.00    +0.000 HD
BRANCH   8  10
ATOM     10  C   UNL     1       1.754   8.206  19.550  0.00  0.00    +0.000 C 
BRANCH  10  11
ATOM     11  C   UNL     1       1.016   9.048  20.571  0.00  0.00    +0.000 A 
ATOM     12  C   UNL     1       0.846   8.612  21.891  0.00  0.00    +0.000 A 
ATOM     13  C   UNL     1       0.120   9.394  22.804  0.00  0.00    +0.000 A 
ATOM     14  C   UNL     1      -0.453  10.606  22.444  0.00  0.00    +0.000 A 
ATOM     15  N   UNL     1      -1.168  11.302  23.352  0.00  0.00    +0.000 NA
ATOM     16  C   UNL     1      -1.721  12.470  22.959  0.00  0.00    +0.000 A 
ATOM     17  C   UNL     1      -1.591  13.000  21.690  0.00  0.00    +0.000 A 
ATOM     18  C   UNL     1      -0.847  12.283  20.761  0.00  0.00    +0.000 A 
ATOM     19  C   UNL     1      -0.263  11.059  21.121  0.00  0.00    +0.000 A 
ATOM     20  C   UNL     1       0.475  10.290  20.203  0.00  0.00    +0.000 A 
ENDBRANCH  10  11
ENDBRANCH   8  10
ENDBRANCH   6   8
BRANCH   1  21
ATOM     21  S   UNL     1       5.522   5.336  16.728  0.00  0.00    +0.000 S 
BRANCH  21  22
ATOM     22  C   UNL     1       6.749   6.109  17.864  0.00  0.00    +0.000 C 
BRANCH  22  23
ATOM     23  C   UNL     1       7.726   5.085  18.448  0.00  0.00    +0.000 C 
ATOM     24  O   UNL     1       8.060   5.057  19.624  0.00  0.00    +0.000 OA
BRANCH  23  25
ATOM     25  O   UNL     1       8.125   4.111  17.593  0.00  0.00    +0.000 OA
ATOM     26  H   UNL     1       7.405   3.851  16.978  0.00  0.00    +0.000 HD
ENDBRANCH  23  25
ENDBRANCH  22  23
BRANCH  22  27
ATOM     27  C   UNL     1       7.504   7.327  17.304  0.00  0.00    +0.000 C 
BRANCH  27  28
ATOM     28  C   UNL     1       8.369   8.142  18.269  0.00  0.00    +0.000 C 
BRANCH  28  29
ATOM     29  C   UNL     1       8.272   9.667  18.132  0.00  0.00    +0.000 C 
BRANCH  29  30
ATOM     30  C   UNL     1       9.524  10.305  18.752  0.00  0.00    +0.000 C 
BRANCH  30  32
ATOM     31  C   UNL     1      10.498  11.744  20.552  0.00  0.00    +0.000 C 
ATOM     32  C   UNL     1       9.291  10.913  20.133  0.00  0.00    +0.000 C 
ENDBRANCH  30  32
ENDBRANCH  29  30
ENDBRANCH  28  29
ENDBRANCH  27  28
ENDBRANCH  22  27
ENDBRANCH  21  22
ENDBRANCH   1  21
TORSDOF 12
ENDMDL
MODEL 3
REMARK VINA RESULT:      -7.9      2.415      4.565
REMARK  Name = 
REMARK  13 active torsions:
REMARK  status: ('A' for Active; 'I' for Inactive)
REMARK    1  A    between atoms: C_1  and  C_2
REMARK    2  A    between atoms: C_2  and  C_3
REMARK    3  A    between atoms: C_3  and  C_4
REMARK    4  A    between atoms: C_4  and  C_5
REMARK    5  A    between atoms: C_5  and  C_6
REMARK    6  A    between atoms: C_6  and  C_7
REMARK    7  A    between atoms: C_7  and  S_8
REMARK    8  A    between atoms: C_7  and  C_28
REMARK    9  A    between atoms: S_8  and  C_9
REMARK   10  A    between atoms: C_14  and  N_15
REMARK   11  A    between atoms: N_15  and  C_16
REMARK   12  A    between atoms: C_16  and  C_17
REMARK   13  A    between atoms: C_28  and  O_30
REMARK                            x       y       z     vdW  Elec       q    Type
REMARK                         _______ _______ _______ _____ _____    ______ ____
ROOT
ATOM      1  C   UNL     1       5.113   5.021  18.551  0.00  0.00    +0.000 A 
ATOM      2  N   UNL     1       4.612   3.839  18.203  0.00  0.00    +0.000 NA
ATOM      3  C   UNL     1       3.287   3.829  18.017  0.00  0.00    +0.000 A 
ATOM      4 CL   UNL     1       2.648   2.302  17.565  0.00  0.00    +0.000 Cl
ATOM      5  C   UNL     1       2.463   4.914  18.165  0.00  0.00    +0.000 A 
ATOM      6  C   UNL     1       3.074   6.095  18.520  0.00  0.00    +0.000 A 
ATOM      7  N   UNL     1       4.408   6.158  18.702  0.00  0.00    +0.000 NA
ENDROOT
BRANCH   6   8
ATOM      8  N   UNL     1       2.254   7.196  18.819  0.00  0.00    +0.000 N 
ATOM      9  H   UNL     1       2.527   8.032  18.309  0.00  0.00    +0.000 HD
BRANCH   8  10
ATOM     10  C   UNL     1       2.051   7.482  20.232  0.00  0.00    +0.000 C 
BRANCH  10  11
ATOM     11  C   UNL     1       1.135   8.680  20.383  0.00  0.00    +0.000 A 
ATOM     12  C   UNL     1       0.896   9.556  19.316  0.00  0.00    +0.000 A 
ATOM     13  C   UNL     1       0.078  10.682  19.498  0.00  0.00    +0.000 A 
ATOM     14  C   UNL     1      -0.513  10.974  20.719  0.00  0.00    +0.000 A 
ATOM     15  N   UNL     1      -1.264  12.088  20.848  0.00  0.00    +0.000 NA
ATOM     16  C   UNL     1      -1.812  12.344  22.055  0.00  0.00    +0.000 A 
ATOM     17  C   UNL     1      -1.659  11.532  23.163  0.00  0.00    +0.000 A 
ATOM     18  C   UNL     1      -0.891  10.383  23.023  0.00  0.00    +0.000 A 
ATOM     19  C   UNL     1      -0.294  10.082  21.790  0.00  0.00    +0.000 A 
ATOM     20  C   UNL     1       0.513   8.942  21.613  0.00  0.00    +0.000 A 
ENDBRANCH  10  11
ENDBRANCH   8  10
ENDBRANCH   6   8
BRANCH   1  21
ATOM     21  S   UNL     1       6.882   5.142  18.656  0.00  0.00    +0.000 S 
BRANCH  21  22
ATOM     22  C   UNL     1       7.282   6.105  17.139  0.00  0.00    +0.000 C 
BRANCH  22  23
ATOM     23  C   UNL     1       6.408   5.704  15.948  0.00  0.00    +0.000 C 
ATOM     24  O   UNL     1       6.477   4.618  15.389  0.00  0.00    +0.000 OA
BRANCH  23  25
ATOM     25  O   UNL     1       5.445   6.596  15.608  0.00  0.00    +0.000 OA
ATOM     26  H   UNL     1       4.556   6.302  15.907  0.00  0.00    +0.000 HD
ENDBRANCH  23  25
ENDBRANCH  22  23
BRANCH  22  27
ATOM     27  C   UNL     1       7.308   7.635  17.306  0.00  0.00    +0.000 C 
BRANCH  27  28
ATOM     28  C   UNL     1       8.328   8.233  18.279  0.00  0.00    +0.000 C 
BRANCH  28  29
ATOM     29  C   UNL     1       8.529   9.751  18.189  0.00  0.00    +0.000 C 
BRANCH  29  30
ATOM     30  C   UNL     1       9.258  10.234  19.452  0.00  0.00    +0.000 C 
BRANCH  30  32
ATOM     31  C   UNL     1      10.391  11.671  17.745  0.00  0.00    +0.000 C 
ATOM     32  C   UNL     1      10.459  11.133  19.170  0.00  0.00    +0.000 C 
ENDBRANCH  30  32
ENDBRANCH  29  30
ENDBRANCH  28  29
ENDBRANCH  27  28
ENDBRANCH  22  27
ENDBRANCH  21  22
ENDBRANCH   1  21
TORSDOF 12
ENDMDL
MODEL 4
REMARK VINA RESULT:      -7.9      1.259      1.638
REMARK  Name = 
REMARK  13 active torsions:
REMARK  status: ('A' for Active; 'I' for Inactive)
REMARK    1  A    between atoms: C_1  and  C_2
REMARK    2  A    between atoms: C_2  and  C_3
REMARK    3  A    between atoms: C_3  and  C_4
REMARK    4  A    between atoms: C_4  and  C_5
REMARK    5  A    between atoms: C_5  and  C_6
REMARK    6  A    between atoms: C_6  and  C_7
REMARK    7  A    between atoms: C_7  and  S_8
REMARK    8  A    between atoms: C_7  and  C_28
REMARK    9  A    between atoms: S_8  and  C_9
REMARK   10  A    between atoms: C_14  and  N_15
REMARK   11  A    between atoms: N_15  and  C_16
REMARK   12  A    between atoms: C_16  and  C_17
REMARK   13  A    between atoms: C_28  and  O_30
REMARK                            x       y       z     vdW  Elec       q    Type
REMARK                         _______ _______ _______ _____ _____    ______ ____
ROOT
ATOM      1  C   UNL     1       4.040   4.598  19.153  0.00  0.00    +0.000 A 
ATOM      2  N   UNL     1       3.441   3.416  19.027  0.00  0.00    +0.000 NA
ATOM      3  C   UNL     1       2.197   3.369  19.516  0.00  0.00    +0.000 A 
ATOM      4 CL   UNL     1       1.429   1.843  19.349  0.00  0.00    +0.000 Cl
ATOM      5  C   UNL     1       1.544   4.417  20.114  0.00  0.00    +0.000 A 
ATOM      6  C   UNL     1       2.242   5.600  20.190  0.00  0.00    +0.000 A 
ATOM      7  N   UNL     1       3.492   5.701  19.696  0.00  0.00    +0.000 NA
ENDROOT
BRANCH   6   8
ATOM      8  N   UNL     1       1.668   6.656  20.917  0.00  0.00    +0.000 N 
ATOM      9  H   UNL     1       0.690   6.488  21.138  0.00  0.00    +0.000 HD
BRANCH   8  10
ATOM     10  C   UNL     1       1.863   7.993  20.374  0.00  0.00    +0.000 C 
BRANCH  10  11
ATOM     11  C   UNL     1       0.943   8.969  21.079  0.00  0.00    +0.000 A 
ATOM     12  C   UNL     1       0.792   8.955  22.472  0.00  0.00    +0.000 A 
ATOM     13  C   UNL     1      -0.100   9.843  23.093  0.00  0.00    +0.000 A 
ATOM     14  C   UNL     1      -0.860  10.751  22.369  0.00  0.00    +0.000 A 
ATOM     15  N   UNL     1      -1.727  11.559  23.014  0.00  0.00    +0.000 NA
ATOM     16  C   UNL     1      -2.458  12.420  22.273  0.00  0.00    +0.000 A 
ATOM     17  C   UNL     1      -2.366  12.530  20.899  0.00  0.00    +0.000 A 
ATOM     18  C   UNL     1      -1.467  11.701  20.241  0.00  0.00    +0.000 A 
ATOM     19  C   UNL     1      -0.694  10.784  20.968  0.00  0.00    +0.000 A 
ATOM     20  C   UNL     1       0.209   9.908  20.338  0.00  0.00    +0.000 A 
ENDBRANCH  10  11
ENDBRANCH   8  10
ENDBRANCH   6   8
BRANCH   1  21
ATOM     21  S   UNL     1       5.630   4.775  18.382  0.00  0.00    +0.000 S 
BRANCH  21  22
ATOM     22  C   UNL     1       5.165   5.014  16.616  0.00  0.00    +0.000 C 
BRANCH  22  23
ATOM     23  C   UNL     1       5.636   6.363  16.067  0.00  0.00    +0.000 C 
ATOM     24  O   UNL     1       5.027   7.004  15.222  0.00  0.00    +0.000 OA
BRANCH  23  25
ATOM     25  O   UNL     1       6.734   6.882  16.669  0.00  0.00    +0.000 OA
ATOM     26  H   UNL     1       7.476   6.238  16.689  0.00  0.00    +0.000 HD
ENDBRANCH  23  25
ENDBRANCH  22  23
BRANCH  22  27
ATOM     27  C   UNL     1       5.554   3.870  15.662  0.00  0.00    +0.000 C 
BRANCH  27  28
ATOM     28  C   UNL     1       6.513   4.190  14.512  0.00  0.00    +0.000 C 
BRANCH  28  29
ATOM     29  C   UNL     1       5.897   4.191  13.107  0.00  0.00    +0.000 C 
BRANCH  29  30
ATOM     30  C   UNL     1       6.384   2.948  12.348  0.00  0.00    +0.000 C 
BRANCH  30  32
ATOM     31  C   UNL     1       4.142   3.283  11.286  0.00  0.00    +0.000 C 
ATOM     32  C   UNL     1       5.346   2.354  11.400  0.00  0.00    +0.000 C 
ENDBRANCH  30  32
ENDBRANCH  29  30
ENDBRANCH  28  29
ENDBRANCH  27  28
ENDBRANCH  22  27
ENDBRANCH  21  22
ENDBRANCH   1  21
TORSDOF 12
ENDMDL
MODEL 5
REMARK VINA RESULT:      -7.8      1.298      2.307
REMARK  Name = 
REMARK  13 active torsions:
REMARK  status: ('A' for Active; 'I' for Inactive)
REMARK    1  A    between atoms: C_1  and  C_2
REMARK    2  A    between atoms: C_2  and  C_3
REMARK    3  A    between atoms: C_3  and  C_4
REMARK    4  A    between atoms: C_4  and  C_5
REMARK    5  A    between atoms: C_5  and  C_6
REMARK    6  A    between atoms: C_6  and  C_7
REMARK    7  A    between atoms: C_7  and  S_8
REMARK    8  A    between atoms: C_7  and  C_28
REMARK    9  A    between atoms: S_8  and  C_9
REMARK   10  A    between atoms: C_14  and  N_15
REMARK   11  A    between atoms: N_15  and  C_16
REMARK   12  A    between atoms: C_16  and  C_17
REMARK   13  A    between atoms: C_28  and  O_30
REMARK                            x       y       z     vdW  Elec       q    Type
REMARK                         _______ _______ _______ _____ _____    ______ ____
ROOT
ATOM      1  C   UNL     1       4.554   5.000  18.901  0.00  0.00    +0.000 A 
ATOM      2  N   UNL     1       4.017   3.854  19.313  0.00  0.00    +0.000 NA
ATOM      3  C   UNL     1       2.689   3.782  19.177  0.00  0.00    +0.000 A 
ATOM      4 CL   UNL     1       2.003   2.300  19.708  0.00  0.00    +0.000 Cl
ATOM      5  C   UNL     1       1.893   4.776  18.670  0.00  0.00    +0.000 A 
ATOM      6  C   UNL     1       2.540   5.921  18.263  0.00  0.00    +0.000 A 
ATOM      7  N   UNL     1       3.879   6.033  18.365  0.00  0.00    +0.000 NA
ENDROOT
BRANCH   6   8
ATOM      8  N   UNL     1       1.753   7.016  17.869  0.00  0.00    +0.000 N 
ATOM      9  H   UNL     1       1.405   6.921  16.918  0.00  0.00    +0.000 HD
BRANCH   8  10
ATOM     10  C   UNL     1       2.327   8.335  18.092  0.00  0.00    +0.000 C 
BRANCH  10  11
ATOM     11  C   UNL     1       1.397   9.156  18.962  0.00  0.00    +0.000 A 
ATOM     12  C   UNL     1       0.740  10.289  18.464  0.00  0.00    +0.000 A 
ATOM     13  C   UNL     1      -0.081  11.055  19.306  0.00  0.00    +0.000 A 
ATOM     14  C   UNL     1      -0.271  10.733  20.643  0.00  0.00    +0.000 A 
ATOM     15  N   UNL     1      -1.045  11.522  21.416  0.00  0.00    +0.000 NA
ATOM     16  C   UNL     1      -1.194  11.183  22.714  0.00  0.00    +0.000 A 
ATOM     17  C   UNL     1      -0.612  10.074  23.297  0.00  0.00    +0.000 A 
ATOM     18  C   UNL     1       0.178   9.260  22.495  0.00  0.00    +0.000 A 
ATOM     19  C   UNL     1       0.370   9.580  21.142  0.00  0.00    +0.000 A 
ATOM     20  C   UNL     1       1.184   8.797  20.302  0.00  0.00    +0.000 A 
ENDBRANCH  10  11
ENDBRANCH   8  10
ENDBRANCH   6   8
BRANCH   1  21
ATOM     21  S   UNL     1       6.327   5.100  18.903  0.00  0.00    +0.000 S 
BRANCH  21  22
ATOM     22  C   UNL     1       6.636   6.280  17.523  0.00  0.00    +0.000 C 
BRANCH  22  23
ATOM     23  C   UNL     1       7.721   7.304  17.865  0.00  0.00    +0.000 C 
ATOM     24  O   UNL     1       7.901   8.339  17.239  0.00  0.00    +0.000 OA
BRANCH  23  25
ATOM     25  O   UNL     1       8.417   7.054  19.001  0.00  0.00    +0.000 OA
ATOM     26  H   UNL     1       8.854   6.174  18.974  0.00  0.00    +0.000 HD
ENDBRANCH  23  25
ENDBRANCH  22  23
BRANCH  22  27
ATOM     27  C   UNL     1       6.900   5.643  16.146  0.00  0.00    +0.000 C 
BRANCH  27  28
ATOM     28  C   UNL     1       5.898   4.604  15.633  0.00  0.00    +0.000 C 
BRANCH  28  29
ATOM     29  C   UNL     1       6.317   3.835  14.373  0.00  0.00    +0.000 C 
BRANCH  29  30
ATOM     30  C   UNL     1       5.247   4.031  13.290  0.00  0.00    +0.000 C 
BRANCH  30  32
ATOM     31  C   UNL     1       6.944   3.083  11.715  0.00  0.00    +0.000 C 
ATOM     32  C   UNL     1       5.459   3.174  12.046  0.00  0.00    +0.000 C 
ENDBRANCH  30  32
ENDBRANCH  29  30
ENDBRANCH  28  29
ENDBRANCH  27  28
ENDBRANCH  22  27
ENDBRANCH  21  22
ENDBRANCH   1  21
TORSDOF 12
ENDMDL
MODEL 6
REMARK VINA RESULT:      -7.8      1.625      2.250
REMARK  Name = 
REMARK  13 active torsions:
REMARK  status: ('A' for Active; 'I' for Inactive)
REMARK    1  A    between atoms: C_1  and  C_2
REMARK    2  A    between atoms: C_2  and  C_3
REMARK    3  A    between atoms: C_3  and  C_4
REMARK    4  A    between atoms: C_4  and  C_5
REMARK    5  A    between atoms: C_5  and  C_6
REMARK    6  A    between atoms: C_6  and  C_7
REMARK    7  A    between atoms: C_7  and  S_8
REMARK    8  A    between atoms: C_7  and  C_28
REMARK    9  A    between atoms: S_8  and  C_9
REMARK   10  A    between atoms: C_14  and  N_15
REMARK   11  A    between atoms: N_15  and  C_16
REMARK   12  A    between atoms: C_16  and  C_17
REMARK   13  A    between atoms: C_28  and  O_30
REMARK                            x       y       z     vdW  Elec       q    Type
REMARK                         _______ _______ _______ _____ _____    ______ ____
ROOT
ATOM      1  C   UNL     1       4.161   5.772  17.376  0.00  0.00    +0.000 A 
ATOM      2  N   UNL     1       3.748   4.537  17.102  0.00  0.00    +0.000 NA
ATOM      3  C   UNL     1       2.889   4.028  17.992  0.00  0.00    +0.000 A 
ATOM      4 CL   UNL     1       2.358   2.436  17.630  0.00  0.00    +0.000 Cl
ATOM      5  C   UNL     1       2.442   4.674  19.115  0.00  0.00    +0.000 A 
ATOM      6  C   UNL     1       2.919   5.950  19.310  0.00  0.00    +0.000 A 
ATOM      7  N   UNL     1       3.773   6.512  18.432  0.00  0.00    +0.000 NA
ENDROOT
BRANCH   6   8
ATOM      8  N   UNL     1       2.598   6.594  20.516  0.00  0.00    +0.000 N 
ATOM      9  H   UNL     1       3.120   6.222  21.305  0.00  0.00    +0.000 HD
BRANCH   8  10
ATOM     10  C   UNL     1       1.181   6.711  20.827  0.00  0.00    +0.000 C 
BRANCH  10  11
ATOM     11  C   UNL     1       0.780   8.172  20.843  0.00  0.00    +0.000 A 
ATOM     12  C   UNL     1       1.136   9.039  19.801  0.00  0.00    +0.000 A 
ATOM     13  C   UNL     1       0.789  10.397  19.863  0.00  0.00    +0.000 A 
ATOM     14  C   UNL     1       0.096  10.932  20.941  0.00  0.00    +0.000 A 
ATOM     15  N   UNL     1      -0.184  12.251  20.966  0.00  0.00    +0.000 NA
ATOM     16  C   UNL     1      -0.847  12.736  22.038  0.00  0.00    +0.000 A 
ATOM     17  C   UNL     1      -1.266  11.963  23.104  0.00  0.00    +0.000 A 
ATOM     18  C   UNL     1      -0.981  10.604  23.070  0.00  0.00    +0.000 A 
ATOM     19  C   UNL     1      -0.284  10.058  21.981  0.00  0.00    +0.000 A 
ATOM     20  C   UNL     1       0.047   8.692  21.921  0.00  0.00    +0.000 A 
ENDBRANCH  10  11
ENDBRANCH   8  10
ENDBRANCH   6   8
BRANCH   1  21
ATOM     21  S   UNL     1       5.174   6.568  16.155  0.00  0.00    +0.000 S 
BRANCH  21  22
ATOM     22  C   UNL     1       6.702   5.540  16.209  0.00  0.00    +0.000 C 
BRANCH  22  23
ATOM     23  C   UNL     1       7.246   5.381  17.631  0.00  0.00    +0.000 C 
ATOM     24  O   UNL     1       7.625   4.317  18.099  0.00  0.00    +0.000 OA
BRANCH  23  25
ATOM     25  O   UNL     1       7.401   6.536  18.324  0.00  0.00    +0.000 OA
ATOM     26  H   UNL     1       6.540   6.978  18.489  0.00  0.00    +0.000 HD
ENDBRANCH  23  25
ENDBRANCH  22  23
BRANCH  22  27
ATOM     27  C   UNL     1       6.614   4.175  15.502  0.00  0.00    +0.000 C 
BRANCH  27  28
ATOM     28  C   UNL     1       5.832   4.097  14.187  0.00  0.00    +0.000 C 
BRANCH  28  29
ATOM     29  C   UNL     1       6.647   3.715  12.945  0.00  0.00    +0.000 C 
BRANCH  29  30
ATOM     30  C   UNL     1       5.724   3.013  11.939  0.00  0.00    +0.000 C 
BRANCH  30  32
ATOM     31  C   UNL     1       3.519   2.923  10.758  0.00  0.00    +0.000 C 
ATOM     32  C   UNL     1       4.394   3.727  11.714  0.00  0.00    +0.000 C 
ENDBRANCH  30  32
ENDBRANCH  29  30
ENDBRANCH  28  29
ENDBRANCH  27  28
ENDBRANCH  22  27
ENDBRANCH  21  22
ENDBRANCH   1  21
TORSDOF 12
ENDMDL
MODEL 7
REMARK VINA RESULT:      -7.8      1.043      1.230
REMARK  Name = 
REMARK  13 active torsions:
REMARK  status: ('A' for Active; 'I' for Inactive)
REMARK    1  A    between atoms: C_1  and  C_2
REMARK    2  A    between atoms: C_2  and  C_3
REMARK    3  A    between atoms: C_3  and  C_4
REMARK    4  A    between atoms: C_4  and  C_5
REMARK    5  A    between atoms: C_5  and  C_6
REMARK    6  A    between atoms: C_6  and  C_7
REMARK    7  A    between atoms: C_7  and  S_8
REMARK    8  A    between atoms: C_7  and  C_28
REMARK    9  A    between atoms: S_8  and  C_9
REMARK   10  A    between atoms: C_14  and  N_15
REMARK   11  A    between atoms: N_15  and  C_16
REMARK   12  A    between atoms: C_16  and  C_17
REMARK   13  A    between atoms: C_28  and  O_30
REMARK                            x       y       z     vdW  Elec       q    Type
REMARK                         _______ _______ _______ _____ _____    ______ ____
ROOT
ATOM      1  C   UNL     1       3.428   4.318  18.659  0.00  0.00    +0.000 A 
ATOM      2  N   UNL     1       3.167   3.357  19.541  0.00  0.00    +0.000 NA
ATOM      3  C   UNL     1       2.479   3.761  20.615  0.00  0.00    +0.000 A 
ATOM      4 CL   UNL     1       2.143   2.515  21.748  0.00  0.00    +0.000 Cl
ATOM      5  C   UNL     1       2.057   5.045  20.845  0.00  0.00    +0.000 A 
ATOM      6  C   UNL     1       2.368   5.967  19.872  0.00  0.00    +0.000 A 
ATOM      7  N   UNL     1       3.045   5.604  18.764  0.00  0.00    +0.000 NA
ENDROOT
BRANCH   6   8
ATOM      8  N   UNL     1       2.080   7.317  20.130  0.00  0.00    +0.000 N 
ATOM      9  H   UNL     1       2.884   7.921  19.978  0.00  0.00    +0.000 HD
BRANCH   8  10
ATOM     10  C   UNL     1       1.434   7.607  21.402  0.00  0.00    +0.000 C 
BRANCH  10  11
ATOM     11  C   UNL     1       0.681   8.918  21.305  0.00  0.00    +0.000 A 
ATOM     12  C   UNL     1       0.213   9.577  22.450  0.00  0.00    +0.000 A 
ATOM     13  C   UNL     1      -0.519  10.768  22.328  0.00  0.00    +0.000 A 
ATOM     14  C   UNL     1      -0.812  11.330  21.093  0.00  0.00    +0.000 A 
ATOM     15  N   UNL     1      -1.549  12.459  21.030  0.00  0.00    +0.000 NA
ATOM     16  C   UNL     1      -1.823  12.967  19.810  0.00  0.00    +0.000 A 
ATOM     17  C   UNL     1      -1.388  12.409  18.623  0.00  0.00    +0.000 A 
ATOM     18  C   UNL     1      -0.624  11.251  18.693  0.00  0.00    +0.000 A 
ATOM     19  C   UNL     1      -0.323  10.681  19.939  0.00  0.00    +0.000 A 
ATOM     20  C   UNL     1       0.425   9.495  20.052  0.00  0.00    +0.000 A 
ENDBRANCH  10  11
ENDBRANCH   8  10
ENDBRANCH   6   8
BRANCH   1  21
ATOM     21  S   UNL     1       4.197   3.821  17.138  0.00  0.00    +0.000 S 
BRANCH  21  22
ATOM     22  C   UNL     1       5.580   5.031  17.004  0.00  0.00    +0.000 C 
BRANCH  22  23
ATOM     23  C   UNL     1       6.577   4.903  18.158  0.00  0.00    +0.000 C 
ATOM     24  O   UNL     1       7.634   4.292  18.079  0.00  0.00    +0.000 OA
BRANCH  23  25
ATOM     25  O   UNL     1       6.276   5.620  19.268  0.00  0.00    +0.000 OA
ATOM     26  H   UNL     1       5.640   5.144  19.846  0.00  0.00    +0.000 HD
ENDBRANCH  23  25
ENDBRANCH  22  23
BRANCH  22  27
ATOM     27  C   UNL     1       6.311   5.063  15.650  0.00  0.00    +0.000 C 
BRANCH  27  28
ATOM     28  C   UNL     1       5.750   4.206  14.512  0.00  0.00    +0.000 C 
BRANCH  28  29
ATOM     29  C   UNL     1       6.582   4.177  13.223  0.00  0.00    +0.000 C 
BRANCH  29  30
ATOM     30  C   UNL     1       5.930   3.203  12.230  0.00  0.00    +0.000 C 
BRANCH  30  32
ATOM     31  C   UNL     1       6.329   1.018  11.077  0.00  0.00    +0.000 C 
ATOM     32  C   UNL     1       6.930   2.375  11.426  0.00  0.00    +0.000 C 
ENDBRANCH  30  32
ENDBRANCH  29  30
ENDBRANCH  28  29
ENDBRANCH  27  28
ENDBRANCH  22  27
ENDBRANCH  21  22
ENDBRANCH   1  21
TORSDOF 12
ENDMDL
MODEL 8
REMARK VINA RESULT:      -7.7      1.071      1.862
REMARK  Name = 
REMARK  13 active torsions:
REMARK  status: ('A' for Active; 'I' for Inactive)
REMARK    1  A    between atoms: C_1  and  C_2
REMARK    2  A    between atoms: C_2  and  C_3
REMARK    3  A    between atoms: C_3  and  C_4
REMARK    4  A    between atoms: C_4  and  C_5
REMARK    5  A    between atoms: C_5  and  C_6
REMARK    6  A    between atoms: C_6  and  C_7
REMARK    7  A    between atoms: C_7  and  S_8
REMARK    8  A    between atoms: C_7  and  C_28
REMARK    9  A    between atoms: S_8  and  C_9
REMARK   10  A    between atoms: C_14  and  N_15
REMARK   11  A    between atoms: N_15  and  C_16
REMARK   12  A    between atoms: C_16  and  C_17
REMARK   13  A    between atoms: C_28  and  O_30
REMARK                            x       y       z     vdW  Elec       q    Type
REMARK                         _______ _______ _______ _____ _____    ______ ____
ROOT
ATOM      1  C   UNL     1       3.936   4.452  19.096  0.00  0.00    +0.000 A 
ATOM      2  N   UNL     1       3.017   3.490  19.109  0.00  0.00    +0.000 NA
ATOM      3  C   UNL     1       1.805   3.884  19.512  0.00  0.00    +0.000 A 
ATOM      4 CL   UNL     1       0.624   2.638  19.523  0.00  0.00    +0.000 Cl
ATOM      5  C   UNL     1       1.478   5.159  19.897  0.00  0.00    +0.000 A 
ATOM      6  C   UNL     1       2.493   6.087  19.842  0.00  0.00    +0.000 A 
ATOM      7  N   UNL     1       3.727   5.740  19.427  0.00  0.00    +0.000 NA
ENDROOT
BRANCH   6   8
ATOM      8  N   UNL     1       2.240   7.368  20.359  0.00  0.00    +0.000 N 
ATOM      9  H   UNL     1       3.066   7.785  20.782  0.00  0.00    +0.000 HD
BRANCH   8  10
ATOM     10  C   UNL     1       1.081   7.494  21.230  0.00  0.00    +0.000 C 
BRANCH  10  11
ATOM     11  C   UNL     1       0.494   8.885  21.100  0.00  0.00    +0.000 A 
ATOM     12  C   UNL     1       0.660   9.642  19.933  0.00  0.00    +0.000 A 
ATOM     13  C   UNL     1       0.142  10.944  19.856  0.00  0.00    +0.000 A 
ATOM     14  C   UNL     1      -0.539  11.530  20.915  0.00  0.00    +0.000 A 
ATOM     15  N   UNL     1      -0.988  12.797  20.801  0.00  0.00    +0.000 NA
ATOM     16  C   UNL     1      -1.634  13.335  21.857  0.00  0.00    +0.000 A 
ATOM     17  C   UNL     1      -1.872  12.666  23.043  0.00  0.00    +0.000 A 
ATOM     18  C   UNL     1      -1.414  11.359  23.152  0.00  0.00    +0.000 A 
ATOM     19  C   UNL     1      -0.728  10.762  22.084  0.00  0.00    +0.000 A 
ATOM     20  C   UNL     1      -0.226   9.450  22.164  0.00  0.00    +0.000 A 
ENDBRANCH  10  11
ENDBRANCH   8  10
ENDBRANCH   6   8
BRANCH   1  21
ATOM     21  S   UNL     1       5.524   4.034  18.420  0.00  0.00    +0.000 S 
BRANCH  21  22
ATOM     22  C   UNL     1       5.775   5.384  17.192  0.00  0.00    +0.000 C 
BRANCH  22  23
ATOM     23  C   UNL     1       7.256   5.644  16.907  0.00  0.00    +0.000 C 
ATOM     24  O   UNL     1       7.727   6.755  16.713  0.00  0.00    +0.000 OA
BRANCH  23  25
ATOM     25  O   UNL     1       8.064   4.559  17.001  0.00  0.00    +0.000 OA
ATOM     26  H   UNL     1       7.686   3.783  16.531  0.00  0.00    +0.000 HD
ENDBRANCH  23  25
ENDBRANCH  22  23
BRANCH  22  27
ATOM     27  C   UNL     1       4.982   5.248  15.880  0.00  0.00    +0.000 C 
BRANCH  27  28
ATOM     28  C   UNL     1       5.771   5.073  14.579  0.00  0.00    +0.000 C 
BRANCH  28  29
ATOM     29  C   UNL     1       5.885   3.637  14.053  0.00  0.00    +0.000 C 
BRANCH  29  30
ATOM     30  C   UNL     1       6.283   3.678  12.571  0.00  0.00    +0.000 C 
BRANCH  30  32
ATOM     31  C   UNL     1       6.850   1.705  11.139  0.00  0.00    +0.000 C 
ATOM     32  C   UNL     1       5.717   2.527  11.744  0.00  0.00    +0.000 C 
ENDBRANCH  30  32
ENDBRANCH  29  30
ENDBRANCH  28  29
ENDBRANCH  27  28
ENDBRANCH  22  27
ENDBRANCH  21  22
ENDBRANCH   1  21
TORSDOF 12
ENDMDL
MODEL 9
REMARK VINA RESULT:      -7.7      1.200      2.076
REMARK  Name = 
REMARK  13 active torsions:
REMARK  status: ('A' for Active; 'I' for Inactive)
REMARK    1  A    between atoms: C_1  and  C_2
REMARK    2  A    between atoms: C_2  and  C_3
REMARK    3  A    between atoms: C_3  and  C_4
REMARK    4  A    between atoms: C_4  and  C_5
REMARK    5  A    between atoms: C_5  and  C_6
REMARK    6  A    between atoms: C_6  and  C_7
REMARK    7  A    between atoms: C_7  and  S_8
REMARK    8  A    between atoms: C_7  and  C_28
REMARK    9  A    between atoms: S_8  and  C_9
REMARK   10  A    between atoms: C_14  and  N_15
REMARK   11  A    between atoms: N_15  and  C_16
REMARK   12  A    between atoms: C_16  and  C_17
REMARK   13  A    between atoms: C_28  and  O_30
REMARK                            x       y       z     vdW  Elec       q    Type
REMARK                         _______ _______ _______ _____ _____    ______ ____
ROOT
ATOM      1  C   UNL     1       4.236   4.549  18.833  0.00  0.00    +0.000 A 
ATOM      2  N   UNL     1       3.398   3.517  18.790  0.00  0.00    +0.000 NA
ATOM      3  C   UNL     1       2.179   3.769  19.281  0.00  0.00    +0.000 A 
ATOM      4 CL   UNL     1       1.103   2.433  19.219  0.00  0.00    +0.000 Cl
ATOM      5  C   UNL     1       1.773   4.969  19.803  0.00  0.00    +0.000 A 
ATOM      6  C   UNL     1       2.707   5.980  19.797  0.00  0.00    +0.000 A 
ATOM      7  N   UNL     1       3.943   5.778  19.298  0.00  0.00    +0.000 NA
ENDROOT
BRANCH   6   8
ATOM      8  N   UNL     1       2.381   7.181  20.448  0.00  0.00    +0.000 N 
ATOM      9  H   UNL     1       3.096   7.469  21.111  0.00  0.00    +0.000 HD
BRANCH   8  10
ATOM     10  C   UNL     1       1.053   7.253  21.039  0.00  0.00    +0.000 C 
BRANCH  10  11
ATOM     11  C   UNL     1       0.557   8.685  21.008  0.00  0.00    +0.000 A 
ATOM     12  C   UNL     1       0.844   9.534  19.931  0.00  0.00    +0.000 A 
ATOM     13  C   UNL     1       0.409  10.868  19.950  0.00  0.00    +0.000 A 
ATOM     14  C   UNL     1      -0.305  11.396  21.017  0.00  0.00    +0.000 A 
ATOM     15  N   UNL     1      -0.670  12.694  20.999  0.00  0.00    +0.000 NA
ATOM     16  C   UNL     1      -1.353  13.173  22.062  0.00  0.00    +0.000 A 
ATOM     17  C   UNL     1      -1.707  12.414  23.160  0.00  0.00    +0.000 A 
ATOM     18  C   UNL     1      -1.335  11.076  23.171  0.00  0.00    +0.000 A 
ATOM     19  C   UNL     1      -0.616  10.537  22.093  0.00  0.00    +0.000 A 
ATOM     20  C   UNL     1      -0.197   9.194  22.076  0.00  0.00    +0.000 A 
ENDBRANCH  10  11
ENDBRANCH   8  10
ENDBRANCH   6   8
BRANCH   1  21
ATOM     21  S   UNL     1       5.816   4.331  18.053  0.00  0.00    +0.000 S 
BRANCH  21  22
ATOM     22  C   UNL     1       5.434   4.769  16.305  0.00  0.00    +0.000 C 
BRANCH  22  23
ATOM     23  C   UNL     1       5.757   6.231  15.988  0.00  0.00    +0.000 C 
ATOM     24  O   UNL     1       5.049   6.950  15.297  0.00  0.00    +0.000 OA
BRANCH  23  25
ATOM     25  O   UNL     1       6.840   6.738  16.628  0.00  0.00    +0.000 OA
ATOM     26  H   UNL     1       7.044   6.238  17.449  0.00  0.00    +0.000 HD
ENDBRANCH  23  25
ENDBRANCH  22  23
BRANCH  22  27
ATOM     27  C   UNL     1       6.029   3.834  15.237  0.00  0.00    +0.000 C 
BRANCH  27  28
ATOM     28  C   UNL     1       5.731   4.143  13.767  0.00  0.00    +0.000 C 
BRANCH  28  29
ATOM     29  C   UNL     1       6.166   3.074  12.757  0.00  0.00    +0.000 C 
BRANCH  29  30
ATOM     30  C   UNL     1       5.489   3.357  11.408  0.00  0.00    +0.000 C 
BRANCH  30  32
ATOM     31  C   UNL     1       3.344   3.856  10.219  0.00  0.00    +0.000 C 
ATOM     32  C   UNL     1       3.976   3.158  11.418  0.00  0.00    +0.000 C 
ENDBRANCH  30  32
ENDBRANCH  29  30
ENDBRANCH  28  29
ENDBRANCH  27  28
ENDBRANCH  22  27
ENDBRANCH  21  22
ENDBRANCH   1  21
TORSDOF 12
ENDMDL
