MODEL 1
REMARK VINA RESULT:      -7.1      0.000      0.000
REMARK  Name = 
REMARK  6 active torsions:
REMARK  status: ('A' for Active; 'I' for Inactive)
REMARK    1  A    between atoms: C_1  and  C_2
REMARK    2  A    between atoms: C_2  and  O_3
REMARK    3  A    between atoms: O_3  and  C_4
REMARK    4  A    between atoms: C_4  and  C_5
REMARK    5  A    between atoms: C_6  and  C_7
REMARK    6  A    between atoms: C_14  and  C_15
REMARK                            x       y       z     vdW  Elec       q    Type
REMARK                         _______ _______ _______ _____ _____    ______ ____
ROOT
ATOM      1  C   UNL     1       2.776   5.091  17.929  0.00  0.00    +0.000 A 
ATOM      2  C   UNL     1       3.050   6.103  18.851  0.00  0.00    +0.000 A 
ATOM      3  O   UNL     1       4.382   6.413  18.790  0.00  0.00    +0.000 OA
ATOM      4  C   UNL     1       4.953   5.647  17.826  0.00  0.00    +0.000 A 
ATOM      5  C   UNL     1       6.290   5.693  17.446  0.00  0.00    +0.000 A 
ATOM      6  C   UNL     1       6.687   4.803  16.441  0.00  0.00    +0.000 A 
ATOM      7  C   UNL     1       5.776   3.919  15.864  0.00  0.00    +0.000 A 
ATOM      8  C   UNL     1       4.431   3.903  16.264  0.00  0.00    +0.000 A 
ATOM      9  C   UNL     1       4.010   4.797  17.269  0.00  0.00    +0.000 A 
ENDROOT
BRANCH   2  10
ATOM     10  C   UNL     1       2.182   6.725  19.851  0.00  0.00    +0.000 C 
ATOM     11  O   UNL     1       1.640   6.029  20.713  0.00  0.00    +0.000 OA
ATOM     12  N   UNL     1       1.968   8.119  19.853  0.00  0.00    +0.000 N 
ATOM     13  C   UNL     1       2.356   9.063  18.804  0.00  0.00    +0.000 C 
ATOM     14  C   UNL     1       1.335   9.209  17.677  0.00  0.00    +0.000 C 
ATOM     15  C   UNL     1      -0.101   9.558  18.080  0.00  0.00    +0.000 C 
ATOM     16  N   UNL     1      -0.252  10.109  19.422  0.00  0.00    +0.000 N 
ATOM     17  C   UNL     1      -0.208  11.452  19.764  0.00  0.00    +0.000 C 
ATOM     18  C   UNL     1      -0.134  12.496  18.677  0.00  0.00    +0.000 C 
ATOM     19  O   UNL     1      -0.246  11.824  20.942  0.00  0.00    +0.000 OA
ATOM     20  C   UNL     1      -0.251   9.118  20.509  0.00  0.00    +0.000 C 
ATOM     21  C   UNL     1       1.161   8.698  20.942  0.00  0.00    +0.000 C 
ENDBRANCH   2  10
BRANCH   1  22
ATOM     22  C   UNL     1       1.460   4.447  17.676  0.00  0.00    +0.000 C 
BRANCH  22  23
ATOM     23  O   UNL     1       1.556   3.035  17.866  0.00  0.00    +0.000 OA
BRANCH  23  25
ATOM     24  C   UNL     1       1.579   2.507  20.187  0.00  0.00    +0.000 C 
ATOM     25  C   UNL     1       0.727   2.596  18.937  0.00  0.00    +0.000 C 
ENDBRANCH  23  25
ENDBRANCH  22  23
ENDBRANCH   1  22
TORSDOF 4
ENDMDL
MODEL 2
REMARK VINA RESULT:      -7.1      0.938      1.032
REMARK  Name = 
REMARK  6 active torsions:
REMARK  status: ('A' for Active; 'I' for Inactive)
REMARK    1  A    between atoms: C_1  and  C_2
REMARK    2  A    between atoms: C_2  and  O_3
REMARK    3  A    between atoms: O_3  and  C_4
REMARK    4  A    between atoms: C_4  and  C_5
REMARK    5  A    between atoms: C_6  and  C_7
REMARK    6  A    between atoms: C_14  and  C_15
REMARK                            x       y       z     vdW  Elec       q    Type
REMARK                         _______ _______ _______ _____ _____    ______ ____
ROOT
ATOM      1  C   UNL     1       2.677   5.112  18.453  0.00  0.00    +0.000 A 
ATOM      2  C   UNL     1       2.706   6.448  18.854  0.00  0.00    +0.000 A 
ATOM      3  O   UNL     1       3.685   7.102  18.155  0.00  0.00    +0.000 OA
ATOM      4  C   UNL     1       4.253   6.221  17.294  0.00  0.00    +0.000 A 
ATOM      5  C   UNL     1       5.269   6.517  16.390  0.00  0.00    +0.000 A 
ATOM      6  C   UNL     1       5.734   5.458  15.601  0.00  0.00    +0.000 A 
ATOM      7  C   UNL     1       5.197   4.177  15.730  0.00  0.00    +0.000 A 
ATOM      8  C   UNL     1       4.167   3.913  16.646  0.00  0.00    +0.000 A 
ATOM      9  C   UNL     1       3.680   4.968  17.445  0.00  0.00    +0.000 A 
ENDROOT
BRANCH   2  10
ATOM     10  C   UNL     1       1.959   7.130  19.911  0.00  0.00    +0.000 C 
ATOM     11  O   UNL     1       1.537   6.490  20.877  0.00  0.00    +0.000 OA
ATOM     12  N   UNL     1       1.728   8.520  19.850  0.00  0.00    +0.000 N 
ATOM     13  C   UNL     1       1.972   9.395  18.703  0.00  0.00    +0.000 C 
ATOM     14  C   UNL     1       0.819   9.461  17.702  0.00  0.00    +0.000 C 
ATOM     15  C   UNL     1      -0.562   9.828  18.256  0.00  0.00    +0.000 C 
ATOM     16  N   UNL     1      -0.554  10.465  19.569  0.00  0.00    +0.000 N 
ATOM     17  C   UNL     1      -0.487  11.828  19.816  0.00  0.00    +0.000 C 
ATOM     18  C   UNL     1      -0.561  12.799  18.662  0.00  0.00    +0.000 C 
ATOM     19  O   UNL     1      -0.386  12.276  20.962  0.00  0.00    +0.000 OA
ATOM     20  C   UNL     1      -0.407   9.548  20.709  0.00  0.00    +0.000 C 
ATOM     21  C   UNL     1       1.053   9.165  20.990  0.00  0.00    +0.000 C 
ENDBRANCH   2  10
BRANCH   1  22
ATOM     22  C   UNL     1       1.775   4.046  18.965  0.00  0.00    +0.000 C 
BRANCH  22  23
ATOM     23  O   UNL     1       2.538   2.913  19.384  0.00  0.00    +0.000 OA
BRANCH  23  25
ATOM     24  C   UNL     1       1.469   2.874  21.510  0.00  0.00    +0.000 C 
ATOM     25  C   UNL     1       2.797   2.948  20.784  0.00  0.00    +0.000 C 
ENDBRANCH  23  25
ENDBRANCH  22  23
ENDBRANCH   1  22
TORSDOF 4
ENDMDL
MODEL 3
REMARK VINA RESULT:      -6.5      4.559      6.500
REMARK  Name = 
REMARK  6 active torsions:
REMARK  status: ('A' for Active; 'I' for Inactive)
REMARK    1  A    between atoms: C_1  and  C_2
REMARK    2  A    between atoms: C_2  and  O_3
REMARK    3  A    between atoms: O_3  and  C_4
REMARK    4  A    between atoms: C_4  and  C_5
REMARK    5  A    between atoms: C_6  and  C_7
REMARK    6  A    between atoms: C_14  and  C_15
REMARK                            x       y       z     vdW  Elec       q    Type
REMARK                         _______ _______ _______ _____ _____    ______ ____
ROOT
ATOM      1  C   UNL     1       7.182   5.333  15.576  0.00  0.00    +0.000 A 
ATOM      2  C   UNL     1       6.436   4.408  16.308  0.00  0.00    +0.000 A 
ATOM      3  O   UNL     1       5.901   3.487  15.447  0.00  0.00    +0.000 OA
ATOM      4  C   UNL     1       6.321   3.785  14.191  0.00  0.00    +0.000 A 
ATOM      5  C   UNL     1       6.011   3.060  13.045  0.00  0.00    +0.000 A 
ATOM      6  C   UNL     1       6.528   3.546  11.838  0.00  0.00    +0.000 A 
ATOM      7  C   UNL     1       7.308   4.702  11.805  0.00  0.00    +0.000 A 
ATOM      8  C   UNL     1       7.609   5.406  12.981  0.00  0.00    +0.000 A 
ATOM      9  C   UNL     1       7.104   4.928  14.207  0.00  0.00    +0.000 A 
ENDROOT
BRANCH   2  10
ATOM     10  C   UNL     1       6.104   4.383  17.732  0.00  0.00    +0.000 C 
ATOM     11  O   UNL     1       7.003   4.306  18.572  0.00  0.00    +0.000 OA
ATOM     12  N   UNL     1       4.762   4.465  18.161  0.00  0.00    +0.000 N 
ATOM     13  C   UNL     1       3.569   4.359  17.320  0.00  0.00    +0.000 C 
ATOM     14  C   UNL     1       3.092   2.928  17.078  0.00  0.00    +0.000 C 
ATOM     15  C   UNL     1       2.842   2.059  18.315  0.00  0.00    +0.000 C 
ATOM     16  N   UNL     1       2.689   2.793  19.567  0.00  0.00    +0.000 N 
ATOM     17  C   UNL     1       1.497   3.264  20.097  0.00  0.00    +0.000 C 
ATOM     18  C   UNL     1       0.191   2.901  19.433  0.00  0.00    +0.000 C 
ATOM     19  O   UNL     1       1.471   3.963  21.115  0.00  0.00    +0.000 OA
ATOM     20  C   UNL     1       3.945   3.225  20.197  0.00  0.00    +0.000 C 
ATOM     21  C   UNL     1       4.497   4.531  19.609  0.00  0.00    +0.000 C 
ENDBRANCH   2  10
BRANCH   1  22
ATOM     22  C   UNL     1       7.921   6.507  16.113  0.00  0.00    +0.000 C 
BRANCH  22  23
ATOM     23  O   UNL     1       7.072   7.278  16.965  0.00  0.00    +0.000 OA
BRANCH  23  25
ATOM     24  C   UNL     1       8.170   9.176  17.889  0.00  0.00    +0.000 C 
ATOM     25  C   UNL     1       7.768   7.734  18.119  0.00  0.00    +0.000 C 
ENDBRANCH  23  25
ENDBRANCH  22  23
ENDBRANCH   1  22
TORSDOF 4
ENDMDL
MODEL 4
REMARK VINA RESULT:      -6.5      3.675      6.068
REMARK  Name = 
REMARK  6 active torsions:
REMARK  status: ('A' for Active; 'I' for Inactive)
REMARK    1  A    between atoms: C_1  and  C_2
REMARK    2  A    between atoms: C_2  and  O_3
REMARK    3  A    between atoms: O_3  and  C_4
REMARK    4  A    between atoms: C_4  and  C_5
REMARK    5  A    between atoms: C_6  and  C_7
REMARK    6  A    between atoms: C_14  and  C_15
REMARK                            x       y       z     vdW  Elec       q    Type
REMARK                         _______ _______ _______ _____ _____    ______ ____
ROOT
ATOM      1  C   UNL     1       6.512   4.903  15.029  0.00  0.00    +0.000 A 
ATOM      2  C   UNL     1       5.169   5.072  15.370  0.00  0.00    +0.000 A 
ATOM      3  O   UNL     1       4.388   4.533  14.383  0.00  0.00    +0.000 OA
ATOM      4  C   UNL     1       5.204   3.994  13.442  0.00  0.00    +0.000 A 
ATOM      5  C   UNL     1       4.783   3.327  12.296  0.00  0.00    +0.000 A 
ATOM      6  C   UNL     1       5.786   2.861  11.438  0.00  0.00    +0.000 A 
ATOM      7  C   UNL     1       7.134   3.067  11.731  0.00  0.00    +0.000 A 
ATOM      8  C   UNL     1       7.527   3.736  12.901  0.00  0.00    +0.000 A 
ATOM      9  C   UNL     1       6.531   4.206  13.781  0.00  0.00    +0.000 A 
ENDROOT
BRANCH   2  10
ATOM     10  C   UNL     1       4.566   5.788  16.494  0.00  0.00    +0.000 C 
ATOM     11  O   UNL     1       4.914   6.944  16.744  0.00  0.00    +0.000 OA
ATOM     12  N   UNL     1       3.574   5.177  17.290  0.00  0.00    +0.000 N 
ATOM     13  C   UNL     1       3.187   3.766  17.271  0.00  0.00    +0.000 C 
ATOM     14  C   UNL     1       4.038   2.866  18.166  0.00  0.00    +0.000 C 
ATOM     15  C   UNL     1       4.167   3.271  19.638  0.00  0.00    +0.000 C 
ATOM     16  N   UNL     1       3.158   4.212  20.113  0.00  0.00    +0.000 N 
ATOM     17  C   UNL     1       1.936   3.884  20.681  0.00  0.00    +0.000 C 
ATOM     18  C   UNL     1       1.621   2.439  20.984  0.00  0.00    +0.000 C 
ATOM     19  O   UNL     1       1.099   4.746  20.964  0.00  0.00    +0.000 OA
ATOM     20  C   UNL     1       3.403   5.620  19.765  0.00  0.00    +0.000 C 
ATOM     21  C   UNL     1       2.937   5.981  18.347  0.00  0.00    +0.000 C 
ENDBRANCH   2  10
BRANCH   1  22
ATOM     22  C   UNL     1       7.694   5.351  15.813  0.00  0.00    +0.000 C 
BRANCH  22  23
ATOM     23  O   UNL     1       8.041   4.367  16.788  0.00  0.00    +0.000 OA
BRANCH  23  25
ATOM     24  C   UNL     1       7.798   6.191  18.298  0.00  0.00    +0.000 C 
ATOM     25  C   UNL     1       7.545   4.713  18.077  0.00  0.00    +0.000 C 
ENDBRANCH  23  25
ENDBRANCH  22  23
ENDBRANCH   1  22
TORSDOF 4
ENDMDL
MODEL 5
REMARK VINA RESULT:      -6.5      2.345      7.489
REMARK  Name = 
REMARK  6 active torsions:
REMARK  status: ('A' for Active; 'I' for Inactive)
REMARK    1  A    between atoms: C_1  and  C_2
REMARK    2  A    between atoms: C_2  and  O_3
REMARK    3  A    between atoms: O_3  and  C_4
REMARK    4  A    between atoms: C_4  and  C_5
REMARK    5  A    between atoms: C_6  and  C_7
REMARK    6  A    between atoms: C_14  and  C_15
REMARK                            x       y       z     vdW  Elec       q    Type
REMARK                         _______ _______ _______ _____ _____    ______ ____
ROOT
ATOM      1  C   UNL     1       0.310   9.958  19.328  0.00  0.00    +0.000 A 
ATOM      2  C   UNL     1       1.219   8.921  19.544  0.00  0.00    +0.000 A 
ATOM      3  O   UNL     1       1.283   8.658  20.886  0.00  0.00    +0.000 OA
ATOM      4  C   UNL     1       0.409   9.478  21.522  0.00  0.00    +0.000 A 
ATOM      5  C   UNL     1       0.165   9.491  22.892  0.00  0.00    +0.000 A 
ATOM      6  C   UNL     1      -0.764  10.431  23.355  0.00  0.00    +0.000 A 
ATOM      7  C   UNL     1      -1.400  11.305  22.474  0.00  0.00    +0.000 A 
ATOM      8  C   UNL     1      -1.138  11.262  21.096  0.00  0.00    +0.000 A 
ATOM      9  C   UNL     1      -0.212  10.316  20.610  0.00  0.00    +0.000 A 
ENDROOT
BRANCH   2  10
ATOM     10  C   UNL     1       2.104   8.234  18.604  0.00  0.00    +0.000 C 
ATOM     11  O   UNL     1       2.219   8.652  17.449  0.00  0.00    +0.000 OA
ATOM     12  N   UNL     1       2.845   7.103  19.006  0.00  0.00    +0.000 N 
ATOM     13  C   UNL     1       2.686   6.354  20.253  0.00  0.00    +0.000 C 
ATOM     14  C   UNL     1       1.616   5.265  20.203  0.00  0.00    +0.000 C 
ATOM     15  C   UNL     1       1.726   4.233  19.076  0.00  0.00    +0.000 C 
ATOM     16  N   UNL     1       3.034   4.152  18.435  0.00  0.00    +0.000 N 
ATOM     17  C   UNL     1       4.080   3.323  18.813  0.00  0.00    +0.000 C 
ATOM     18  C   UNL     1       3.860   2.293  19.894  0.00  0.00    +0.000 C 
ATOM     19  O   UNL     1       5.189   3.391  18.274  0.00  0.00    +0.000 OA
ATOM     20  C   UNL     1       3.304   5.191  17.430  0.00  0.00    +0.000 C 
ATOM     21  C   UNL     1       3.790   6.512  18.043  0.00  0.00    +0.000 C 
ENDBRANCH   2  10
BRANCH   1  22
ATOM     22  C   UNL     1      -0.054  10.566  18.020  0.00  0.00    +0.000 C 
BRANCH  22  23
ATOM     23  O   UNL     1      -0.978   9.728  17.325  0.00  0.00    +0.000 OA
BRANCH  23  25
ATOM     24  C   UNL     1      -3.336   9.761  17.648  0.00  0.00    +0.000 C 
ATOM     25  C   UNL     1      -2.161  10.437  16.972  0.00  0.00    +0.000 C 
ENDBRANCH  23  25
ENDBRANCH  22  23
ENDBRANCH   1  22
TORSDOF 4
ENDMDL
MODEL 6
REMARK VINA RESULT:      -6.2      3.019      5.426
REMARK  Name = 
REMARK  6 active torsions:
REMARK  status: ('A' for Active; 'I' for Inactive)
REMARK    1  A    between atoms: C_1  and  C_2
REMARK    2  A    between atoms: C_2  and  O_3
REMARK    3  A    between atoms: O_3  and  C_4
REMARK    4  A    between atoms: C_4  and  C_5
REMARK    5  A    between atoms: C_6  and  C_7
REMARK    6  A    between atoms: C_14  and  C_15
REMARK                            x       y       z     vdW  Elec       q    Type
REMARK                         _______ _______ _______ _____ _____    ______ ____
ROOT
ATOM      1  C   UNL     1       0.745   8.889  20.006  0.00  0.00    +0.000 A 
ATOM      2  C   UNL     1       0.591   9.924  19.081  0.00  0.00    +0.000 A 
ATOM      3  O   UNL     1       1.452   9.719  18.036  0.00  0.00    +0.000 OA
ATOM      4  C   UNL     1       2.122   8.560  18.259  0.00  0.00    +0.000 A 
ATOM      5  C   UNL     1       3.066   7.997  17.406  0.00  0.00    +0.000 A 
ATOM      6  C   UNL     1       3.661   6.803  17.829  0.00  0.00    +0.000 A 
ATOM      7  C   UNL     1       3.315   6.222  19.050  0.00  0.00    +0.000 A 
ATOM      8  C   UNL     1       2.353   6.811  19.885  0.00  0.00    +0.000 A 
ATOM      9  C   UNL     1       1.737   8.010  19.472  0.00  0.00    +0.000 A 
ENDROOT
BRANCH   2  10
ATOM     10  C   UNL     1      -0.224  11.136  19.153  0.00  0.00    +0.000 C 
ATOM     11  O   UNL     1      -1.355  11.148  18.662  0.00  0.00    +0.000 OA
ATOM     12  N   UNL     1       0.262  12.295  19.795  0.00  0.00    +0.000 N 
ATOM     13  C   UNL     1       1.633  12.531  20.248  0.00  0.00    +0.000 C 
ATOM     14  C   UNL     1       2.565  13.095  19.177  0.00  0.00    +0.000 C 
ATOM     15  C   UNL     1       2.109  14.370  18.460  0.00  0.00    +0.000 C 
ATOM     16  N   UNL     1       1.063  15.124  19.143  0.00  0.00    +0.000 N 
ATOM     17  C   UNL     1       1.257  16.140  20.066  0.00  0.00    +0.000 C 
ATOM     18  C   UNL     1       2.654  16.648  20.331  0.00  0.00    +0.000 C 
ATOM     19  O   UNL     1       0.313  16.659  20.670  0.00  0.00    +0.000 OA
ATOM     20  C   UNL     1      -0.302  14.606  18.962  0.00  0.00    +0.000 C 
ATOM     21  C   UNL     1      -0.640  13.453  19.918  0.00  0.00    +0.000 C 
ENDBRANCH   2  10
BRANCH   1  22
ATOM     22  C   UNL     1       0.015   8.727  21.292  0.00  0.00    +0.000 C 
BRANCH  22  23
ATOM     23  O   UNL     1       0.763   9.311  22.360  0.00  0.00    +0.000 OA
BRANCH  23  25
ATOM     24  C   UNL     1      -1.010  10.786  22.949  0.00  0.00    +0.000 C 
ATOM     25  C   UNL     1      -0.083   9.692  23.440  0.00  0.00    +0.000 C 
ENDBRANCH  23  25
ENDBRANCH  22  23
ENDBRANCH   1  22
TORSDOF 4
ENDMDL
MODEL 7
REMARK VINA RESULT:      -6.1      2.287      7.856
REMARK  Name = 
REMARK  6 active torsions:
REMARK  status: ('A' for Active; 'I' for Inactive)
REMARK    1  A    between atoms: C_1  and  C_2
REMARK    2  A    between atoms: C_2  and  O_3
REMARK    3  A    between atoms: O_3  and  C_4
REMARK    4  A    between atoms: C_4  and  C_5
REMARK    5  A    between atoms: C_6  and  C_7
REMARK    6  A    between atoms: C_14  and  C_15
REMARK                            x       y       z     vdW  Elec       q    Type
REMARK                         _______ _______ _______ _____ _____    ______ ____
ROOT
ATOM      1  C   UNL     1       0.819  10.447  19.512  0.00  0.00    +0.000 A 
ATOM      2  C   UNL     1       1.209   9.107  19.543  0.00  0.00    +0.000 A 
ATOM      3  O   UNL     1       0.815   8.556  20.733  0.00  0.00    +0.000 OA
ATOM      4  C   UNL     1       0.153   9.505  21.443  0.00  0.00    +0.000 A 
ATOM      5  C   UNL     1      -0.425   9.319  22.694  0.00  0.00    +0.000 A 
ATOM      6  C   UNL     1      -1.047  10.434  23.269  0.00  0.00    +0.000 A 
ATOM      7  C   UNL     1      -1.072  11.661  22.608  0.00  0.00    +0.000 A 
ATOM      8  C   UNL     1      -0.486  11.815  21.342  0.00  0.00    +0.000 A 
ATOM      9  C   UNL     1       0.138  10.701  20.743  0.00  0.00    +0.000 A 
ENDROOT
BRANCH   2  10
ATOM     10  C   UNL     1       2.008   8.338  18.590  0.00  0.00    +0.000 C 
ATOM     11  O   UNL     1       2.037   8.669  17.402  0.00  0.00    +0.000 OA
ATOM     12  N   UNL     1       2.765   7.226  19.015  0.00  0.00    +0.000 N 
ATOM     13  C   UNL     1       2.695   6.572  20.322  0.00  0.00    +0.000 C 
ATOM     14  C   UNL     1       1.611   5.501  20.436  0.00  0.00    +0.000 C 
ATOM     15  C   UNL     1       1.619   4.389  19.383  0.00  0.00    +0.000 C 
ATOM     16  N   UNL     1       2.872   4.238  18.650  0.00  0.00    +0.000 N 
ATOM     17  C   UNL     1       3.933   3.420  19.005  0.00  0.00    +0.000 C 
ATOM     18  C   UNL     1       3.787   2.475  20.173  0.00  0.00    +0.000 C 
ATOM     19  O   UNL     1       4.998   3.428  18.378  0.00  0.00    +0.000 OA
ATOM     20  C   UNL     1       3.074   5.197  17.553  0.00  0.00    +0.000 C 
ATOM     21  C   UNL     1       3.624   6.549  18.027  0.00  0.00    +0.000 C 
ENDBRANCH   2  10
BRANCH   1  22
ATOM     22  C   UNL     1       1.057  11.420  18.413  0.00  0.00    +0.000 C 
BRANCH  22  23
ATOM     23  O   UNL     1       2.392  11.926  18.483  0.00  0.00    +0.000 OA
BRANCH  23  25
ATOM     24  C   UNL     1       1.299  14.014  18.817  0.00  0.00    +0.000 C 
ATOM     25  C   UNL     1       2.445  13.303  18.126  0.00  0.00    +0.000 C 
ENDBRANCH  23  25
ENDBRANCH  22  23
ENDBRANCH   1  22
TORSDOF 4
ENDMDL
MODEL 8
REMARK VINA RESULT:      -6.1      3.638      6.634
REMARK  Name = 
REMARK  6 active torsions:
REMARK  status: ('A' for Active; 'I' for Inactive)
REMARK    1  A    between atoms: C_1  and  C_2
REMARK    2  A    between atoms: C_2  and  O_3
REMARK    3  A    between atoms: O_3  and  C_4
REMARK    4  A    between atoms: C_4  and  C_5
REMARK    5  A    between atoms: C_6  and  C_7
REMARK    6  A    between atoms: C_14  and  C_15
REMARK                            x       y       z     vdW  Elec       q    Type
REMARK                         _______ _______ _______ _____ _____    ______ ____
ROOT
ATOM      1  C   UNL     1       0.282  10.142  20.275  0.00  0.00    +0.000 A 
ATOM      2  C   UNL     1       0.316  11.053  19.218  0.00  0.00    +0.000 A 
ATOM      3  O   UNL     1       1.120  10.557  18.227  0.00  0.00    +0.000 OA
ATOM      4  C   UNL     1       1.568   9.336  18.616  0.00  0.00    +0.000 A 
ATOM      5  C   UNL     1       2.390   8.502  17.864  0.00  0.00    +0.000 A 
ATOM      6  C   UNL     1       2.757   7.287  18.454  0.00  0.00    +0.000 A 
ATOM      7  C   UNL     1       2.317   6.948  19.733  0.00  0.00    +0.000 A 
ATOM      8  C   UNL     1       1.482   7.808  20.463  0.00  0.00    +0.000 A 
ATOM      9  C   UNL     1       1.094   9.033  19.882  0.00  0.00    +0.000 A 
ENDROOT
BRANCH   2  10
ATOM     10  C   UNL     1      -0.263  12.393  19.111  0.00  0.00    +0.000 C 
ATOM     11  O   UNL     1      -1.334  12.555  18.524  0.00  0.00    +0.000 OA
ATOM     12  N   UNL     1       0.383  13.506  19.690  0.00  0.00    +0.000 N 
ATOM     13  C   UNL     1       1.739  13.539  20.240  0.00  0.00    +0.000 C 
ATOM     14  C   UNL     1       2.832  13.816  19.210  0.00  0.00    +0.000 C 
ATOM     15  C   UNL     1       2.672  15.072  18.347  0.00  0.00    +0.000 C 
ATOM     16  N   UNL     1       1.739  16.066  18.866  0.00  0.00    +0.000 N 
ATOM     17  C   UNL     1       2.053  17.120  19.711  0.00  0.00    +0.000 C 
ATOM     18  C   UNL     1       3.497  17.396  20.053  0.00  0.00    +0.000 C 
ATOM     19  O   UNL     1       1.181  17.857  20.182  0.00  0.00    +0.000 OA
ATOM     20  C   UNL     1       0.318  15.783  18.612  0.00  0.00    +0.000 C 
ATOM     21  C   UNL     1      -0.295  14.812  19.632  0.00  0.00    +0.000 C 
ENDBRANCH   2  10
BRANCH   1  22
ATOM     22  C   UNL     1      -0.459  10.289  21.555  0.00  0.00    +0.000 C 
BRANCH  22  23
ATOM     23  O   UNL     1       0.123  11.327  22.346  0.00  0.00    +0.000 OA
BRANCH  23  25
ATOM     24  C   UNL     1      -2.083  11.580  23.202  0.00  0.00    +0.000 C 
ATOM     25  C   UNL     1      -0.844  12.304  22.716  0.00  0.00    +0.000 C 
ENDBRANCH  23  25
ENDBRANCH  22  23
ENDBRANCH   1  22
TORSDOF 4
ENDMDL
MODEL 9
REMARK VINA RESULT:      -6.0      9.263     10.442
REMARK  Name = 
REMARK  6 active torsions:
REMARK  status: ('A' for Active; 'I' for Inactive)
REMARK    1  A    between atoms: C_1  and  C_2
REMARK    2  A    between atoms: C_2  and  O_3
REMARK    3  A    between atoms: O_3  and  C_4
REMARK    4  A    between atoms: C_4  and  C_5
REMARK    5  A    between atoms: C_6  and  C_7
REMARK    6  A    between atoms: C_14  and  C_15
REMARK                            x       y       z     vdW  Elec       q    Type
REMARK                         _______ _______ _______ _____ _____    ______ ____
ROOT
ATOM      1  C   UNL     1       8.465  13.901  19.519  0.00  0.00    +0.000 A 
ATOM      2  C   UNL     1       8.639  13.967  20.902  0.00  0.00    +0.000 A 
ATOM      3  O   UNL     1       9.750  13.245  21.246  0.00  0.00    +0.000 OA
ATOM      4  C   UNL     1      10.305  12.752  20.110  0.00  0.00    +0.000 A 
ATOM      5  C   UNL     1      11.467  11.989  20.044  0.00  0.00    +0.000 A 
ATOM      6  C   UNL     1      11.864  11.560  18.772  0.00  0.00    +0.000 A 
ATOM      7  C   UNL     1      11.118  11.886  17.640  0.00  0.00    +0.000 A 
ATOM      8  C   UNL     1       9.955  12.664  17.738  0.00  0.00    +0.000 A 
ATOM      9  C   UNL     1       9.543  13.113  19.010  0.00  0.00    +0.000 A 
ENDROOT
BRANCH   2  10
ATOM     10  C   UNL     1       7.789  14.567  21.930  0.00  0.00    +0.000 C 
ATOM     11  O   UNL     1       7.732  15.794  22.043  0.00  0.00    +0.000 OA
ATOM     12  N   UNL     1       7.015  13.758  22.789  0.00  0.00    +0.000 N 
ATOM     13  C   UNL     1       7.107  12.305  22.936  0.00  0.00    +0.000 C 
ATOM     14  C   UNL     1       8.163  11.837  23.935  0.00  0.00    +0.000 C 
ATOM     15  C   UNL     1       8.091  12.423  25.349  0.00  0.00    +0.000 C 
ATOM     16  N   UNL     1       6.812  13.030  25.704  0.00  0.00    +0.000 N 
ATOM     17  C   UNL     1       5.739  12.385  26.302  0.00  0.00    +0.000 C 
ATOM     18  C   UNL     1       5.895  10.960  26.773  0.00  0.00    +0.000 C 
ATOM     19  O   UNL     1       4.657  12.953  26.477  0.00  0.00    +0.000 OA
ATOM     20  C   UNL     1       6.603  14.393  25.192  0.00  0.00    +0.000 C 
ATOM     21  C   UNL     1       6.106  14.422  23.740  0.00  0.00    +0.000 C 
ENDBRANCH   2  10
BRANCH   1  22
ATOM     22  C   UNL     1       7.376  14.532  18.727  0.00  0.00    +0.000 C 
BRANCH  22  23
ATOM     23  O   UNL     1       7.914  15.522  17.849  0.00  0.00    +0.000 OA
BRANCH  23  25
ATOM     24  C   UNL     1       6.434  17.052  18.914  0.00  0.00    +0.000 C 
ATOM     25  C   UNL     1       7.850  16.821  18.428  0.00  0.00    +0.000 C 
ENDBRANCH  23  25
ENDBRANCH  22  23
ENDBRANCH   1  22
TORSDOF 4
ENDMDL
