MODEL 1
REMARK VINA RESULT:      -6.0      0.000      0.000
REMARK  Name = 
REMARK  16 active torsions:
REMARK  status: ('A' for Active; 'I' for Inactive)
REMARK    1  A    between atoms: C_1  and  C_2
REMARK    2  A    between atoms: C_2  and  C_3
REMARK    3  A    between atoms: C_3  and  C_4
REMARK    4  A    between atoms: C_4  and  O_6
REMARK    5  A    between atoms: O_6  and  C_7
REMARK    6  A    between atoms: C_7  and  C_8
REMARK    7  A    between atoms: C_8  and  C_9
REMARK    8  A    between atoms: C_8  and  C_11
REMARK    9  A    between atoms: C_8  and  O_13
REMARK   10  A    between atoms: C_9  and  C_10
REMARK   11  A    between atoms: C_11  and  C_12
REMARK   12  A    between atoms: O_13  and  O_14
REMARK   13  A    between atoms: O_14  and  C_15
REMARK   14  A    between atoms: C_15  and  C_16
REMARK   15  A    between atoms: C_15  and  C_17
REMARK   16  A    between atoms: C_15  and  C_18
REMARK                            x       y       z     vdW  Elec       q    Type
REMARK                         _______ _______ _______ _____ _____    ______ ____
ROOT
ATOM      1  C   UNL     1       4.937   4.920  17.476  0.00  0.00    +0.000 C 
ENDROOT
BRANCH   1   2
ATOM      2  C   UNL     1       5.551   4.732  18.890  0.00  0.00    +0.000 C 
ATOM      3  C   UNL     1       6.808   5.565  19.154  0.00  0.00    +0.000 C 
ENDBRANCH   1   2
BRANCH   1   4
ATOM      4  C   UNL     1       4.804   6.417  17.078  0.00  0.00    +0.000 C 
ATOM      5  C   UNL     1       3.598   7.186  17.612  0.00  0.00    +0.000 C 
ENDBRANCH   1   4
BRANCH   1   6
ATOM      6  C   UNL     1       5.845   4.206  16.434  0.00  0.00    +0.000 C 
BRANCH   6   7
ATOM      7  O   UNL     1       6.783   5.123  15.826  0.00  0.00    +0.000 OA
BRANCH   7   8
ATOM      8  C   UNL     1       7.028   4.961  14.500  0.00  0.00    +0.000 C 
ATOM      9  O   UNL     1       7.957   5.460  13.883  0.00  0.00    +0.000 OA
BRANCH   8  10
ATOM     10  C   UNL     1       5.992   4.059  13.876  0.00  0.00    +0.000 C 
BRANCH  10  12
ATOM     11  C   UNL     1       5.501   2.623  11.861  0.00  0.00    +0.000 C 
ATOM     12  C   UNL     1       6.401   3.694  12.453  0.00  0.00    +0.000 C 
ENDBRANCH  10  12
ENDBRANCH   8  10
ENDBRANCH   7   8
ENDBRANCH   6   7
ENDBRANCH   1   6
BRANCH   1  13
ATOM     13  O   UNL     1       3.666   4.254  17.384  0.00  0.00    +0.000 OA
BRANCH  13  14
ATOM     14  O   UNL     1       3.397   3.611  18.665  0.00  0.00    +0.000 OA
BRANCH  14  15
ATOM     15  C   UNL     1       1.989   3.719  18.915  0.00  0.00    +0.000 C 
ATOM     16  C   UNL     1       1.788   4.694  20.071  0.00  0.00    +0.000 C 
ATOM     17  C   UNL     1       1.366   4.291  17.635  0.00  0.00    +0.000 C 
ATOM     18  C   UNL     1       1.361   2.349  19.195  0.00  0.00    +0.000 C 
ENDBRANCH  14  15
ENDBRANCH  13  14
ENDBRANCH   1  13
TORSDOF 10
ENDMDL
MODEL 2
REMARK VINA RESULT:      -6.0      1.196      1.329
REMARK  Name = 
REMARK  16 active torsions:
REMARK  status: ('A' for Active; 'I' for Inactive)
REMARK    1  A    between atoms: C_1  and  C_2
REMARK    2  A    between atoms: C_2  and  C_3
REMARK    3  A    between atoms: C_3  and  C_4
REMARK    4  A    between atoms: C_4  and  O_6
REMARK    5  A    between atoms: O_6  and  C_7
REMARK    6  A    between atoms: C_7  and  C_8
REMARK    7  A    between atoms: C_8  and  C_9
REMARK    8  A    between atoms: C_8  and  C_11
REMARK    9  A    between atoms: C_8  and  O_13
REMARK   10  A    between atoms: C_9  and  C_10
REMARK   11  A    between atoms: C_11  and  C_12
REMARK   12  A    between atoms: O_13  and  O_14
REMARK   13  A    between atoms: O_14  and  C_15
REMARK   14  A    between atoms: C_15  and  C_16
REMARK   15  A    between atoms: C_15  and  C_17
REMARK   16  A    between atoms: C_15  and  C_18
REMARK                            x       y       z     vdW  Elec       q    Type
REMARK                         _______ _______ _______ _____ _____    ______ ____
ROOT
ATOM      1  C   UNL     1       5.216   5.977  17.378  0.00  0.00    +0.000 C 
ENDROOT
BRANCH   1   2
ATOM      2  C   UNL     1       6.653   6.496  17.659  0.00  0.00    +0.000 C 
ATOM      3  C   UNL     1       7.530   5.534  18.464  0.00  0.00    +0.000 C 
ENDBRANCH   1   2
BRANCH   1   4
ATOM      4  C   UNL     1       4.173   7.126  17.291  0.00  0.00    +0.000 C 
ATOM      5  C   UNL     1       2.989   7.081  18.255  0.00  0.00    +0.000 C 
ENDBRANCH   1   4
BRANCH   1   6
ATOM      6  C   UNL     1       5.216   5.201  16.031  0.00  0.00    +0.000 C 
BRANCH   6   7
ATOM      7  O   UNL     1       6.013   5.870  15.028  0.00  0.00    +0.000 OA
BRANCH   7   8
ATOM      8  C   UNL     1       6.879   5.103  14.317  0.00  0.00    +0.000 C 
ATOM      9  O   UNL     1       8.042   5.384  14.072  0.00  0.00    +0.000 OA
BRANCH   8  10
ATOM     10  C   UNL     1       6.210   3.827  13.869  0.00  0.00    +0.000 C 
BRANCH  10  12
ATOM     11  C   UNL     1       5.342   2.727  11.772  0.00  0.00    +0.000 C 
ATOM     12  C   UNL     1       6.409   3.627  12.370  0.00  0.00    +0.000 C 
ENDBRANCH  10  12
ENDBRANCH   8  10
ENDBRANCH   7   8
ENDBRANCH   6   7
ENDBRANCH   1   6
BRANCH   1  13
ATOM     13  O   UNL     1       4.826   5.009  18.368  0.00  0.00    +0.000 OA
BRANCH  13  14
ATOM     14  O   UNL     1       4.509   3.762  17.683  0.00  0.00    +0.000 OA
BRANCH  14  15
ATOM     15  C   UNL     1       3.415   3.152  18.382  0.00  0.00    +0.000 C 
ATOM     16  C   UNL     1       3.397   3.703  19.804  0.00  0.00    +0.000 C 
ATOM     17  C   UNL     1       2.140   3.576  17.641  0.00  0.00    +0.000 C 
ATOM     18  C   UNL     1       3.513   1.622  18.352  0.00  0.00    +0.000 C 
ENDBRANCH  14  15
ENDBRANCH  13  14
ENDBRANCH   1  13
TORSDOF 10
ENDMDL
MODEL 3
REMARK VINA RESULT:      -5.9      1.169      1.584
REMARK  Name = 
REMARK  16 active torsions:
REMARK  status: ('A' for Active; 'I' for Inactive)
REMARK    1  A    between atoms: C_1  and  C_2
REMARK    2  A    between atoms: C_2  and  C_3
REMARK    3  A    between atoms: C_3  and  C_4
REMARK    4  A    between atoms: C_4  and  O_6
REMARK    5  A    between atoms: O_6  and  C_7
REMARK    6  A    between atoms: C_7  and  C_8
REMARK    7  A    between atoms: C_8  and  C_9
REMARK    8  A    between atoms: C_8  and  C_11
REMARK    9  A    between atoms: C_8  and  O_13
REMARK   10  A    between atoms: C_9  and  C_10
REMARK   11  A    between atoms: C_11  and  C_12
REMARK   12  A    between atoms: O_13  and  O_14
REMARK   13  A    between atoms: O_14  and  C_15
REMARK   14  A    between atoms: C_15  and  C_16
REMARK   15  A    between atoms: C_15  and  C_17
REMARK   16  A    between atoms: C_15  and  C_18
REMARK                            x       y       z     vdW  Elec       q    Type
REMARK                         _______ _______ _______ _____ _____    ______ ____
ROOT
ATOM      1  C   UNL     1       5.750   5.312  17.398  0.00  0.00    +0.000 C 
ENDROOT
BRANCH   1   2
ATOM      2  C   UNL     1       7.106   5.835  17.946  0.00  0.00    +0.000 C 
ATOM      3  C   UNL     1       7.471   7.251  17.493  0.00  0.00    +0.000 C 
ENDBRANCH   1   2
BRANCH   1   4
ATOM      4  C   UNL     1       4.906   6.432  16.727  0.00  0.00    +0.000 C 
ATOM      5  C   UNL     1       3.828   7.108  17.571  0.00  0.00    +0.000 C 
ENDBRANCH   1   4
BRANCH   1   6
ATOM      6  C   UNL     1       6.027   4.199  16.348  0.00  0.00    +0.000 C 
BRANCH   6   7
ATOM      7  O   UNL     1       5.782   4.662  15.001  0.00  0.00    +0.000 OA
BRANCH   7   8
ATOM      8  C   UNL     1       6.855   4.740  14.172  0.00  0.00    +0.000 C 
ATOM      9  O   UNL     1       7.917   5.282  14.436  0.00  0.00    +0.000 OA
BRANCH   8  10
ATOM     10  C   UNL     1       6.565   4.047  12.864  0.00  0.00    +0.000 C 
BRANCH  10  12
ATOM     11  C   UNL     1       4.750   2.976  11.477  0.00  0.00    +0.000 C 
ATOM     12  C   UNL     1       5.084   3.692  12.774  0.00  0.00    +0.000 C 
ENDBRANCH  10  12
ENDBRANCH   8  10
ENDBRANCH   7   8
ENDBRANCH   6   7
ENDBRANCH   1   6
BRANCH   1  13
ATOM     13  O   UNL     1       4.999   4.665  18.441  0.00  0.00    +0.000 OA
BRANCH  13  14
ATOM     14  O   UNL     1       4.255   3.562  17.845  0.00  0.00    +0.000 OA
BRANCH  14  15
ATOM     15  C   UNL     1       3.032   3.419  18.582  0.00  0.00    +0.000 C 
ATOM     16  C   UNL     1       1.910   4.045  17.760  0.00  0.00    +0.000 C 
ATOM     17  C   UNL     1       2.792   1.911  18.732  0.00  0.00    +0.000 C 
ATOM     18  C   UNL     1       3.143   4.039  19.980  0.00  0.00    +0.000 C 
ENDBRANCH  14  15
ENDBRANCH  13  14
ENDBRANCH   1  13
TORSDOF 10
ENDMDL
MODEL 4
REMARK VINA RESULT:      -5.9      1.912      2.868
REMARK  Name = 
REMARK  16 active torsions:
REMARK  status: ('A' for Active; 'I' for Inactive)
REMARK    1  A    between atoms: C_1  and  C_2
REMARK    2  A    between atoms: C_2  and  C_3
REMARK    3  A    between atoms: C_3  and  C_4
REMARK    4  A    between atoms: C_4  and  O_6
REMARK    5  A    between atoms: O_6  and  C_7
REMARK    6  A    between atoms: C_7  and  C_8
REMARK    7  A    between atoms: C_8  and  C_9
REMARK    8  A    between atoms: C_8  and  C_11
REMARK    9  A    between atoms: C_8  and  O_13
REMARK   10  A    between atoms: C_9  and  C_10
REMARK   11  A    between atoms: C_11  and  C_12
REMARK   12  A    between atoms: O_13  and  O_14
REMARK   13  A    between atoms: O_14  and  C_15
REMARK   14  A    between atoms: C_15  and  C_16
REMARK   15  A    between atoms: C_15  and  C_17
REMARK   16  A    between atoms: C_15  and  C_18
REMARK                            x       y       z     vdW  Elec       q    Type
REMARK                         _______ _______ _______ _____ _____    ______ ____
ROOT
ATOM      1  C   UNL     1       4.159   4.861  18.639  0.00  0.00    +0.000 C 
ENDROOT
BRANCH   1   2
ATOM      2  C   UNL     1       3.684   5.972  17.663  0.00  0.00    +0.000 C 
ATOM      3  C   UNL     1       2.872   7.091  18.320  0.00  0.00    +0.000 C 
ENDBRANCH   1   2
BRANCH   1   4
ATOM      4  C   UNL     1       4.200   3.458  17.971  0.00  0.00    +0.000 C 
ATOM      5  C   UNL     1       3.225   3.190  16.827  0.00  0.00    +0.000 C 
ENDBRANCH   1   4
BRANCH   1   6
ATOM      6  C   UNL     1       5.586   5.214  19.147  0.00  0.00    +0.000 C 
BRANCH   6   7
ATOM      7  O   UNL     1       6.373   5.861  18.121  0.00  0.00    +0.000 OA
BRANCH   7   8
ATOM      8  C   UNL     1       7.279   5.092  17.465  0.00  0.00    +0.000 C 
ATOM      9  O   UNL     1       8.059   4.311  17.989  0.00  0.00    +0.000 OA
BRANCH   8  10
ATOM     10  C   UNL     1       7.189   5.321  15.976  0.00  0.00    +0.000 C 
BRANCH  10  12
ATOM     11  C   UNL     1       5.606   4.382  14.251  0.00  0.00    +0.000 C 
ATOM     12  C   UNL     1       6.675   4.064  15.282  0.00  0.00    +0.000 C 
ENDBRANCH  10  12
ENDBRANCH   8  10
ENDBRANCH   7   8
ENDBRANCH   6   7
ENDBRANCH   1   6
BRANCH   1  13
ATOM     13  O   UNL     1       3.336   4.840  19.818  0.00  0.00    +0.000 OA
BRANCH  13  14
ATOM     14  O   UNL     1       3.045   3.449  20.143  0.00  0.00    +0.000 OA
BRANCH  14  15
ATOM     15  C   UNL     1       1.655   3.368  20.489  0.00  0.00    +0.000 C 
ATOM     16  C   UNL     1       1.542   2.643  21.827  0.00  0.00    +0.000 C 
ATOM     17  C   UNL     1       1.162   4.814  20.634  0.00  0.00    +0.000 C 
ATOM     18  C   UNL     1       0.841   2.681  19.386  0.00  0.00    +0.000 C 
ENDBRANCH  14  15
ENDBRANCH  13  14
ENDBRANCH   1  13
TORSDOF 10
ENDMDL
MODEL 5
REMARK VINA RESULT:      -5.7      1.001      1.443
REMARK  Name = 
REMARK  16 active torsions:
REMARK  status: ('A' for Active; 'I' for Inactive)
REMARK    1  A    between atoms: C_1  and  C_2
REMARK    2  A    between atoms: C_2  and  C_3
REMARK    3  A    between atoms: C_3  and  C_4
REMARK    4  A    between atoms: C_4  and  O_6
REMARK    5  A    between atoms: O_6  and  C_7
REMARK    6  A    between atoms: C_7  and  C_8
REMARK    7  A    between atoms: C_8  and  C_9
REMARK    8  A    between atoms: C_8  and  C_11
REMARK    9  A    between atoms: C_8  and  O_13
REMARK   10  A    between atoms: C_9  and  C_10
REMARK   11  A    between atoms: C_11  and  C_12
REMARK   12  A    between atoms: O_13  and  O_14
REMARK   13  A    between atoms: O_14  and  C_15
REMARK   14  A    between atoms: C_15  and  C_16
REMARK   15  A    between atoms: C_15  and  C_17
REMARK   16  A    between atoms: C_15  and  C_18
REMARK                            x       y       z     vdW  Elec       q    Type
REMARK                         _______ _______ _______ _____ _____    ______ ____
ROOT
ATOM      1  C   UNL     1       5.154   4.832  17.726  0.00  0.00    +0.000 C 
ENDROOT
BRANCH   1   2
ATOM      2  C   UNL     1       5.525   5.288  19.164  0.00  0.00    +0.000 C 
ATOM      3  C   UNL     1       7.015   5.563  19.379  0.00  0.00    +0.000 C 
ENDBRANCH   1   2
BRANCH   1   4
ATOM      4  C   UNL     1       4.337   5.905  16.952  0.00  0.00    +0.000 C 
ATOM      5  C   UNL     1       3.977   7.190  17.692  0.00  0.00    +0.000 C 
ENDBRANCH   1   4
BRANCH   1   6
ATOM      6  C   UNL     1       6.463   4.538  16.939  0.00  0.00    +0.000 C 
BRANCH   6   7
ATOM      7  O   UNL     1       6.693   5.516  15.900  0.00  0.00    +0.000 OA
BRANCH   7   8
ATOM      8  C   UNL     1       6.983   5.040  14.661  0.00  0.00    +0.000 C 
ATOM      9  O   UNL     1       7.781   5.533  13.880  0.00  0.00    +0.000 OA
BRANCH   8  10
ATOM     10  C   UNL     1       6.185   3.791  14.374  0.00  0.00    +0.000 C 
BRANCH  10  12
ATOM     11  C   UNL     1       5.873   2.941  12.020  0.00  0.00    +0.000 C 
ATOM     12  C   UNL     1       5.420   3.947  13.064  0.00  0.00    +0.000 C 
ENDBRANCH  10  12
ENDBRANCH   8  10
ENDBRANCH   7   8
ENDBRANCH   6   7
ENDBRANCH   1   6
BRANCH   1  13
ATOM     13  O   UNL     1       4.448   3.580  17.760  0.00  0.00    +0.000 OA
BRANCH  13  14
ATOM     14  O   UNL     1       3.144   3.812  18.372  0.00  0.00    +0.000 OA
BRANCH  14  15
ATOM     15  C   UNL     1       2.719   2.575  18.962  0.00  0.00    +0.000 C 
ATOM     16  C   UNL     1       3.569   1.454  18.373  0.00  0.00    +0.000 C 
ATOM     17  C   UNL     1       2.990   2.700  20.468  0.00  0.00    +0.000 C 
ATOM     18  C   UNL     1       1.219   2.340  18.753  0.00  0.00    +0.000 C 
ENDBRANCH  14  15
ENDBRANCH  13  14
ENDBRANCH   1  13
TORSDOF 10
ENDMDL
MODEL 6
REMARK VINA RESULT:      -5.7      1.196      1.688
REMARK  Name = 
REMARK  16 active torsions:
REMARK  status: ('A' for Active; 'I' for Inactive)
REMARK    1  A    between atoms: C_1  and  C_2
REMARK    2  A    between atoms: C_2  and  C_3
REMARK    3  A    between atoms: C_3  and  C_4
REMARK    4  A    between atoms: C_4  and  O_6
REMARK    5  A    between atoms: O_6  and  C_7
REMARK    6  A    between atoms: C_7  and  C_8
REMARK    7  A    between atoms: C_8  and  C_9
REMARK    8  A    between atoms: C_8  and  C_11
REMARK    9  A    between atoms: C_8  and  O_13
REMARK   10  A    between atoms: C_9  and  C_10
REMARK   11  A    between atoms: C_11  and  C_12
REMARK   12  A    between atoms: O_13  and  O_14
REMARK   13  A    between atoms: O_14  and  C_15
REMARK   14  A    between atoms: C_15  and  C_16
REMARK   15  A    between atoms: C_15  and  C_17
REMARK   16  A    between atoms: C_15  and  C_18
REMARK                            x       y       z     vdW  Elec       q    Type
REMARK                         _______ _______ _______ _____ _____    ______ ____
ROOT
ATOM      1  C   UNL     1       3.904   5.663  18.132  0.00  0.00    +0.000 C 
ENDROOT
BRANCH   1   2
ATOM      2  C   UNL     1       4.762   5.578  19.424  0.00  0.00    +0.000 C 
ATOM      3  C   UNL     1       6.238   5.251  19.185  0.00  0.00    +0.000 C 
ENDBRANCH   1   2
BRANCH   1   4
ATOM      4  C   UNL     1       2.683   6.612  18.289  0.00  0.00    +0.000 C 
ATOM      5  C   UNL     1       2.866   8.073  17.884  0.00  0.00    +0.000 C 
ENDBRANCH   1   4
BRANCH   1   6
ATOM      6  C   UNL     1       4.795   6.185  16.970  0.00  0.00    +0.000 C 
BRANCH   6   7
ATOM      7  O   UNL     1       4.958   5.190  15.933  0.00  0.00    +0.000 OA
BRANCH   7   8
ATOM      8  C   UNL     1       6.216   4.998  15.458  0.00  0.00    +0.000 C 
ATOM      9  O   UNL     1       7.176   5.721  15.677  0.00  0.00    +0.000 OA
BRANCH   8  10
ATOM     10  C   UNL     1       6.279   3.745  14.619  0.00  0.00    +0.000 C 
BRANCH  10  12
ATOM     11  C   UNL     1       5.721   3.249  12.210  0.00  0.00    +0.000 C 
ATOM     12  C   UNL     1       6.543   4.103  13.160  0.00  0.00    +0.000 C 
ENDBRANCH  10  12
ENDBRANCH   8  10
ENDBRANCH   7   8
ENDBRANCH   6   7
ENDBRANCH   1   6
BRANCH   1  13
ATOM     13  O   UNL     1       3.480   4.352  17.720  0.00  0.00    +0.000 OA
BRANCH  13  14
ATOM     14  O   UNL     1       2.142   4.120  18.252  0.00  0.00    +0.000 OA
BRANCH  14  15
ATOM     15  C   UNL     1       2.147   2.833  18.886  0.00  0.00    +0.000 C 
ATOM     16  C   UNL     1       0.740   2.251  18.783  0.00  0.00    +0.000 C 
ATOM     17  C   UNL     1       3.131   1.964  18.091  0.00  0.00    +0.000 C 
ATOM     18  C   UNL     1       2.634   2.924  20.337  0.00  0.00    +0.000 C 
ENDBRANCH  14  15
ENDBRANCH  13  14
ENDBRANCH   1  13
TORSDOF 10
ENDMDL
MODEL 7
REMARK VINA RESULT:      -5.7      2.353      4.222
REMARK  Name = 
REMARK  16 active torsions:
REMARK  status: ('A' for Active; 'I' for Inactive)
REMARK    1  A    between atoms: C_1  and  C_2
REMARK    2  A    between atoms: C_2  and  C_3
REMARK    3  A    between atoms: C_3  and  C_4
REMARK    4  A    between atoms: C_4  and  O_6
REMARK    5  A    between atoms: O_6  and  C_7
REMARK    6  A    between atoms: C_7  and  C_8
REMARK    7  A    between atoms: C_8  and  C_9
REMARK    8  A    between atoms: C_8  and  C_11
REMARK    9  A    between atoms: C_8  and  O_13
REMARK   10  A    between atoms: C_9  and  C_10
REMARK   11  A    between atoms: C_11  and  C_12
REMARK   12  A    between atoms: O_13  and  O_14
REMARK   13  A    between atoms: O_14  and  C_15
REMARK   14  A    between atoms: C_15  and  C_16
REMARK   15  A    between atoms: C_15  and  C_17
REMARK   16  A    between atoms: C_15  and  C_18
REMARK                            x       y       z     vdW  Elec       q    Type
REMARK                         _______ _______ _______ _____ _____    ______ ____
ROOT
ATOM      1  C   UNL     1       3.762   5.257  18.141  0.00  0.00    +0.000 C 
ENDROOT
BRANCH   1   2
ATOM      2  C   UNL     1       2.585   6.233  17.865  0.00  0.00    +0.000 C 
ATOM      3  C   UNL     1       2.977   7.712  17.851  0.00  0.00    +0.000 C 
ENDBRANCH   1   2
BRANCH   1   4
ATOM      4  C   UNL     1       3.774   4.046  17.165  0.00  0.00    +0.000 C 
ATOM      5  C   UNL     1       4.885   3.991  16.120  0.00  0.00    +0.000 C 
ENDBRANCH   1   4
BRANCH   1   6
ATOM      6  C   UNL     1       5.102   6.031  17.992  0.00  0.00    +0.000 C 
BRANCH   6   7
ATOM      7  O   UNL     1       6.063   5.635  18.997  0.00  0.00    +0.000 OA
BRANCH   7   8
ATOM      8  C   UNL     1       7.349   5.481  18.592  0.00  0.00    +0.000 C 
ATOM      9  O   UNL     1       7.827   4.461  18.117  0.00  0.00    +0.000 OA
BRANCH   8  10
ATOM     10  C   UNL     1       8.125   6.759  18.794  0.00  0.00    +0.000 C 
BRANCH  10  12
ATOM     11  C   UNL     1       8.242   9.151  18.004  0.00  0.00    +0.000 C 
ATOM     12  C   UNL     1       7.850   7.727  17.648  0.00  0.00    +0.000 C 
ENDBRANCH  10  12
ENDBRANCH   8  10
ENDBRANCH   7   8
ENDBRANCH   6   7
ENDBRANCH   1   6
BRANCH   1  13
ATOM     13  O   UNL     1       3.737   4.809  19.507  0.00  0.00    +0.000 OA
BRANCH  13  14
ATOM     14  O   UNL     1       3.129   3.484  19.539  0.00  0.00    +0.000 OA
BRANCH  14  15
ATOM     15  C   UNL     1       2.050   3.528  20.485  0.00  0.00    +0.000 C 
ATOM     16  C   UNL     1       0.798   2.992  19.799  0.00  0.00    +0.000 C 
ATOM     17  C   UNL     1       2.452   2.600  21.640  0.00  0.00    +0.000 C 
ATOM     18  C   UNL     1       1.848   4.942  21.041  0.00  0.00    +0.000 C 
ENDBRANCH  14  15
ENDBRANCH  13  14
ENDBRANCH   1  13
TORSDOF 10
ENDMDL
MODEL 8
REMARK VINA RESULT:      -5.7      2.624      6.201
REMARK  Name = 
REMARK  16 active torsions:
REMARK  status: ('A' for Active; 'I' for Inactive)
REMARK    1  A    between atoms: C_1  and  C_2
REMARK    2  A    between atoms: C_2  and  C_3
REMARK    3  A    between atoms: C_3  and  C_4
REMARK    4  A    between atoms: C_4  and  O_6
REMARK    5  A    between atoms: O_6  and  C_7
REMARK    6  A    between atoms: C_7  and  C_8
REMARK    7  A    between atoms: C_8  and  C_9
REMARK    8  A    between atoms: C_8  and  C_11
REMARK    9  A    between atoms: C_8  and  O_13
REMARK   10  A    between atoms: C_9  and  C_10
REMARK   11  A    between atoms: C_11  and  C_12
REMARK   12  A    between atoms: O_13  and  O_14
REMARK   13  A    between atoms: O_14  and  C_15
REMARK   14  A    between atoms: C_15  and  C_16
REMARK   15  A    between atoms: C_15  and  C_17
REMARK   16  A    between atoms: C_15  and  C_18
REMARK                            x       y       z     vdW  Elec       q    Type
REMARK                         _______ _______ _______ _____ _____    ______ ____
ROOT
ATOM      1  C   UNL     1       3.748   5.581  18.054  0.00  0.00    +0.000 C 
ENDROOT
BRANCH   1   2
ATOM      2  C   UNL     1       2.693   6.703  18.260  0.00  0.00    +0.000 C 
ATOM      3  C   UNL     1       2.312   6.956  19.721  0.00  0.00    +0.000 C 
ENDBRANCH   1   2
BRANCH   1   4
ATOM      4  C   UNL     1       4.286   5.014  19.398  0.00  0.00    +0.000 C 
ATOM      5  C   UNL     1       4.932   3.631  19.375  0.00  0.00    +0.000 C 
ENDBRANCH   1   4
BRANCH   1   6
ATOM      6  C   UNL     1       3.098   4.421  17.248  0.00  0.00    +0.000 C 
BRANCH   6   7
ATOM      7  O   UNL     1       1.732   4.186  17.657  0.00  0.00    +0.000 OA
BRANCH   7   8
ATOM      8  C   UNL     1       1.491   3.058  18.375  0.00  0.00    +0.000 C 
ATOM      9  O   UNL     1       1.837   1.929  18.062  0.00  0.00    +0.000 OA
BRANCH   8  10
ATOM     10  C   UNL     1       0.738   3.388  19.641  0.00  0.00    +0.000 C 
BRANCH  10  12
ATOM     11  C   UNL     1       2.106   3.540  21.755  0.00  0.00    +0.000 C 
ATOM     12  C   UNL     1       1.334   2.625  20.820  0.00  0.00    +0.000 C 
ENDBRANCH  10  12
ENDBRANCH   8  10
ENDBRANCH   7   8
ENDBRANCH   6   7
ENDBRANCH   1   6
BRANCH   1  13
ATOM     13  O   UNL     1       4.830   6.050  17.231  0.00  0.00    +0.000 OA
BRANCH  13  14
ATOM     14  O   UNL     1       5.702   6.878  18.056  0.00  0.00    +0.000 OA
BRANCH  14  15
ATOM     15  C   UNL     1       7.052   6.639  17.631  0.00  0.00    +0.000 C 
ATOM     16  C   UNL     1       7.718   7.991  17.394  0.00  0.00    +0.000 C 
ATOM     17  C   UNL     1       7.746   5.909  18.788  0.00  0.00    +0.000 C 
ATOM     18  C   UNL     1       7.098   5.742  16.388  0.00  0.00    +0.000 C 
ENDBRANCH  14  15
ENDBRANCH  13  14
ENDBRANCH   1  13
TORSDOF 10
ENDMDL
MODEL 9
REMARK VINA RESULT:      -5.7      1.078      1.191
REMARK  Name = 
REMARK  16 active torsions:
REMARK  status: ('A' for Active; 'I' for Inactive)
REMARK    1  A    between atoms: C_1  and  C_2
REMARK    2  A    between atoms: C_2  and  C_3
REMARK    3  A    between atoms: C_3  and  C_4
REMARK    4  A    between atoms: C_4  and  O_6
REMARK    5  A    between atoms: O_6  and  C_7
REMARK    6  A    between atoms: C_7  and  C_8
REMARK    7  A    between atoms: C_8  and  C_9
REMARK    8  A    between atoms: C_8  and  C_11
REMARK    9  A    between atoms: C_8  and  O_13
REMARK   10  A    between atoms: C_9  and  C_10
REMARK   11  A    between atoms: C_11  and  C_12
REMARK   12  A    between atoms: O_13  and  O_14
REMARK   13  A    between atoms: O_14  and  C_15
REMARK   14  A    between atoms: C_15  and  C_16
REMARK   15  A    between atoms: C_15  and  C_17
REMARK   16  A    between atoms: C_15  and  C_18
REMARK                            x       y       z     vdW  Elec       q    Type
REMARK                         _______ _______ _______ _____ _____    ______ ____
ROOT
ATOM      1  C   UNL     1       5.176   4.571  17.526  0.00  0.00    +0.000 C 
ENDROOT
BRANCH   1   2
ATOM      2  C   UNL     1       6.630   4.925  17.940  0.00  0.00    +0.000 C 
ATOM      3  C   UNL     1       6.765   5.509  19.349  0.00  0.00    +0.000 C 
ENDBRANCH   1   2
BRANCH   1   4
ATOM      4  C   UNL     1       4.307   5.833  17.260  0.00  0.00    +0.000 C 
ATOM      5  C   UNL     1       4.918   6.947  16.415  0.00  0.00    +0.000 C 
ENDBRANCH   1   4
BRANCH   1   6
ATOM      6  C   UNL     1       5.217   3.712  16.231  0.00  0.00    +0.000 C 
BRANCH   6   7
ATOM      7  O   UNL     1       6.532   3.711  15.631  0.00  0.00    +0.000 OA
BRANCH   7   8
ATOM      8  C   UNL     1       6.684   4.418  14.482  0.00  0.00    +0.000 C 
ATOM      9  O   UNL     1       7.526   5.282  14.285  0.00  0.00    +0.000 OA
BRANCH   8  10
ATOM     10  C   UNL     1       5.670   3.981  13.454  0.00  0.00    +0.000 C 
BRANCH  10  12
ATOM     11  C   UNL     1       5.530   2.345  11.539  0.00  0.00    +0.000 C 
ATOM     12  C   UNL     1       6.376   3.399  12.233  0.00  0.00    +0.000 C 
ENDBRANCH  10  12
ENDBRANCH   8  10
ENDBRANCH   7   8
ENDBRANCH   6   7
ENDBRANCH   1   6
BRANCH   1  13
ATOM     13  O   UNL     1       4.560   3.728  18.516  0.00  0.00    +0.000 OA
BRANCH  13  14
ATOM     14  O   UNL     1       3.282   4.324  18.887  0.00  0.00    +0.000 OA
BRANCH  14  15
ATOM     15  C   UNL     1       2.465   3.283  19.441  0.00  0.00    +0.000 C 
ATOM     16  C   UNL     1       1.146   3.905  19.888  0.00  0.00    +0.000 C 
ATOM     17  C   UNL     1       2.212   2.283  18.304  0.00  0.00    +0.000 C 
ATOM     18  C   UNL     1       3.181   2.554  20.583  0.00  0.00    +0.000 C 
ENDBRANCH  14  15
ENDBRANCH  13  14
ENDBRANCH   1  13
TORSDOF 10
ENDMDL
