MODEL 1
REMARK VINA RESULT:      -7.9      0.000      0.000
REMARK  Name = 
REMARK  7 active torsions:
REMARK  status: ('A' for Active; 'I' for Inactive)
REMARK    1  A    between atoms: C_1  and  C_2
REMARK    2  A    between atoms: N_9  and  C_10
REMARK    3  A    between atoms: C_10  and  C_11
REMARK    4  A    between atoms: C_18  and  C_19
REMARK    5  A    between atoms: C_21  and  C_23
REMARK    6  A    between atoms: C_23  and  C_24
REMARK    7  A    between atoms: C_24  and  C_25
REMARK                            x       y       z     vdW  Elec       q    Type
REMARK                         _______ _______ _______ _____ _____    ______ ____
ROOT
ATOM      1  C   UNL     1      -1.451  13.905  19.806  0.00  0.00    +0.000 C 
ATOM      2  C   UNL     1      -1.206  12.404  19.579  0.00  0.00    +0.000 C 
ATOM      3  C   UNL     1      -1.044  11.542  20.830  0.00  0.00    +0.000 A 
ATOM      4  C   UNL     1      -1.616  11.910  22.060  0.00  0.00    +0.000 A 
ATOM      5  C   UNL     1      -1.420  11.135  23.201  0.00  0.00    +0.000 A 
ATOM      6  C   UNL     1      -0.646   9.981  23.133  0.00  0.00    +0.000 A 
ATOM      7  C   UNL     1      -0.088   9.593  21.914  0.00  0.00    +0.000 A 
ATOM      8  C   UNL     1      -0.294  10.342  20.747  0.00  0.00    +0.000 A 
ATOM      9  N   UNL     1       0.149   9.867  19.517  0.00  0.00    +0.000 N 
ATOM     10  C   UNL     1      -0.902   9.520  18.556  0.00  0.00    +0.000 C 
ATOM     11  C   UNL     1      -1.394  10.746  17.749  0.00  0.00    +0.000 C 
ATOM     12  C   UNL     1      -2.056  10.269  16.453  0.00  0.00    +0.000 C 
ATOM     13  N   UNL     1      -2.112  11.751  18.597  0.00  0.00    +0.000 N 
ATOM     14  C   UNL     1      -3.484  11.837  18.858  0.00  0.00    +0.000 C 
ATOM     15  O   UNL     1      -3.958  12.615  19.688  0.00  0.00    +0.000 OA
ENDROOT
BRANCH   9  16
ATOM     16  C   UNL     1       1.561   9.577  19.256  0.00  0.00    +0.000 C 
BRANCH  16  17
ATOM     17  C   UNL     1       1.887   8.099  19.214  0.00  0.00    +0.000 A 
ATOM     18  C   UNL     1       2.228   7.457  18.014  0.00  0.00    +0.000 A 
ATOM     19  C   UNL     1       2.428   6.079  17.966  0.00  0.00    +0.000 A 
ATOM     20  C   UNL     1       2.326   5.322  19.130  0.00  0.00    +0.000 A 
ATOM     21  C   UNL     1       2.060   5.951  20.345  0.00  0.00    +0.000 A 
ATOM     22  C   UNL     1       1.847   7.330  20.389  0.00  0.00    +0.000 A 
ENDBRANCH  16  17
ENDBRANCH   9  16
BRANCH  14  23
ATOM     23  C   UNL     1      -4.427  10.949  18.079  0.00  0.00    +0.000 C 
BRANCH  23  24
ATOM     24  C   UNL     1      -5.872  11.449  18.055  0.00  0.00    +0.000 C 
BRANCH  24  25
ATOM     25  C   UNL     1      -6.659  10.739  19.126  0.00  0.00    +0.000 A 
ATOM     26  C   UNL     1      -7.223  11.445  20.191  0.00  0.00    +0.000 A 
ATOM     27  C   UNL     1      -7.824  10.751  21.236  0.00  0.00    +0.000 A 
ATOM     28  C   UNL     1      -7.843   9.368  21.181  0.00  0.00    +0.000 A 
ATOM     29  N   UNL     1      -7.326   8.650  20.161  0.00  0.00    +0.000 NA
ATOM     30  C   UNL     1      -6.749   9.350  19.158  0.00  0.00    +0.000 A 
ENDBRANCH  24  25
ENDBRANCH  23  24
ENDBRANCH  14  23
TORSDOF 5
ENDMDL
MODEL 2
REMARK VINA RESULT:      -7.3      2.722      7.723
REMARK  Name = 
REMARK  7 active torsions:
REMARK  status: ('A' for Active; 'I' for Inactive)
REMARK    1  A    between atoms: C_1  and  C_2
REMARK    2  A    between atoms: N_9  and  C_10
REMARK    3  A    between atoms: C_10  and  C_11
REMARK    4  A    between atoms: C_18  and  C_19
REMARK    5  A    between atoms: C_21  and  C_23
REMARK    6  A    between atoms: C_23  and  C_24
REMARK    7  A    between atoms: C_24  and  C_25
REMARK                            x       y       z     vdW  Elec       q    Type
REMARK                         _______ _______ _______ _____ _____    ______ ____
ROOT
ATOM      1  C   UNL     1       2.006  11.403  18.221  0.00  0.00    +0.000 C 
ATOM      2  C   UNL     1       0.924  11.153  19.284  0.00  0.00    +0.000 C 
ATOM      3  C   UNL     1      -0.525  11.157  18.796  0.00  0.00    +0.000 A 
ATOM      4  C   UNL     1      -0.858  10.842  17.467  0.00  0.00    +0.000 A 
ATOM      5  C   UNL     1      -2.179  10.895  17.029  0.00  0.00    +0.000 A 
ATOM      6  C   UNL     1      -3.189  11.267  17.910  0.00  0.00    +0.000 A 
ATOM      7  C   UNL     1      -2.876  11.564  19.237  0.00  0.00    +0.000 A 
ATOM      8  C   UNL     1      -1.557  11.491  19.707  0.00  0.00    +0.000 A 
ATOM      9  N   UNL     1      -1.282  11.652  21.062  0.00  0.00    +0.000 N 
ATOM     10  C   UNL     1      -0.776  10.460  21.751  0.00  0.00    +0.000 C 
ATOM     11  C   UNL     1       0.756  10.296  21.601  0.00  0.00    +0.000 C 
ATOM     12  C   UNL     1       1.284   9.403  22.727  0.00  0.00    +0.000 C 
ATOM     13  N   UNL     1       1.175  10.004  20.192  0.00  0.00    +0.000 N 
ATOM     14  C   UNL     1       1.355   8.755  19.588  0.00  0.00    +0.000 C 
ATOM     15  O   UNL     1       1.560   8.622  18.380  0.00  0.00    +0.000 OA
ENDROOT
BRANCH   9  16
ATOM     16  C   UNL     1      -1.629  12.875  21.788  0.00  0.00    +0.000 C 
BRANCH  16  17
ATOM     17  C   UNL     1      -2.962  12.808  22.504  0.00  0.00    +0.000 A 
ATOM     18  C   UNL     1      -4.159  13.149  21.858  0.00  0.00    +0.000 A 
ATOM     19  C   UNL     1      -5.367  13.182  22.551  0.00  0.00    +0.000 A 
ATOM     20  C   UNL     1      -5.403  12.837  23.899  0.00  0.00    +0.000 A 
ATOM     21  C   UNL     1      -4.237  12.426  24.542  0.00  0.00    +0.000 A 
ATOM     22  C   UNL     1      -3.025  12.406  23.848  0.00  0.00    +0.000 A 
ENDBRANCH  16  17
ENDBRANCH   9  16
BRANCH  14  23
ATOM     23  C   UNL     1       1.310   7.517  20.453  0.00  0.00    +0.000 C 
BRANCH  23  24
ATOM     24  C   UNL     1       2.442   6.526  20.179  0.00  0.00    +0.000 C 
BRANCH  24  25
ATOM     25  C   UNL     1       1.855   5.224  19.700  0.00  0.00    +0.000 A 
ATOM     26  C   UNL     1       1.423   4.253  20.607  0.00  0.00    +0.000 A 
ATOM     27  C   UNL     1       1.015   3.008  20.141  0.00  0.00    +0.000 A 
ATOM     28  C   UNL     1       1.051   2.773  18.778  0.00  0.00    +0.000 A 
ATOM     29  N   UNL     1       1.443   3.690  17.867  0.00  0.00    +0.000 NA
ATOM     30  C   UNL     1       1.833   4.892  18.348  0.00  0.00    +0.000 A 
ENDBRANCH  24  25
ENDBRANCH  23  24
ENDBRANCH  14  23
TORSDOF 5
ENDMDL
MODEL 3
REMARK VINA RESULT:      -7.1      2.973      7.564
REMARK  Name = 
REMARK  7 active torsions:
REMARK  status: ('A' for Active; 'I' for Inactive)
REMARK    1  A    between atoms: C_1  and  C_2
REMARK    2  A    between atoms: N_9  and  C_10
REMARK    3  A    between atoms: C_10  and  C_11
REMARK    4  A    between atoms: C_18  and  C_19
REMARK    5  A    between atoms: C_21  and  C_23
REMARK    6  A    between atoms: C_23  and  C_24
REMARK    7  A    between atoms: C_24  and  C_25
REMARK                            x       y       z     vdW  Elec       q    Type
REMARK                         _______ _______ _______ _____ _____    ______ ____
ROOT
ATOM      1  C   UNL     1       2.122  10.695  17.894  0.00  0.00    +0.000 C 
ATOM      2  C   UNL     1       1.073  10.565  19.011  0.00  0.00    +0.000 C 
ATOM      3  C   UNL     1      -0.388  10.497  18.570  0.00  0.00    +0.000 A 
ATOM      4  C   UNL     1      -0.755  10.021  17.299  0.00  0.00    +0.000 A 
ATOM      5  C   UNL     1      -2.090  10.009  16.898  0.00  0.00    +0.000 A 
ATOM      6  C   UNL     1      -3.078  10.475  17.758  0.00  0.00    +0.000 A 
ATOM      7  C   UNL     1      -2.731  10.932  19.030  0.00  0.00    +0.000 A 
ATOM      8  C   UNL     1      -1.398  10.929  19.466  0.00  0.00    +0.000 A 
ATOM      9  N   UNL     1      -1.086  11.254  20.782  0.00  0.00    +0.000 N 
ATOM     10  C   UNL     1      -0.546  10.159  21.594  0.00  0.00    +0.000 C 
ATOM     11  C   UNL     1       0.984   9.992  21.418  0.00  0.00    +0.000 C 
ATOM     12  C   UNL     1       1.555   9.246  22.628  0.00  0.00    +0.000 C 
ATOM     13  N   UNL     1       1.366   9.536  20.043  0.00  0.00    +0.000 N 
ATOM     14  C   UNL     1       1.544   8.225  19.588  0.00  0.00    +0.000 C 
ATOM     15  O   UNL     1       1.715   7.949  18.399  0.00  0.00    +0.000 OA
ENDROOT
BRANCH   9  16
ATOM     16  C   UNL     1      -1.428  12.552  21.366  0.00  0.00    +0.000 C 
BRANCH  16  17
ATOM     17  C   UNL     1      -0.659  13.715  20.774  0.00  0.00    +0.000 A 
ATOM     18  C   UNL     1      -1.316  14.792  20.161  0.00  0.00    +0.000 A 
ATOM     19  C   UNL     1      -0.600  15.807  19.530  0.00  0.00    +0.000 A 
ATOM     20  C   UNL     1       0.792  15.781  19.535  0.00  0.00    +0.000 A 
ATOM     21  C   UNL     1       1.464  14.758  20.201  0.00  0.00    +0.000 A 
ATOM     22  C   UNL     1       0.744  13.734  20.821  0.00  0.00    +0.000 A 
ENDBRANCH  16  17
ENDBRANCH   9  16
BRANCH  14  23
ATOM     23  C   UNL     1       1.539   7.100  20.597  0.00  0.00    +0.000 C 
BRANCH  23  24
ATOM     24  C   UNL     1       2.570   6.007  20.312  0.00  0.00    +0.000 C 
BRANCH  24  25
ATOM     25  C   UNL     1       1.865   4.790  19.771  0.00  0.00    +0.000 A 
ATOM     26  C   UNL     1       1.283   3.855  20.631  0.00  0.00    +0.000 A 
ATOM     27  C   UNL     1       0.761   2.674  20.113  0.00  0.00    +0.000 A 
ATOM     28  C   UNL     1       0.837   2.467  18.747  0.00  0.00    +0.000 A 
ATOM     29  N   UNL     1       1.373   3.353  17.880  0.00  0.00    +0.000 NA
ATOM     30  C   UNL     1       1.872   4.493  18.411  0.00  0.00    +0.000 A 
ENDBRANCH  24  25
ENDBRANCH  23  24
ENDBRANCH  14  23
TORSDOF 5
ENDMDL
MODEL 4
REMARK VINA RESULT:      -7.0      3.822      8.351
REMARK  Name = 
REMARK  7 active torsions:
REMARK  status: ('A' for Active; 'I' for Inactive)
REMARK    1  A    between atoms: C_1  and  C_2
REMARK    2  A    between atoms: N_9  and  C_10
REMARK    3  A    between atoms: C_10  and  C_11
REMARK    4  A    between atoms: C_18  and  C_19
REMARK    5  A    between atoms: C_21  and  C_23
REMARK    6  A    between atoms: C_23  and  C_24
REMARK    7  A    between atoms: C_24  and  C_25
REMARK                            x       y       z     vdW  Elec       q    Type
REMARK                         _______ _______ _______ _____ _____    ______ ____
ROOT
ATOM      1  C   UNL     1      -0.748  10.399  18.101  0.00  0.00    +0.000 C 
ATOM      2  C   UNL     1      -0.854  11.479  19.191  0.00  0.00    +0.000 C 
ATOM      3  C   UNL     1      -0.791  10.995  20.639  0.00  0.00    +0.000 A 
ATOM      4  C   UNL     1      -0.135   9.803  20.991  0.00  0.00    +0.000 A 
ATOM      5  C   UNL     1      -0.126   9.354  22.310  0.00  0.00    +0.000 A 
ATOM      6  C   UNL     1      -0.775  10.087  23.298  0.00  0.00    +0.000 A 
ATOM      7  C   UNL     1      -1.415  11.282  22.966  0.00  0.00    +0.000 A 
ATOM      8  C   UNL     1      -1.413  11.768  21.651  0.00  0.00    +0.000 A 
ATOM      9  N   UNL     1      -1.930  13.027  21.364  0.00  0.00    +0.000 N 
ATOM     10  C   UNL     1      -0.955  14.025  20.913  0.00  0.00    +0.000 C 
ATOM     11  C   UNL     1      -0.684  13.941  19.391  0.00  0.00    +0.000 C 
ATOM     12  C   UNL     1      -0.115  15.277  18.902  0.00  0.00    +0.000 C 
ATOM     13  N   UNL     1       0.007  12.673  18.991  0.00  0.00    +0.000 N 
ATOM     14  C   UNL     1       1.383  12.441  18.874  0.00  0.00    +0.000 C 
ATOM     15  O   UNL     1       1.856  11.320  18.680  0.00  0.00    +0.000 OA
ENDROOT
BRANCH   9  16
ATOM     16  C   UNL     1      -3.322  13.381  21.649  0.00  0.00    +0.000 C 
BRANCH  16  17
ATOM     17  C   UNL     1      -4.328  12.708  20.739  0.00  0.00    +0.000 A 
ATOM     18  C   UNL     1      -5.605  12.350  21.195  0.00  0.00    +0.000 A 
ATOM     19  C   UNL     1      -6.488  11.641  20.382  0.00  0.00    +0.000 A 
ATOM     20  C   UNL     1      -6.119  11.310  19.081  0.00  0.00    +0.000 A 
ATOM     21  C   UNL     1      -4.882  11.719  18.585  0.00  0.00    +0.000 A 
ATOM     22  C   UNL     1      -3.994  12.418  19.406  0.00  0.00    +0.000 A 
ENDBRANCH  16  17
ENDBRANCH   9  16
BRANCH  14  23
ATOM     23  C   UNL     1       2.328  13.617  18.976  0.00  0.00    +0.000 C 
BRANCH  23  24
ATOM     24  C   UNL     1       3.302  13.732  17.802  0.00  0.00    +0.000 C 
BRANCH  24  25
ATOM     25  C   UNL     1       4.246  14.879  18.055  0.00  0.00    +0.000 A 
ATOM     26  C   UNL     1       5.630  14.692  18.019  0.00  0.00    +0.000 A 
ATOM     27  C   UNL     1       6.476  15.732  18.392  0.00  0.00    +0.000 A 
ATOM     28  C   UNL     1       5.908  16.930  18.788  0.00  0.00    +0.000 A 
ATOM     29  N   UNL     1       4.577  17.157  18.818  0.00  0.00    +0.000 NA
ATOM     30  C   UNL     1       3.779  16.130  18.450  0.00  0.00    +0.000 A 
ENDBRANCH  24  25
ENDBRANCH  23  24
ENDBRANCH  14  23
TORSDOF 5
ENDMDL
MODEL 5
REMARK VINA RESULT:      -7.0      2.791      7.872
REMARK  Name = 
REMARK  7 active torsions:
REMARK  status: ('A' for Active; 'I' for Inactive)
REMARK    1  A    between atoms: C_1  and  C_2
REMARK    2  A    between atoms: N_9  and  C_10
REMARK    3  A    between atoms: C_10  and  C_11
REMARK    4  A    between atoms: C_18  and  C_19
REMARK    5  A    between atoms: C_21  and  C_23
REMARK    6  A    between atoms: C_23  and  C_24
REMARK    7  A    between atoms: C_24  and  C_25
REMARK                            x       y       z     vdW  Elec       q    Type
REMARK                         _______ _______ _______ _____ _____    ______ ____
ROOT
ATOM      1  C   UNL     1       2.168  10.415  17.879  0.00  0.00    +0.000 C 
ATOM      2  C   UNL     1       1.106  10.396  18.991  0.00  0.00    +0.000 C 
ATOM      3  C   UNL     1      -0.354  10.393  18.540  0.00  0.00    +0.000 A 
ATOM      4  C   UNL     1      -0.739   9.882  17.288  0.00  0.00    +0.000 A 
ATOM      5  C   UNL     1      -2.070   9.929  16.876  0.00  0.00    +0.000 A 
ATOM      6  C   UNL     1      -3.035  10.490  17.705  0.00  0.00    +0.000 A 
ATOM      7  C   UNL     1      -2.670  10.984  18.958  0.00  0.00    +0.000 A 
ATOM      8  C   UNL     1      -1.343  10.922  19.406  0.00  0.00    +0.000 A 
ATOM      9  N   UNL     1      -1.021  11.287  20.709  0.00  0.00    +0.000 N 
ATOM     10  C   UNL     1      -0.551  10.200  21.574  0.00  0.00    +0.000 C 
ATOM     11  C   UNL     1       0.967   9.938  21.421  0.00  0.00    +0.000 C 
ATOM     12  C   UNL     1       1.486   9.215  22.667  0.00  0.00    +0.000 C 
ATOM     13  N   UNL     1       1.331   9.399  20.070  0.00  0.00    +0.000 N 
ATOM     14  C   UNL     1       1.436   8.061  19.676  0.00  0.00    +0.000 C 
ATOM     15  O   UNL     1       1.599   7.722  18.502  0.00  0.00    +0.000 OA
ENDROOT
BRANCH   9  16
ATOM     16  C   UNL     1      -1.290  12.628  21.232  0.00  0.00    +0.000 C 
BRANCH  16  17
ATOM     17  C   UNL     1      -2.587  12.738  22.007  0.00  0.00    +0.000 A 
ATOM     18  C   UNL     1      -2.640  12.489  23.386  0.00  0.00    +0.000 A 
ATOM     19  C   UNL     1      -3.853  12.494  24.072  0.00  0.00    +0.000 A 
ATOM     20  C   UNL     1      -5.033  12.786  23.394  0.00  0.00    +0.000 A 
ATOM     21  C   UNL     1      -4.993  13.107  22.038  0.00  0.00    +0.000 A 
ATOM     22  C   UNL     1      -3.778  13.089  21.350  0.00  0.00    +0.000 A 
ENDBRANCH  16  17
ENDBRANCH   9  16
BRANCH  14  23
ATOM     23  C   UNL     1       1.359   6.984  20.734  0.00  0.00    +0.000 C 
BRANCH  23  24
ATOM     24  C   UNL     1       2.498   5.966  20.666  0.00  0.00    +0.000 C 
BRANCH  24  25
ATOM     25  C   UNL     1       2.041   4.764  19.881  0.00  0.00    +0.000 A 
ATOM     26  C   UNL     1       0.984   3.969  20.333  0.00  0.00    +0.000 A 
ATOM     27  C   UNL     1       0.674   2.790  19.664  0.00  0.00    +0.000 A 
ATOM     28  C   UNL     1       1.432   2.443  18.559  0.00  0.00    +0.000 A 
ATOM     29  N   UNL     1       2.448   3.193  18.079  0.00  0.00    +0.000 NA
ATOM     30  C   UNL     1       2.726   4.334  18.748  0.00  0.00    +0.000 A 
ENDBRANCH  24  25
ENDBRANCH  23  24
ENDBRANCH  14  23
TORSDOF 5
ENDMDL
MODEL 6
REMARK VINA RESULT:      -7.0      2.876      7.746
REMARK  Name = 
REMARK  7 active torsions:
REMARK  status: ('A' for Active; 'I' for Inactive)
REMARK    1  A    between atoms: C_1  and  C_2
REMARK    2  A    between atoms: N_9  and  C_10
REMARK    3  A    between atoms: C_10  and  C_11
REMARK    4  A    between atoms: C_18  and  C_19
REMARK    5  A    between atoms: C_21  and  C_23
REMARK    6  A    between atoms: C_23  and  C_24
REMARK    7  A    between atoms: C_24  and  C_25
REMARK                            x       y       z     vdW  Elec       q    Type
REMARK                         _______ _______ _______ _____ _____    ______ ____
ROOT
ATOM      1  C   UNL     1       1.881  11.817  18.458  0.00  0.00    +0.000 C 
ATOM      2  C   UNL     1       0.924  11.483  19.613  0.00  0.00    +0.000 C 
ATOM      3  C   UNL     1      -0.570  11.619  19.322  0.00  0.00    +0.000 A 
ATOM      4  C   UNL     1      -1.083  11.495  18.019  0.00  0.00    +0.000 A 
ATOM      5  C   UNL     1      -2.443  11.667  17.766  0.00  0.00    +0.000 A 
ATOM      6  C   UNL     1      -3.311  11.970  18.810  0.00  0.00    +0.000 A 
ATOM      7  C   UNL     1      -2.819  12.077  20.111  0.00  0.00    +0.000 A 
ATOM      8  C   UNL     1      -1.460  11.881  20.394  0.00  0.00    +0.000 A 
ATOM      9  N   UNL     1      -1.011  11.851  21.710  0.00  0.00    +0.000 N 
ATOM     10  C   UNL     1      -0.501  10.558  22.177  0.00  0.00    +0.000 C 
ATOM     11  C   UNL     1       0.988  10.342  21.810  0.00  0.00    +0.000 C 
ATOM     12  C   UNL     1       1.592   9.287  22.740  0.00  0.00    +0.000 C 
ATOM     13  N   UNL     1       1.211  10.216  20.334  0.00  0.00    +0.000 N 
ATOM     14  C   UNL     1       1.235   9.048  19.562  0.00  0.00    +0.000 C 
ATOM     15  O   UNL     1       1.281   9.063  18.331  0.00  0.00    +0.000 OA
ENDROOT
BRANCH   9  16
ATOM     16  C   UNL     1      -1.187  12.985  22.620  0.00  0.00    +0.000 C 
BRANCH  16  17
ATOM     17  C   UNL     1      -2.614  13.183  23.087  0.00  0.00    +0.000 A 
ATOM     18  C   UNL     1      -3.269  12.221  23.871  0.00  0.00    +0.000 A 
ATOM     19  C   UNL     1      -4.613  12.364  24.211  0.00  0.00    +0.000 A 
ATOM     20  C   UNL     1      -5.316  13.494  23.803  0.00  0.00    +0.000 A 
ATOM     21  C   UNL     1      -4.664  14.496  23.086  0.00  0.00    +0.000 A 
ATOM     22  C   UNL     1      -3.320  14.344  22.734  0.00  0.00    +0.000 A 
ENDBRANCH  16  17
ENDBRANCH   9  16
BRANCH  14  23
ATOM     23  C   UNL     1       1.218   7.712  20.268  0.00  0.00    +0.000 C 
BRANCH  23  24
ATOM     24  C   UNL     1       2.375   6.790  19.879  0.00  0.00    +0.000 C 
BRANCH  24  25
ATOM     25  C   UNL     1       1.825   5.440  19.499  0.00  0.00    +0.000 A 
ATOM     26  C   UNL     1       1.317   4.571  20.469  0.00  0.00    +0.000 A 
ATOM     27  C   UNL     1       0.945   3.280  20.109  0.00  0.00    +0.000 A 
ATOM     28  C   UNL     1       1.091   2.898  18.787  0.00  0.00    +0.000 A 
ATOM     29  N   UNL     1       1.560   3.713  17.817  0.00  0.00    +0.000 NA
ATOM     30  C   UNL     1       1.913   4.962  18.194  0.00  0.00    +0.000 A 
ENDBRANCH  24  25
ENDBRANCH  23  24
ENDBRANCH  14  23
TORSDOF 5
ENDMDL
MODEL 7
REMARK VINA RESULT:      -6.9      3.371      7.783
REMARK  Name = 
REMARK  7 active torsions:
REMARK  status: ('A' for Active; 'I' for Inactive)
REMARK    1  A    between atoms: C_1  and  C_2
REMARK    2  A    between atoms: N_9  and  C_10
REMARK    3  A    between atoms: C_10  and  C_11
REMARK    4  A    between atoms: C_18  and  C_19
REMARK    5  A    between atoms: C_21  and  C_23
REMARK    6  A    between atoms: C_23  and  C_24
REMARK    7  A    between atoms: C_24  and  C_25
REMARK                            x       y       z     vdW  Elec       q    Type
REMARK                         _______ _______ _______ _____ _____    ______ ____
ROOT
ATOM      1  C   UNL     1      -2.090  12.313  18.242  0.00  0.00    +0.000 C 
ATOM      2  C   UNL     1      -0.888  12.789  19.073  0.00  0.00    +0.000 C 
ATOM      3  C   UNL     1      -1.097  12.885  20.584  0.00  0.00    +0.000 A 
ATOM      4  C   UNL     1      -2.054  12.097  21.248  0.00  0.00    +0.000 A 
ATOM      5  C   UNL     1      -2.262  12.231  22.619  0.00  0.00    +0.000 A 
ATOM      6  C   UNL     1      -1.522  13.155  23.348  0.00  0.00    +0.000 A 
ATOM      7  C   UNL     1      -0.556  13.930  22.706  0.00  0.00    +0.000 A 
ATOM      8  C   UNL     1      -0.309  13.794  21.332  0.00  0.00    +0.000 A 
ATOM      9  N   UNL     1       0.751  14.470  20.736  0.00  0.00    +0.000 N 
ATOM     10  C   UNL     1       1.837  13.624  20.230  0.00  0.00    +0.000 C 
ATOM     11  C   UNL     1       1.555  13.092  18.803  0.00  0.00    +0.000 C 
ATOM     12  C   UNL     1       2.877  12.694  18.140  0.00  0.00    +0.000 C 
ATOM     13  N   UNL     1       0.407  12.131  18.757  0.00  0.00    +0.000 N 
ATOM     14  C   UNL     1       0.444  10.736  18.870  0.00  0.00    +0.000 C 
ATOM     15  O   UNL     1      -0.573  10.047  18.966  0.00  0.00    +0.000 OA
ENDROOT
BRANCH   9  16
ATOM     16  C   UNL     1       0.857  15.930  20.760  0.00  0.00    +0.000 C 
BRANCH  16  17
ATOM     17  C   UNL     1       0.662  16.583  19.408  0.00  0.00    +0.000 A 
ATOM     18  C   UNL     1       1.753  16.967  18.614  0.00  0.00    +0.000 A 
ATOM     19  C   UNL     1       1.567  17.657  17.418  0.00  0.00    +0.000 A 
ATOM     20  C   UNL     1       0.278  17.943  16.976  0.00  0.00    +0.000 A 
ATOM     21  C   UNL     1      -0.821  17.507  17.713  0.00  0.00    +0.000 A 
ATOM     22  C   UNL     1      -0.632  16.827  18.918  0.00  0.00    +0.000 A 
ENDBRANCH  16  17
ENDBRANCH   9  16
BRANCH  14  23
ATOM     23  C   UNL     1       1.788  10.043  18.861  0.00  0.00    +0.000 C 
BRANCH  23  24
ATOM     24  C   UNL     1       1.988   9.093  17.679  0.00  0.00    +0.000 C 
BRANCH  24  25
ATOM     25  C   UNL     1       2.591   7.805  18.177  0.00  0.00    +0.000 A 
ATOM     26  C   UNL     1       2.158   7.224  19.371  0.00  0.00    +0.000 A 
ATOM     27  C   UNL     1       2.825   6.113  19.877  0.00  0.00    +0.000 A 
ATOM     28  C   UNL     1       3.906   5.617  19.169  0.00  0.00    +0.000 A 
ATOM     29  N   UNL     1       4.343   6.138  18.002  0.00  0.00    +0.000 NA
ATOM     30  C   UNL     1       3.676   7.216  17.533  0.00  0.00    +0.000 A 
ENDBRANCH  24  25
ENDBRANCH  23  24
ENDBRANCH  14  23
TORSDOF 5
ENDMDL
MODEL 8
REMARK VINA RESULT:      -6.8      4.216      8.785
REMARK  Name = 
REMARK  7 active torsions:
REMARK  status: ('A' for Active; 'I' for Inactive)
REMARK    1  A    between atoms: C_1  and  C_2
REMARK    2  A    between atoms: N_9  and  C_10
REMARK    3  A    between atoms: C_10  and  C_11
REMARK    4  A    between atoms: C_18  and  C_19
REMARK    5  A    between atoms: C_21  and  C_23
REMARK    6  A    between atoms: C_23  and  C_24
REMARK    7  A    between atoms: C_24  and  C_25
REMARK                            x       y       z     vdW  Elec       q    Type
REMARK                         _______ _______ _______ _____ _____    ______ ____
ROOT
ATOM      1  C   UNL     1      -0.619  10.342  18.101  0.00  0.00    +0.000 C 
ATOM      2  C   UNL     1      -0.758  11.324  19.276  0.00  0.00    +0.000 C 
ATOM      3  C   UNL     1      -0.558  10.745  20.676  0.00  0.00    +0.000 A 
ATOM      4  C   UNL     1       0.228   9.601  20.897  0.00  0.00    +0.000 A 
ATOM      5  C   UNL     1       0.362   9.062  22.175  0.00  0.00    +0.000 A 
ATOM      6  C   UNL     1      -0.290   9.653  23.251  0.00  0.00    +0.000 A 
ATOM      7  C   UNL     1      -1.059  10.800  23.050  0.00  0.00    +0.000 A 
ATOM      8  C   UNL     1      -1.186  11.377  21.778  0.00  0.00    +0.000 A 
ATOM      9  N   UNL     1      -1.837  12.596  21.619  0.00  0.00    +0.000 N 
ATOM     10  C   UNL     1      -0.990  13.716  21.195  0.00  0.00    +0.000 C 
ATOM     11  C   UNL     1      -0.809  13.770  19.658  0.00  0.00    +0.000 C 
ATOM     12  C   UNL     1      -0.400  15.187  19.244  0.00  0.00    +0.000 C 
ATOM     13  N   UNL     1      -0.027  12.609  19.123  0.00  0.00    +0.000 N 
ATOM     14  C   UNL     1       1.354  12.523  18.912  0.00  0.00    +0.000 C 
ATOM     15  O   UNL     1       1.918  11.471  18.605  0.00  0.00    +0.000 OA
ENDROOT
BRANCH   9  16
ATOM     16  C   UNL     1      -3.235  12.790  22.008  0.00  0.00    +0.000 C 
BRANCH  16  17
ATOM     17  C   UNL     1      -3.447  13.906  23.009  0.00  0.00    +0.000 A 
ATOM     18  C   UNL     1      -4.155  15.069  22.672  0.00  0.00    +0.000 A 
ATOM     19  C   UNL     1      -4.259  16.134  23.565  0.00  0.00    +0.000 A 
ATOM     20  C   UNL     1      -3.685  16.037  24.829  0.00  0.00    +0.000 A 
ATOM     21  C   UNL     1      -3.039  14.862  25.210  0.00  0.00    +0.000 A 
ATOM     22  C   UNL     1      -2.924  13.802  24.308  0.00  0.00    +0.000 A 
ENDBRANCH  16  17
ENDBRANCH   9  16
BRANCH  14  23
ATOM     23  C   UNL     1       2.188  13.775  19.052  0.00  0.00    +0.000 C 
BRANCH  23  24
ATOM     24  C   UNL     1       2.825  14.247  17.744  0.00  0.00    +0.000 C 
BRANCH  24  25
ATOM     25  C   UNL     1       3.977  15.166  18.057  0.00  0.00    +0.000 A 
ATOM     26  C   UNL     1       5.298  14.722  17.962  0.00  0.00    +0.000 A 
ATOM     27  C   UNL     1       6.334  15.545  18.389  0.00  0.00    +0.000 A 
ATOM     28  C   UNL     1       6.014  16.792  18.899  0.00  0.00    +0.000 A 
ATOM     29  N   UNL     1       4.753  17.266  18.990  0.00  0.00    +0.000 NA
ATOM     30  C   UNL     1       3.766  16.445  18.566  0.00  0.00    +0.000 A 
ENDBRANCH  24  25
ENDBRANCH  23  24
ENDBRANCH  14  23
TORSDOF 5
ENDMDL
MODEL 9
REMARK VINA RESULT:      -6.8      2.781      8.005
REMARK  Name = 
REMARK  7 active torsions:
REMARK  status: ('A' for Active; 'I' for Inactive)
REMARK    1  A    between atoms: C_1  and  C_2
REMARK    2  A    between atoms: N_9  and  C_10
REMARK    3  A    between atoms: C_10  and  C_11
REMARK    4  A    between atoms: C_18  and  C_19
REMARK    5  A    between atoms: C_21  and  C_23
REMARK    6  A    between atoms: C_23  and  C_24
REMARK    7  A    between atoms: C_24  and  C_25
REMARK                            x       y       z     vdW  Elec       q    Type
REMARK                         _______ _______ _______ _____ _____    ______ ____
ROOT
ATOM      1  C   UNL     1       2.179  10.695  17.959  0.00  0.00    +0.000 C 
ATOM      2  C   UNL     1       1.098  10.594  19.047  0.00  0.00    +0.000 C 
ATOM      3  C   UNL     1      -0.347  10.472  18.564  0.00  0.00    +0.000 A 
ATOM      4  C   UNL     1      -0.662   9.927  17.307  0.00  0.00    +0.000 A 
ATOM      5  C   UNL     1      -1.982   9.865  16.864  0.00  0.00    +0.000 A 
ATOM      6  C   UNL     1      -3.008  10.349  17.668  0.00  0.00    +0.000 A 
ATOM      7  C   UNL     1      -2.712  10.876  18.926  0.00  0.00    +0.000 A 
ATOM      8  C   UNL     1      -1.395  10.923  19.404  0.00  0.00    +0.000 A 
ATOM      9  N   UNL     1      -1.133  11.318  20.712  0.00  0.00    +0.000 N 
ATOM     10  C   UNL     1      -0.597  10.276  21.594  0.00  0.00    +0.000 C 
ATOM     11  C   UNL     1       0.941  10.136  21.475  0.00  0.00    +0.000 C 
ATOM     12  C   UNL     1       1.488   9.462  22.737  0.00  0.00    +0.000 C 
ATOM     13  N   UNL     1       1.377   9.624  20.137  0.00  0.00    +0.000 N 
ATOM     14  C   UNL     1       1.598   8.296  19.752  0.00  0.00    +0.000 C 
ATOM     15  O   UNL     1       1.815   7.967  18.584  0.00  0.00    +0.000 OA
ENDROOT
BRANCH   9  16
ATOM     16  C   UNL     1      -1.521  12.635  21.222  0.00  0.00    +0.000 C 
BRANCH  16  17
ATOM     17  C   UNL     1      -2.795  12.628  22.040  0.00  0.00    +0.000 A 
ATOM     18  C   UNL     1      -4.046  12.867  21.453  0.00  0.00    +0.000 A 
ATOM     19  C   UNL     1      -5.200  12.958  22.228  0.00  0.00    +0.000 A 
ATOM     20  C   UNL     1      -5.127  12.773  23.606  0.00  0.00    +0.000 A 
ATOM     21  C   UNL     1      -3.905  12.462  24.200  0.00  0.00    +0.000 A 
ATOM     22  C   UNL     1      -2.747  12.385  23.423  0.00  0.00    +0.000 A 
ENDBRANCH  16  17
ENDBRANCH   9  16
BRANCH  14  23
ATOM     23  C   UNL     1       1.585   7.221  20.814  0.00  0.00    +0.000 C 
BRANCH  23  24
ATOM     24  C   UNL     1       0.812   5.963  20.414  0.00  0.00    +0.000 C 
BRANCH  24  25
ATOM     25  C   UNL     1       1.761   4.794  20.366  0.00  0.00    +0.000 A 
ATOM     26  C   UNL     1       1.586   3.691  21.207  0.00  0.00    +0.000 A 
ATOM     27  C   UNL     1       2.552   2.691  21.241  0.00  0.00    +0.000 A 
ATOM     28  C   UNL     1       3.665   2.826  20.429  0.00  0.00    +0.000 A 
ATOM     29  N   UNL     1       3.862   3.865  19.590  0.00  0.00    +0.000 NA
ATOM     30  C   UNL     1       2.907   4.822  19.576  0.00  0.00    +0.000 A 
ENDBRANCH  24  25
ENDBRANCH  23  24
ENDBRANCH  14  23
TORSDOF 5
ENDMDL
