MODEL 1
REMARK VINA RESULT:      -7.3      0.000      0.000
REMARK  Name = 
REMARK  8 active torsions:
REMARK  status: ('A' for Active; 'I' for Inactive)
REMARK    1  A    between atoms: C_2  and  C_3
REMARK    2  A    between atoms: C_3  and  C_4
REMARK    3  A    between atoms: C_4  and  C_5
REMARK    4  A    between atoms: C_5  and  C_6
REMARK    5  A    between atoms: N_8  and  C_9
REMARK    6  A    between atoms: C_12  and  C_14
REMARK    7  A    between atoms: C_14  and  C_15
REMARK    8  A    between atoms: C_15  and  C_16
REMARK                            x       y       z     vdW  Elec       q    Type
REMARK                         _______ _______ _______ _____ _____    ______ ____
ROOT
ATOM      1  C   UNL     1       4.492   4.476  18.204  0.00  0.00    +0.000 C 
ATOM      2  C   UNL     1       5.524   5.432  18.857  0.00  0.00    +0.000 C 
ATOM      3  N   UNL     1       6.151   5.574  17.555  0.00  0.00    +0.000 N 
ATOM      4  C   UNL     1       7.226   6.304  17.099  0.00  0.00    +0.000 C 
ATOM      5  O   UNL     1       7.611   6.279  15.931  0.00  0.00    +0.000 OA
ATOM      6  C   UNL     1       5.294   4.731  16.899  0.00  0.00    +0.000 C 
ATOM      7  O   UNL     1       5.221   4.330  15.760  0.00  0.00    +0.000 OA
ENDROOT
BRANCH   1  10
ATOM      8  C   UNL     1       3.611   2.079  18.373  0.00  0.00    +0.000 C 
ATOM      9  O   UNL     1       3.804   0.946  18.805  0.00  0.00    +0.000 OA
ATOM     10  N   UNL     1       4.495   3.077  18.687  0.00  0.00    +0.000 N 
ATOM     11  H   UNL     1       5.280   2.742  19.242  0.00  0.00    +0.000 HD
BRANCH   8  12
ATOM     12  C   UNL     1       2.422   2.450  17.507  0.00  0.00    +0.000 C 
BRANCH  12  13
ATOM     13  C   UNL     1       1.468   3.425  18.199  0.00  0.00    +0.000 C 
BRANCH  13  14
ATOM     14  C   UNL     1       0.837   2.776  19.433  0.00  0.00    +0.000 C 
BRANCH  14  16
ATOM     15  C   UNL     1       2.058   3.205  21.578  0.00  0.00    +0.000 C 
ATOM     16  C   UNL     1       1.120   3.550  20.686  0.00  0.00    +0.000 C 
ENDBRANCH  14  16
ENDBRANCH  13  14
ENDBRANCH  12  13
ENDBRANCH   8  12
ENDBRANCH   1  10
BRANCH   4  17
ATOM     17  C   UNL     1       7.953   7.121  18.156  0.00  0.00    +0.000 C 
BRANCH  17  18
ATOM     18  C   UNL     1       7.920   8.607  17.793  0.00  0.00    +0.000 C 
BRANCH  18  19
ATOM     19  C   UNL     1       8.746   9.450  18.724  0.00  0.00    +0.000 C 
ATOM     20  C   UNL     1       9.348  10.590  18.359  0.00  0.00    +0.000 C 
ENDBRANCH  18  19
ENDBRANCH  17  18
ENDBRANCH   4  17
TORSDOF 8
ENDMDL
MODEL 2
REMARK VINA RESULT:      -6.9      3.280      6.894
REMARK  Name = 
REMARK  8 active torsions:
REMARK  status: ('A' for Active; 'I' for Inactive)
REMARK    1  A    between atoms: C_2  and  C_3
REMARK    2  A    between atoms: C_3  and  C_4
REMARK    3  A    between atoms: C_4  and  C_5
REMARK    4  A    between atoms: C_5  and  C_6
REMARK    5  A    between atoms: N_8  and  C_9
REMARK    6  A    between atoms: C_12  and  C_14
REMARK    7  A    between atoms: C_14  and  C_15
REMARK    8  A    between atoms: C_15  and  C_16
REMARK                            x       y       z     vdW  Elec       q    Type
REMARK                         _______ _______ _______ _____ _____    ______ ____
ROOT
ATOM      1  C   UNL     1       4.443   4.654  16.992  0.00  0.00    +0.000 C 
ATOM      2  C   UNL     1       3.832   4.030  18.274  0.00  0.00    +0.000 C 
ATOM      3  N   UNL     1       3.402   5.362  18.663  0.00  0.00    +0.000 N 
ATOM      4  C   UNL     1       2.699   5.849  19.742  0.00  0.00    +0.000 C 
ATOM      5  O   UNL     1       2.438   7.041  19.894  0.00  0.00    +0.000 OA
ATOM      6  C   UNL     1       3.924   5.999  17.570  0.00  0.00    +0.000 C 
ATOM      7  O   UNL     1       3.978   7.156  17.220  0.00  0.00    +0.000 OA
ENDROOT
BRANCH   1  10
ATOM      8  C   UNL     1       6.654   4.667  15.701  0.00  0.00    +0.000 C 
ATOM      9  O   UNL     1       7.879   4.631  15.771  0.00  0.00    +0.000 OA
ATOM     10  N   UNL     1       5.913   4.551  16.848  0.00  0.00    +0.000 N 
ATOM     11  H   UNL     1       6.493   4.484  17.682  0.00  0.00    +0.000 HD
BRANCH   8  12
ATOM     12  C   UNL     1       5.896   4.822  14.397  0.00  0.00    +0.000 C 
BRANCH  12  13
ATOM     13  C   UNL     1       5.835   3.523  13.591  0.00  0.00    +0.000 C 
BRANCH  13  14
ATOM     14  C   UNL     1       5.567   3.819  12.113  0.00  0.00    +0.000 C 
BRANCH  14  16
ATOM     15  C   UNL     1       3.629   3.540  10.550  0.00  0.00    +0.000 C 
ATOM     16  C   UNL     1       4.332   3.130  11.615  0.00  0.00    +0.000 C 
ENDBRANCH  14  16
ENDBRANCH  13  14
ENDBRANCH  12  13
ENDBRANCH   8  12
ENDBRANCH   1  10
BRANCH   4  17
ATOM     17  C   UNL     1       2.299   4.812  20.781  0.00  0.00    +0.000 C 
BRANCH  17  18
ATOM     18  C   UNL     1       0.920   4.236  20.452  0.00  0.00    +0.000 C 
BRANCH  18  19
ATOM     19  C   UNL     1       0.979   2.793  20.037  0.00  0.00    +0.000 C 
ATOM     20  C   UNL     1       0.650   2.357  18.814  0.00  0.00    +0.000 C 
ENDBRANCH  18  19
ENDBRANCH  17  18
ENDBRANCH   4  17
TORSDOF 8
ENDMDL
MODEL 3
REMARK VINA RESULT:      -6.9      2.922      4.526
REMARK  Name = 
REMARK  8 active torsions:
REMARK  status: ('A' for Active; 'I' for Inactive)
REMARK    1  A    between atoms: C_2  and  C_3
REMARK    2  A    between atoms: C_3  and  C_4
REMARK    3  A    between atoms: C_4  and  C_5
REMARK    4  A    between atoms: C_5  and  C_6
REMARK    5  A    between atoms: N_8  and  C_9
REMARK    6  A    between atoms: C_12  and  C_14
REMARK    7  A    between atoms: C_14  and  C_15
REMARK    8  A    between atoms: C_15  and  C_16
REMARK                            x       y       z     vdW  Elec       q    Type
REMARK                         _______ _______ _______ _____ _____    ______ ____
ROOT
ATOM      1  C   UNL     1       4.452   4.873  19.173  0.00  0.00    +0.000 C 
ATOM      2  C   UNL     1       4.314   4.391  17.706  0.00  0.00    +0.000 C 
ATOM      3  N   UNL     1       5.753   4.539  17.569  0.00  0.00    +0.000 N 
ATOM      4  C   UNL     1       6.631   4.306  16.535  0.00  0.00    +0.000 C 
ATOM      5  O   UNL     1       7.842   4.508  16.621  0.00  0.00    +0.000 OA
ATOM      6  C   UNL     1       5.965   4.986  18.845  0.00  0.00    +0.000 C 
ATOM      7  O   UNL     1       6.946   5.351  19.453  0.00  0.00    +0.000 OA
ENDROOT
BRANCH   1  10
ATOM      8  C   UNL     1       2.483   6.330  19.917  0.00  0.00    +0.000 C 
ATOM      9  O   UNL     1       2.104   7.454  20.234  0.00  0.00    +0.000 OA
ATOM     10  N   UNL     1       3.779   6.147  19.513  0.00  0.00    +0.000 N 
ATOM     11  H   UNL     1       4.327   7.004  19.560  0.00  0.00    +0.000 HD
BRANCH   8  12
ATOM     12  C   UNL     1       1.581   5.111  19.933  0.00  0.00    +0.000 C 
BRANCH  12  13
ATOM     13  C   UNL     1       1.788   4.238  21.173  0.00  0.00    +0.000 C 
BRANCH  13  14
ATOM     14  C   UNL     1       1.317   2.807  20.908  0.00  0.00    +0.000 C 
BRANCH  14  16
ATOM     15  C   UNL     1       1.707   1.878  18.614  0.00  0.00    +0.000 C 
ATOM     16  C   UNL     1       0.959   2.588  19.468  0.00  0.00    +0.000 C 
ENDBRANCH  14  16
ENDBRANCH  13  14
ENDBRANCH  12  13
ENDBRANCH   8  12
ENDBRANCH   1  10
BRANCH   4  17
ATOM     17  C   UNL     1       5.999   3.822  15.239  0.00  0.00    +0.000 C 
BRANCH  17  18
ATOM     18  C   UNL     1       6.625   4.542  14.042  0.00  0.00    +0.000 C 
BRANCH  18  19
ATOM     19  C   UNL     1       6.526   3.746  12.771  0.00  0.00    +0.000 C 
ATOM     20  C   UNL     1       5.367   3.341  12.236  0.00  0.00    +0.000 C 
ENDBRANCH  18  19
ENDBRANCH  17  18
ENDBRANCH   4  17
TORSDOF 8
ENDMDL
MODEL 4
REMARK VINA RESULT:      -6.8      3.037      5.022
REMARK  Name = 
REMARK  8 active torsions:
REMARK  status: ('A' for Active; 'I' for Inactive)
REMARK    1  A    between atoms: C_2  and  C_3
REMARK    2  A    between atoms: C_3  and  C_4
REMARK    3  A    between atoms: C_4  and  C_5
REMARK    4  A    between atoms: C_5  and  C_6
REMARK    5  A    between atoms: N_8  and  C_9
REMARK    6  A    between atoms: C_12  and  C_14
REMARK    7  A    between atoms: C_14  and  C_15
REMARK    8  A    between atoms: C_15  and  C_16
REMARK                            x       y       z     vdW  Elec       q    Type
REMARK                         _______ _______ _______ _____ _____    ______ ____
ROOT
ATOM      1  C   UNL     1       4.977   5.969  17.659  0.00  0.00    +0.000 C 
ATOM      2  C   UNL     1       4.839   4.814  16.634  0.00  0.00    +0.000 C 
ATOM      3  N   UNL     1       6.013   5.336  15.955  0.00  0.00    +0.000 N 
ATOM      4  C   UNL     1       6.723   4.926  14.849  0.00  0.00    +0.000 C 
ATOM      5  O   UNL     1       7.708   5.526  14.421  0.00  0.00    +0.000 OA
ATOM      6  C   UNL     1       6.201   6.393  16.803  0.00  0.00    +0.000 C 
ATOM      7  O   UNL     1       6.994   7.306  16.841  0.00  0.00    +0.000 OA
ENDROOT
BRANCH   1  10
ATOM      8  C   UNL     1       2.843   7.014  18.613  0.00  0.00    +0.000 C 
ATOM      9  O   UNL     1       2.040   7.940  18.548  0.00  0.00    +0.000 OA
ATOM     10  N   UNL     1       3.865   6.945  17.702  0.00  0.00    +0.000 N 
ATOM     11  H   UNL     1       3.868   7.735  17.060  0.00  0.00    +0.000 HD
BRANCH   8  12
ATOM     12  C   UNL     1       2.764   5.913  19.653  0.00  0.00    +0.000 C 
BRANCH  12  13
ATOM     13  C   UNL     1       1.965   4.700  19.172  0.00  0.00    +0.000 C 
BRANCH  13  14
ATOM     14  C   UNL     1       1.012   4.216  20.266  0.00  0.00    +0.000 C 
BRANCH  14  16
ATOM     15  C   UNL     1       2.627   2.578  21.260  0.00  0.00    +0.000 C 
ATOM     16  C   UNL     1       1.743   3.573  21.408  0.00  0.00    +0.000 C 
ENDBRANCH  14  16
ENDBRANCH  13  14
ENDBRANCH  12  13
ENDBRANCH   8  12
ENDBRANCH   1  10
BRANCH   4  17
ATOM     17  C   UNL     1       6.180   3.692  14.146  0.00  0.00    +0.000 C 
BRANCH  17  18
ATOM     18  C   UNL     1       6.425   3.790  12.638  0.00  0.00    +0.000 C 
BRANCH  18  19
ATOM     19  C   UNL     1       5.507   2.904  11.843  0.00  0.00    +0.000 C 
ATOM     20  C   UNL     1       5.856   1.697  11.378  0.00  0.00    +0.000 C 
ENDBRANCH  18  19
ENDBRANCH  17  18
ENDBRANCH   4  17
TORSDOF 8
ENDMDL
MODEL 5
REMARK VINA RESULT:      -6.7      2.864      7.024
REMARK  Name = 
REMARK  8 active torsions:
REMARK  status: ('A' for Active; 'I' for Inactive)
REMARK    1  A    between atoms: C_2  and  C_3
REMARK    2  A    between atoms: C_3  and  C_4
REMARK    3  A    between atoms: C_4  and  C_5
REMARK    4  A    between atoms: C_5  and  C_6
REMARK    5  A    between atoms: N_8  and  C_9
REMARK    6  A    between atoms: C_12  and  C_14
REMARK    7  A    between atoms: C_14  and  C_15
REMARK    8  A    between atoms: C_15  and  C_16
REMARK                            x       y       z     vdW  Elec       q    Type
REMARK                         _______ _______ _______ _____ _____    ______ ____
ROOT
ATOM      1  C   UNL     1       4.298   5.836  17.426  0.00  0.00    +0.000 C 
ATOM      2  C   UNL     1       4.125   4.727  18.497  0.00  0.00    +0.000 C 
ATOM      3  N   UNL     1       3.121   5.561  19.134  0.00  0.00    +0.000 N 
ATOM      4  C   UNL     1       2.320   5.393  20.241  0.00  0.00    +0.000 C 
ATOM      5  O   UNL     1       1.520   6.244  20.629  0.00  0.00    +0.000 OA
ATOM      6  C   UNL     1       3.217   6.595  18.243  0.00  0.00    +0.000 C 
ATOM      7  O   UNL     1       2.686   7.679  18.156  0.00  0.00    +0.000 OA
ENDROOT
BRANCH   1  10
ATOM      8  C   UNL     1       6.759   6.030  16.753  0.00  0.00    +0.000 C 
ATOM      9  O   UNL     1       7.762   6.740  16.732  0.00  0.00    +0.000 OA
ATOM     10  N   UNL     1       5.623   6.491  17.365  0.00  0.00    +0.000 N 
ATOM     11  H   UNL     1       5.729   7.439  17.721  0.00  0.00    +0.000 HD
BRANCH   8  12
ATOM     12  C   UNL     1       6.707   4.644  16.141  0.00  0.00    +0.000 C 
BRANCH  12  13
ATOM     13  C   UNL     1       6.818   4.666  14.615  0.00  0.00    +0.000 C 
BRANCH  13  14
ATOM     14  C   UNL     1       5.592   4.011  13.977  0.00  0.00    +0.000 C 
BRANCH  14  16
ATOM     15  C   UNL     1       6.983   3.791  11.905  0.00  0.00    +0.000 C 
ATOM     16  C   UNL     1       5.887   3.476  12.607  0.00  0.00    +0.000 C 
ENDBRANCH  14  16
ENDBRANCH  13  14
ENDBRANCH  12  13
ENDBRANCH   8  12
ENDBRANCH   1  10
BRANCH   4  17
ATOM     17  C   UNL     1       2.522   4.091  21.001  0.00  0.00    +0.000 C 
BRANCH  17  18
ATOM     18  C   UNL     1       1.230   3.271  21.001  0.00  0.00    +0.000 C 
BRANCH  18  19
ATOM     19  C   UNL     1       0.789   2.884  19.617  0.00  0.00    +0.000 C 
ATOM     20  C   UNL     1       1.545   2.179  18.766  0.00  0.00    +0.000 C 
ENDBRANCH  18  19
ENDBRANCH  17  18
ENDBRANCH   4  17
TORSDOF 8
ENDMDL
MODEL 6
REMARK VINA RESULT:      -6.7      3.019      4.999
REMARK  Name = 
REMARK  8 active torsions:
REMARK  status: ('A' for Active; 'I' for Inactive)
REMARK    1  A    between atoms: C_2  and  C_3
REMARK    2  A    between atoms: C_3  and  C_4
REMARK    3  A    between atoms: C_4  and  C_5
REMARK    4  A    between atoms: C_5  and  C_6
REMARK    5  A    between atoms: N_8  and  C_9
REMARK    6  A    between atoms: C_12  and  C_14
REMARK    7  A    between atoms: C_14  and  C_15
REMARK    8  A    between atoms: C_15  and  C_16
REMARK                            x       y       z     vdW  Elec       q    Type
REMARK                         _______ _______ _______ _____ _____    ______ ____
ROOT
ATOM      1  C   UNL     1       5.559   4.977  17.139  0.00  0.00    +0.000 C 
ATOM      2  C   UNL     1       5.301   4.084  15.897  0.00  0.00    +0.000 C 
ATOM      3  N   UNL     1       6.382   4.783  15.226  0.00  0.00    +0.000 N 
ATOM      4  C   UNL     1       6.955   4.661  13.979  0.00  0.00    +0.000 C 
ATOM      5  O   UNL     1       7.879   5.373  13.589  0.00  0.00    +0.000 OA
ATOM      6  C   UNL     1       6.669   5.623  16.268  0.00  0.00    +0.000 C 
ATOM      7  O   UNL     1       7.459   6.527  16.422  0.00  0.00    +0.000 OA
ENDROOT
BRANCH   1  10
ATOM      8  C   UNL     1       3.657   5.793  18.646  0.00  0.00    +0.000 C 
ATOM      9  O   UNL     1       2.835   6.678  18.867  0.00  0.00    +0.000 OA
ATOM     10  N   UNL     1       4.458   5.882  17.538  0.00  0.00    +0.000 N 
ATOM     11  H   UNL     1       4.301   6.740  17.012  0.00  0.00    +0.000 HD
BRANCH   8  12
ATOM     12  C   UNL     1       3.834   4.577  19.535  0.00  0.00    +0.000 C 
BRANCH  12  13
ATOM     13  C   UNL     1       3.013   3.375  19.065  0.00  0.00    +0.000 C 
BRANCH  13  14
ATOM     14  C   UNL     1       1.526   3.593  19.356  0.00  0.00    +0.000 C 
BRANCH  14  16
ATOM     15  C   UNL     1       1.598   2.581  21.646  0.00  0.00    +0.000 C 
ATOM     16  C   UNL     1       1.229   3.574  20.826  0.00  0.00    +0.000 C 
ENDBRANCH  14  16
ENDBRANCH  13  14
ENDBRANCH  12  13
ENDBRANCH   8  12
ENDBRANCH   1  10
BRANCH   4  17
ATOM     17  C   UNL     1       6.334   3.605  13.078  0.00  0.00    +0.000 C 
BRANCH  17  18
ATOM     18  C   UNL     1       4.967   4.075  12.574  0.00  0.00    +0.000 C 
BRANCH  18  19
ATOM     19  C   UNL     1       4.397   3.173  11.516  0.00  0.00    +0.000 C 
ATOM     20  C   UNL     1       3.569   3.591  10.550  0.00  0.00    +0.000 C 
ENDBRANCH  18  19
ENDBRANCH  17  18
ENDBRANCH   4  17
TORSDOF 8
ENDMDL
MODEL 7
REMARK VINA RESULT:      -6.7      3.074      6.866
REMARK  Name = 
REMARK  8 active torsions:
REMARK  status: ('A' for Active; 'I' for Inactive)
REMARK    1  A    between atoms: C_2  and  C_3
REMARK    2  A    between atoms: C_3  and  C_4
REMARK    3  A    between atoms: C_4  and  C_5
REMARK    4  A    between atoms: C_5  and  C_6
REMARK    5  A    between atoms: N_8  and  C_9
REMARK    6  A    between atoms: C_12  and  C_14
REMARK    7  A    between atoms: C_14  and  C_15
REMARK    8  A    between atoms: C_15  and  C_16
REMARK                            x       y       z     vdW  Elec       q    Type
REMARK                         _______ _______ _______ _____ _____    ______ ____
ROOT
ATOM      1  C   UNL     1       4.557   4.245  16.866  0.00  0.00    +0.000 C 
ATOM      2  C   UNL     1       3.563   3.249  17.517  0.00  0.00    +0.000 C 
ATOM      3  N   UNL     1       2.940   4.377  18.187  0.00  0.00    +0.000 N 
ATOM      4  C   UNL     1       1.866   4.492  19.041  0.00  0.00    +0.000 C 
ATOM      5  O   UNL     1       1.496   5.564  19.518  0.00  0.00    +0.000 OA
ATOM      6  C   UNL     1       3.783   5.324  17.671  0.00  0.00    +0.000 C 
ATOM      7  O   UNL     1       3.889   6.521  17.818  0.00  0.00    +0.000 OA
ENDROOT
BRANCH   1  10
ATOM      8  C   UNL     1       7.083   4.372  16.467  0.00  0.00    +0.000 C 
ATOM      9  O   UNL     1       8.203   4.250  16.955  0.00  0.00    +0.000 OA
ATOM     10  N   UNL     1       5.983   4.083  17.231  0.00  0.00    +0.000 N 
ATOM     11  H   UNL     1       6.228   3.822  18.184  0.00  0.00    +0.000 HD
BRANCH   8  12
ATOM     12  C   UNL     1       6.839   4.821  15.039  0.00  0.00    +0.000 C 
BRANCH  12  13
ATOM     13  C   UNL     1       6.047   3.796  14.224  0.00  0.00    +0.000 C 
BRANCH  13  14
ATOM     14  C   UNL     1       6.450   3.855  12.749  0.00  0.00    +0.000 C 
BRANCH  14  16
ATOM     15  C   UNL     1       4.410   3.244  11.430  0.00  0.00    +0.000 C 
ATOM     16  C   UNL     1       5.624   2.933  11.902  0.00  0.00    +0.000 C 
ENDBRANCH  14  16
ENDBRANCH  13  14
ENDBRANCH  12  13
ENDBRANCH   8  12
ENDBRANCH   1  10
BRANCH   4  17
ATOM     17  C   UNL     1       1.181   3.184  19.406  0.00  0.00    +0.000 C 
BRANCH  17  18
ATOM     18  C   UNL     1       0.991   3.090  20.922  0.00  0.00    +0.000 C 
BRANCH  18  19
ATOM     19  C   UNL     1       2.286   2.888  21.657  0.00  0.00    +0.000 C 
ATOM     20  C   UNL     1       3.327   2.209  21.158  0.00  0.00    +0.000 C 
ENDBRANCH  18  19
ENDBRANCH  17  18
ENDBRANCH   4  17
TORSDOF 8
ENDMDL
MODEL 8
REMARK VINA RESULT:      -6.6      1.323      7.408
REMARK  Name = 
REMARK  8 active torsions:
REMARK  status: ('A' for Active; 'I' for Inactive)
REMARK    1  A    between atoms: C_2  and  C_3
REMARK    2  A    between atoms: C_3  and  C_4
REMARK    3  A    between atoms: C_4  and  C_5
REMARK    4  A    between atoms: C_5  and  C_6
REMARK    5  A    between atoms: N_8  and  C_9
REMARK    6  A    between atoms: C_12  and  C_14
REMARK    7  A    between atoms: C_14  and  C_15
REMARK    8  A    between atoms: C_15  and  C_16
REMARK                            x       y       z     vdW  Elec       q    Type
REMARK                         _______ _______ _______ _____ _____    ______ ____
ROOT
ATOM      1  C   UNL     1       4.993   5.582  17.901  0.00  0.00    +0.000 C 
ATOM      2  C   UNL     1       3.874   4.527  17.706  0.00  0.00    +0.000 C 
ATOM      3  N   UNL     1       4.445   3.780  18.813  0.00  0.00    +0.000 N 
ATOM      4  C   UNL     1       4.092   2.608  19.442  0.00  0.00    +0.000 C 
ATOM      5  O   UNL     1       4.728   2.128  20.379  0.00  0.00    +0.000 OA
ATOM      6  C   UNL     1       5.475   4.651  19.047  0.00  0.00    +0.000 C 
ATOM      7  O   UNL     1       6.403   4.662  19.824  0.00  0.00    +0.000 OA
ENDROOT
BRANCH   1  10
ATOM      8  C   UNL     1       7.122   6.446  16.773  0.00  0.00    +0.000 C 
ATOM      9  O   UNL     1       7.833   6.419  15.772  0.00  0.00    +0.000 OA
ATOM     10  N   UNL     1       5.943   5.749  16.778  0.00  0.00    +0.000 N 
ATOM     11  H   UNL     1       5.797   5.224  15.918  0.00  0.00    +0.000 HD
BRANCH   8  12
ATOM     12  C   UNL     1       7.472   7.230  18.023  0.00  0.00    +0.000 C 
BRANCH  12  13
ATOM     13  C   UNL     1       8.037   8.618  17.712  0.00  0.00    +0.000 C 
BRANCH  13  14
ATOM     14  C   UNL     1       8.865   9.137  18.890  0.00  0.00    +0.000 C 
BRANCH  14  16
ATOM     15  C   UNL     1       9.859  11.181  17.835  0.00  0.00    +0.000 C 
ATOM     16  C   UNL     1       9.117  10.613  18.795  0.00  0.00    +0.000 C 
ENDBRANCH  14  16
ENDBRANCH  13  14
ENDBRANCH  12  13
ENDBRANCH   8  12
ENDBRANCH   1  10
BRANCH   4  17
ATOM     17  C   UNL     1       2.873   1.902  18.869  0.00  0.00    +0.000 C 
BRANCH  17  18
ATOM     18  C   UNL     1       1.685   2.034  19.824  0.00  0.00    +0.000 C 
BRANCH  18  19
ATOM     19  C   UNL     1       0.973   3.351  19.685  0.00  0.00    +0.000 C 
ATOM     20  C   UNL     1       1.126   4.372  20.538  0.00  0.00    +0.000 C 
ENDBRANCH  18  19
ENDBRANCH  17  18
ENDBRANCH   4  17
TORSDOF 8
ENDMDL
MODEL 9
REMARK VINA RESULT:      -6.6      2.743      6.706
REMARK  Name = 
REMARK  8 active torsions:
REMARK  status: ('A' for Active; 'I' for Inactive)
REMARK    1  A    between atoms: C_2  and  C_3
REMARK    2  A    between atoms: C_3  and  C_4
REMARK    3  A    between atoms: C_4  and  C_5
REMARK    4  A    between atoms: C_5  and  C_6
REMARK    5  A    between atoms: N_8  and  C_9
REMARK    6  A    between atoms: C_12  and  C_14
REMARK    7  A    between atoms: C_14  and  C_15
REMARK    8  A    between atoms: C_15  and  C_16
REMARK                            x       y       z     vdW  Elec       q    Type
REMARK                         _______ _______ _______ _____ _____    ______ ____
ROOT
ATOM      1  C   UNL     1       5.458   4.419  17.981  0.00  0.00    +0.000 C 
ATOM      2  C   UNL     1       4.876   4.373  19.417  0.00  0.00    +0.000 C 
ATOM      3  N   UNL     1       4.028   3.274  18.990  0.00  0.00    +0.000 N 
ATOM      4  C   UNL     1       3.098   2.492  19.638  0.00  0.00    +0.000 C 
ATOM      5  O   UNL     1       2.466   1.596  19.081  0.00  0.00    +0.000 OA
ATOM      6  C   UNL     1       4.474   3.253  17.696  0.00  0.00    +0.000 C 
ATOM      7  O   UNL     1       4.185   2.598  16.720  0.00  0.00    +0.000 OA
ENDROOT
BRANCH   1  10
ATOM      8  C   UNL     1       5.546   5.919  15.908  0.00  0.00    +0.000 C 
ATOM      9  O   UNL     1       5.197   6.979  15.397  0.00  0.00    +0.000 OA
ATOM     10  N   UNL     1       5.212   5.659  17.211  0.00  0.00    +0.000 N 
ATOM     11  H   UNL     1       4.645   6.398  17.622  0.00  0.00    +0.000 HD
BRANCH   8  12
ATOM     12  C   UNL     1       6.352   4.864  15.174  0.00  0.00    +0.000 C 
BRANCH  12  13
ATOM     13  C   UNL     1       5.533   4.126  14.113  0.00  0.00    +0.000 C 
BRANCH  13  14
ATOM     14  C   UNL     1       6.402   3.794  12.898  0.00  0.00    +0.000 C 
BRANCH  14  16
ATOM     15  C   UNL     1       4.422   3.229  11.470  0.00  0.00    +0.000 C 
ATOM     16  C   UNL     1       5.666   2.963  11.888  0.00  0.00    +0.000 C 
ENDBRANCH  14  16
ENDBRANCH  13  14
ENDBRANCH  12  13
ENDBRANCH   8  12
ENDBRANCH   1  10
BRANCH   4  17
ATOM     17  C   UNL     1       2.857   2.842  21.098  0.00  0.00    +0.000 C 
BRANCH  17  18
ATOM     18  C   UNL     1       1.409   3.295  21.304  0.00  0.00    +0.000 C 
BRANCH  18  19
ATOM     19  C   UNL     1       1.068   4.524  20.510  0.00  0.00    +0.000 C 
ATOM     20  C   UNL     1       1.712   5.692  20.634  0.00  0.00    +0.000 C 
ENDBRANCH  18  19
ENDBRANCH  17  18
ENDBRANCH   4  17
TORSDOF 8
ENDMDL
