MODEL 1
REMARK VINA RESULT:      -9.0      0.000      0.000
REMARK  Name = 
REMARK  8 active torsions:
REMARK  status: ('A' for Active; 'I' for Inactive)
REMARK    1  A    between atoms: C_1  and  C_2
REMARK    2  A    between atoms: C_7  and  C_8
REMARK    3  A    between atoms: C_15  and  O_16
REMARK    4  A    between atoms: O_16  and  C_17
REMARK    5  A    between atoms: C_17  and  C_18
REMARK    6  A    between atoms: C_18  and  N_19
REMARK    7  A    between atoms: C_20  and  C_22
REMARK    8  A    between atoms: C_25  and  C_26
REMARK                            x       y       z     vdW  Elec       q    Type
REMARK                         _______ _______ _______ _____ _____    ______ ____
ROOT
ATOM      1  C   UNL     1       1.669   2.761  22.172  0.00  0.00    +0.000 C 
ATOM      2  C   UNL     1       1.981   3.008  20.729  0.00  0.00    +0.000 A 
ATOM      3  C   UNL     1       0.967   2.906  19.699  0.00  0.00    +0.000 A 
ATOM      4  C   UNL     1       1.271   3.113  18.401  0.00  0.00    +0.000 A 
ATOM      5  C   UNL     1       2.607   3.441  18.012  0.00  0.00    +0.000 A 
ATOM      6  N   UNL     1       3.108   3.650  16.824  0.00  0.00    +0.000 NA
ATOM      7  C   UNL     1       4.443   3.927  17.021  0.00  0.00    +0.000 A 
ATOM      8  C   UNL     1       4.785   3.894  18.378  0.00  0.00    +0.000 A 
ATOM      9  N   UNL     1       3.571   3.554  19.017  0.00  0.00    +0.000 N 
ATOM     10  C   UNL     1       3.226   3.327  20.355  0.00  0.00    +0.000 A 
ENDROOT
BRANCH   7  11
ATOM     11  C   UNL     1       5.311   4.169  15.868  0.00  0.00    +0.000 A 
ATOM     12  C   UNL     1       6.587   4.734  15.984  0.00  0.00    +0.000 A 
ATOM     13  C   UNL     1       7.377   4.947  14.846  0.00  0.00    +0.000 A 
ATOM     14  C   UNL     1       6.893   4.598  13.590  0.00  0.00    +0.000 A 
ATOM     15  F   UNL     1       7.660   4.792  12.509  0.00  0.00    +0.000 F 
ATOM     16  C   UNL     1       5.624   4.058  13.443  0.00  0.00    +0.000 A 
ATOM     17  C   UNL     1       4.834   3.853  14.578  0.00  0.00    +0.000 A 
ENDBRANCH   7  11
BRANCH   8  18
ATOM     18  O   UNL     1       5.995   4.110  18.963  0.00  0.00    +0.000 OA
BRANCH  18  19
ATOM     19  C   UNL     1       6.426   5.464  19.100  0.00  0.00    +0.000 C 
BRANCH  19  20
ATOM     20  C   UNL     1       7.880   5.749  18.755  0.00  0.00    +0.000 C 
BRANCH  20  21
ATOM     21  N   UNL     1       8.240   7.136  18.945  0.00  0.00    +0.000 N 
ATOM     22  C   UNL     1       8.161   8.054  17.918  0.00  0.00    +0.000 C 
ATOM     23  O   UNL     1       7.805   7.782  16.779  0.00  0.00    +0.000 OA
ATOM     24  H   UNL     1       8.256   7.465  19.897  0.00  0.00    +0.000 HD
BRANCH  22  25
ATOM     25  C   UNL     1       8.496   9.446  18.300  0.00  0.00    +0.000 A 
ATOM     26  C   UNL     1       9.220   9.743  19.458  0.00  0.00    +0.000 A 
ATOM     27  C   UNL     1       9.447  11.072  19.803  0.00  0.00    +0.000 A 
ATOM     28  C   UNL     1       8.957  12.073  18.972  0.00  0.00    +0.000 A 
ATOM     29  C   UNL     1       9.123  13.517  19.341  0.00  0.00    +0.000 C 
ATOM     30  N   UNL     1       8.285  11.807  17.825  0.00  0.00    +0.000 NA
ATOM     31  C   UNL     1       8.076  10.502  17.509  0.00  0.00    +0.000 A 
ENDBRANCH  22  25
ENDBRANCH  20  21
ENDBRANCH  19  20
ENDBRANCH  18  19
ENDBRANCH   8  18
TORSDOF 6
ENDMDL
MODEL 2
REMARK VINA RESULT:      -8.6      4.052      5.068
REMARK  Name = 
REMARK  8 active torsions:
REMARK  status: ('A' for Active; 'I' for Inactive)
REMARK    1  A    between atoms: C_1  and  C_2
REMARK    2  A    between atoms: C_7  and  C_8
REMARK    3  A    between atoms: C_15  and  O_16
REMARK    4  A    between atoms: O_16  and  C_17
REMARK    5  A    between atoms: C_17  and  C_18
REMARK    6  A    between atoms: C_18  and  N_19
REMARK    7  A    between atoms: C_20  and  C_22
REMARK    8  A    between atoms: C_25  and  C_26
REMARK                            x       y       z     vdW  Elec       q    Type
REMARK                         _______ _______ _______ _____ _____    ______ ____
ROOT
ATOM      1  C   UNL     1       1.840   3.296  21.929  0.00  0.00    +0.000 C 
ATOM      2  C   UNL     1       2.352   3.108  20.536  0.00  0.00    +0.000 A 
ATOM      3  C   UNL     1       1.968   1.969  19.727  0.00  0.00    +0.000 A 
ATOM      4  C   UNL     1       2.455   1.806  18.479  0.00  0.00    +0.000 A 
ATOM      5  C   UNL     1       3.364   2.760  17.926  0.00  0.00    +0.000 A 
ATOM      6  N   UNL     1       3.964   2.772  16.764  0.00  0.00    +0.000 NA
ATOM      7  C   UNL     1       4.729   3.918  16.747  0.00  0.00    +0.000 A 
ATOM      8  C   UNL     1       4.599   4.648  17.936  0.00  0.00    +0.000 A 
ATOM      9  N   UNL     1       3.712   3.863  18.709  0.00  0.00    +0.000 N 
ATOM     10  C   UNL     1       3.195   4.001  20.003  0.00  0.00    +0.000 A 
ENDROOT
BRANCH   7  11
ATOM     11  C   UNL     1       5.570   4.211  15.586  0.00  0.00    +0.000 A 
ATOM     12  C   UNL     1       5.234   3.813  14.286  0.00  0.00    +0.000 A 
ATOM     13  C   UNL     1       6.077   4.117  13.209  0.00  0.00    +0.000 A 
ATOM     14  C   UNL     1       7.259   4.817  13.428  0.00  0.00    +0.000 A 
ATOM     15  F   UNL     1       8.052   5.115  12.391  0.00  0.00    +0.000 F 
ATOM     16  C   UNL     1       7.628   5.203  14.707  0.00  0.00    +0.000 A 
ATOM     17  C   UNL     1       6.789   4.893  15.782  0.00  0.00    +0.000 A 
ENDBRANCH   7  11
BRANCH   8  18
ATOM     18  O   UNL     1       5.192   5.819  18.293  0.00  0.00    +0.000 OA
BRANCH  18  19
ATOM     19  C   UNL     1       4.710   7.013  17.677  0.00  0.00    +0.000 C 
BRANCH  19  20
ATOM     20  C   UNL     1       3.203   7.115  17.488  0.00  0.00    +0.000 C 
BRANCH  20  21
ATOM     21  N   UNL     1       2.534   7.706  18.625  0.00  0.00    +0.000 N 
ATOM     22  C   UNL     1       1.848   8.900  18.524  0.00  0.00    +0.000 C 
ATOM     23  O   UNL     1       1.760   9.556  17.495  0.00  0.00    +0.000 OA
ATOM     24  H   UNL     1       2.331   7.088  19.394  0.00  0.00    +0.000 HD
BRANCH  22  25
ATOM     25  C   UNL     1       1.159   9.328  19.765  0.00  0.00    +0.000 A 
ATOM     26  C   UNL     1       1.206   8.571  20.938  0.00  0.00    +0.000 A 
ATOM     27  C   UNL     1       0.484   8.988  22.053  0.00  0.00    +0.000 A 
ATOM     28  C   UNL     1      -0.257  10.162  21.970  0.00  0.00    +0.000 A 
ATOM     29  C   UNL     1      -1.100  10.611  23.126  0.00  0.00    +0.000 C 
ATOM     30  N   UNL     1      -0.287  10.930  20.854  0.00  0.00    +0.000 NA
ATOM     31  C   UNL     1       0.427  10.504  19.779  0.00  0.00    +0.000 A 
ENDBRANCH  22  25
ENDBRANCH  20  21
ENDBRANCH  19  20
ENDBRANCH  18  19
ENDBRANCH   8  18
TORSDOF 6
ENDMDL
MODEL 3
REMARK VINA RESULT:      -8.1      4.043      6.981
REMARK  Name = 
REMARK  8 active torsions:
REMARK  status: ('A' for Active; 'I' for Inactive)
REMARK    1  A    between atoms: C_1  and  C_2
REMARK    2  A    between atoms: C_7  and  C_8
REMARK    3  A    between atoms: C_15  and  O_16
REMARK    4  A    between atoms: O_16  and  C_17
REMARK    5  A    between atoms: C_17  and  C_18
REMARK    6  A    between atoms: C_18  and  N_19
REMARK    7  A    between atoms: C_20  and  C_22
REMARK    8  A    between atoms: C_25  and  C_26
REMARK                            x       y       z     vdW  Elec       q    Type
REMARK                         _______ _______ _______ _____ _____    ______ ____
ROOT
ATOM      1  C   UNL     1       4.431   1.186  19.930  0.00  0.00    +0.000 C 
ATOM      2  C   UNL     1       3.690   2.462  20.179  0.00  0.00    +0.000 A 
ATOM      3  C   UNL     1       2.670   2.567  21.203  0.00  0.00    +0.000 A 
ATOM      4  C   UNL     1       1.998   3.720  21.400  0.00  0.00    +0.000 A 
ATOM      5  C   UNL     1       2.279   4.869  20.598  0.00  0.00    +0.000 A 
ATOM      6  N   UNL     1       1.730   6.055  20.609  0.00  0.00    +0.000 NA
ATOM      7  C   UNL     1       2.377   6.779  19.631  0.00  0.00    +0.000 A 
ATOM      8  C   UNL     1       3.366   6.021  18.992  0.00  0.00    +0.000 A 
ATOM      9  N   UNL     1       3.277   4.760  19.626  0.00  0.00    +0.000 N 
ATOM     10  C   UNL     1       3.953   3.548  19.442  0.00  0.00    +0.000 A 
ENDROOT
BRANCH   7  11
ATOM     11  C   UNL     1       1.964   8.155  19.355  0.00  0.00    +0.000 A 
ATOM     12  C   UNL     1       2.251   8.806  18.148  0.00  0.00    +0.000 A 
ATOM     13  C   UNL     1       1.833  10.127  17.936  0.00  0.00    +0.000 A 
ATOM     14  C   UNL     1       1.131  10.801  18.929  0.00  0.00    +0.000 A 
ATOM     15  F   UNL     1       0.723  12.059  18.713  0.00  0.00    +0.000 F 
ATOM     16  C   UNL     1       0.853  10.189  20.142  0.00  0.00    +0.000 A 
ATOM     17  C   UNL     1       1.276   8.874  20.355  0.00  0.00    +0.000 A 
ENDBRANCH   7  11
BRANCH   8  18
ATOM     18  O   UNL     1       4.206   6.381  17.984  0.00  0.00    +0.000 OA
BRANCH  18  19
ATOM     19  C   UNL     1       5.579   6.585  18.316  0.00  0.00    +0.000 C 
BRANCH  19  20
ATOM     20  C   UNL     1       6.500   6.980  17.170  0.00  0.00    +0.000 C 
BRANCH  20  21
ATOM     21  N   UNL     1       6.230   6.246  15.955  0.00  0.00    +0.000 N 
ATOM     22  C   UNL     1       6.930   5.103  15.626  0.00  0.00    +0.000 C 
ATOM     23  O   UNL     1       7.830   4.629  16.306  0.00  0.00    +0.000 OA
ATOM     24  H   UNL     1       5.336   6.415  15.522  0.00  0.00    +0.000 HD
BRANCH  22  25
ATOM     25  C   UNL     1       6.478   4.432  14.383  0.00  0.00    +0.000 A 
ATOM     26  C   UNL     1       7.307   4.307  13.266  0.00  0.00    +0.000 A 
ATOM     27  C   UNL     1       6.807   3.728  12.103  0.00  0.00    +0.000 A 
ATOM     28  C   UNL     1       5.492   3.274  12.092  0.00  0.00    +0.000 A 
ATOM     29  C   UNL     1       4.895   2.705  10.840  0.00  0.00    +0.000 C 
ATOM     30  N   UNL     1       4.683   3.353  13.177  0.00  0.00    +0.000 NA
ATOM     31  C   UNL     1       5.194   3.921  14.301  0.00  0.00    +0.000 A 
ENDBRANCH  22  25
ENDBRANCH  20  21
ENDBRANCH  19  20
ENDBRANCH  18  19
ENDBRANCH   8  18
TORSDOF 6
ENDMDL
MODEL 4
REMARK VINA RESULT:      -7.9      8.823     11.213
REMARK  Name = 
REMARK  8 active torsions:
REMARK  status: ('A' for Active; 'I' for Inactive)
REMARK    1  A    between atoms: C_1  and  C_2
REMARK    2  A    between atoms: C_7  and  C_8
REMARK    3  A    between atoms: C_15  and  O_16
REMARK    4  A    between atoms: O_16  and  C_17
REMARK    5  A    between atoms: C_17  and  C_18
REMARK    6  A    between atoms: C_18  and  N_19
REMARK    7  A    between atoms: C_20  and  C_22
REMARK    8  A    between atoms: C_25  and  C_26
REMARK                            x       y       z     vdW  Elec       q    Type
REMARK                         _______ _______ _______ _____ _____    ______ ____
ROOT
ATOM      1  C   UNL     1      -2.853   9.687  15.151  0.00  0.00    +0.000 C 
ATOM      2  C   UNL     1      -3.180  10.452  16.394  0.00  0.00    +0.000 A 
ATOM      3  C   UNL     1      -4.478  11.063  16.597  0.00  0.00    +0.000 A 
ATOM      4  C   UNL     1      -4.749  11.766  17.717  0.00  0.00    +0.000 A 
ATOM      5  C   UNL     1      -3.756  11.922  18.733  0.00  0.00    +0.000 A 
ATOM      6  N   UNL     1      -3.806  12.577  19.862  0.00  0.00    +0.000 NA
ATOM      7  C   UNL     1      -2.575  12.400  20.456  0.00  0.00    +0.000 A 
ATOM      8  C   UNL     1      -1.731  11.603  19.673  0.00  0.00    +0.000 A 
ATOM      9  N   UNL     1      -2.514  11.312  18.533  0.00  0.00    +0.000 N 
ATOM     10  C   UNL     1      -2.262  10.594  17.358  0.00  0.00    +0.000 A 
ENDROOT
BRANCH   7  11
ATOM     11  C   UNL     1      -2.287  13.051  21.735  0.00  0.00    +0.000 A 
ATOM     12  C   UNL     1      -3.113  12.917  22.858  0.00  0.00    +0.000 A 
ATOM     13  C   UNL     1      -2.792  13.564  24.058  0.00  0.00    +0.000 A 
ATOM     14  C   UNL     1      -1.647  14.350  24.139  0.00  0.00    +0.000 A 
ATOM     15  F   UNL     1      -1.340  14.954  25.294  0.00  0.00    +0.000 F 
ATOM     16  C   UNL     1      -0.823  14.519  23.037  0.00  0.00    +0.000 A 
ATOM     17  C   UNL     1      -1.149  13.878  21.837  0.00  0.00    +0.000 A 
ENDBRANCH   7  11
BRANCH   8  18
ATOM     18  O   UNL     1      -0.451  11.212  19.919  0.00  0.00    +0.000 OA
BRANCH  18  19
ATOM     19  C   UNL     1      -0.246   9.860  20.328  0.00  0.00    +0.000 C 
BRANCH  19  20
ATOM     20  C   UNL     1       1.068   9.559  21.035  0.00  0.00    +0.000 C 
BRANCH  20  21
ATOM     21  N   UNL     1       1.456   8.171  20.931  0.00  0.00    +0.000 N 
ATOM     22  C   UNL     1       2.015   7.659  19.777  0.00  0.00    +0.000 C 
ATOM     23  O   UNL     1       2.211   8.311  18.760  0.00  0.00    +0.000 OA
ATOM     24  H   UNL     1       1.587   7.678  21.799  0.00  0.00    +0.000 HD
BRANCH  22  25
ATOM     25  C   UNL     1       2.423   6.236  19.861  0.00  0.00    +0.000 A 
ATOM     26  C   UNL     1       1.729   5.312  20.647  0.00  0.00    +0.000 A 
ATOM     27  C   UNL     1       2.198   4.005  20.742  0.00  0.00    +0.000 A 
ATOM     28  C   UNL     1       3.342   3.650  20.036  0.00  0.00    +0.000 A 
ATOM     29  C   UNL     1       3.917   2.271  20.162  0.00  0.00    +0.000 C 
ATOM     30  N   UNL     1       4.008   4.522  19.238  0.00  0.00    +0.000 NA
ATOM     31  C   UNL     1       3.531   5.791  19.161  0.00  0.00    +0.000 A 
ENDBRANCH  22  25
ENDBRANCH  20  21
ENDBRANCH  19  20
ENDBRANCH  18  19
ENDBRANCH   8  18
TORSDOF 6
ENDMDL
MODEL 5
REMARK VINA RESULT:      -7.9      4.439      7.372
REMARK  Name = 
REMARK  8 active torsions:
REMARK  status: ('A' for Active; 'I' for Inactive)
REMARK    1  A    between atoms: C_1  and  C_2
REMARK    2  A    between atoms: C_7  and  C_8
REMARK    3  A    between atoms: C_15  and  O_16
REMARK    4  A    between atoms: O_16  and  C_17
REMARK    5  A    between atoms: C_17  and  C_18
REMARK    6  A    between atoms: C_18  and  N_19
REMARK    7  A    between atoms: C_20  and  C_22
REMARK    8  A    between atoms: C_25  and  C_26
REMARK                            x       y       z     vdW  Elec       q    Type
REMARK                         _______ _______ _______ _____ _____    ______ ____
ROOT
ATOM      1  C   UNL     1       3.466   1.457  18.261  0.00  0.00    +0.000 C 
ATOM      2  C   UNL     1       3.003   2.617  19.085  0.00  0.00    +0.000 A 
ATOM      3  C   UNL     1       2.600   2.460  20.468  0.00  0.00    +0.000 A 
ATOM      4  C   UNL     1       2.165   3.514  21.190  0.00  0.00    +0.000 A 
ATOM      5  C   UNL     1       2.095   4.815  20.602  0.00  0.00    +0.000 A 
ATOM      6  N   UNL     1       1.683   5.945  21.113  0.00  0.00    +0.000 NA
ATOM      7  C   UNL     1       1.827   6.885  20.115  0.00  0.00    +0.000 A 
ATOM      8  C   UNL     1       2.351   6.323  18.944  0.00  0.00    +0.000 A 
ATOM      9  N   UNL     1       2.504   4.956  19.274  0.00  0.00    +0.000 N 
ATOM     10  C   UNL     1       2.944   3.842  18.549  0.00  0.00    +0.000 A 
ENDROOT
BRANCH   7  11
ATOM     11  C   UNL     1       1.408   8.266  20.355  0.00  0.00    +0.000 A 
ATOM     12  C   UNL     1       1.263   9.204  19.325  0.00  0.00    +0.000 A 
ATOM     13  C   UNL     1       0.861  10.516  19.610  0.00  0.00    +0.000 A 
ATOM     14  C   UNL     1       0.606  10.895  20.924  0.00  0.00    +0.000 A 
ATOM     15  F   UNL     1       0.209  12.147  21.186  0.00  0.00    +0.000 F 
ATOM     16  C   UNL     1       0.763   9.993  21.965  0.00  0.00    +0.000 A 
ATOM     17  C   UNL     1       1.171   8.686  21.680  0.00  0.00    +0.000 A 
ENDBRANCH   7  11
BRANCH   8  18
ATOM     18  O   UNL     1       2.629   6.922  17.755  0.00  0.00    +0.000 OA
BRANCH  18  19
ATOM     19  C   UNL     1       3.900   7.559  17.624  0.00  0.00    +0.000 C 
BRANCH  19  20
ATOM     20  C   UNL     1       5.118   6.646  17.633  0.00  0.00    +0.000 C 
BRANCH  20  21
ATOM     21  N   UNL     1       5.257   5.883  16.413  0.00  0.00    +0.000 N 
ATOM     22  C   UNL     1       6.463   5.788  15.750  0.00  0.00    +0.000 C 
ATOM     23  O   UNL     1       7.493   6.340  16.115  0.00  0.00    +0.000 OA
ATOM     24  H   UNL     1       4.544   5.195  16.235  0.00  0.00    +0.000 HD
BRANCH  22  25
ATOM     25  C   UNL     1       6.450   4.909  14.557  0.00  0.00    +0.000 A 
ATOM     26  C   UNL     1       7.440   4.979  13.573  0.00  0.00    +0.000 A 
ATOM     27  C   UNL     1       7.339   4.176  12.440  0.00  0.00    +0.000 A 
ATOM     28  C   UNL     1       6.257   3.310  12.327  0.00  0.00    +0.000 A 
ATOM     29  C   UNL     1       6.076   2.476  11.095  0.00  0.00    +0.000 C 
ATOM     30  N   UNL     1       5.306   3.200  13.287  0.00  0.00    +0.000 NA
ATOM     31  C   UNL     1       5.426   3.993  14.383  0.00  0.00    +0.000 A 
ENDBRANCH  22  25
ENDBRANCH  20  21
ENDBRANCH  19  20
ENDBRANCH  18  19
ENDBRANCH   8  18
TORSDOF 6
ENDMDL
MODEL 6
REMARK VINA RESULT:      -7.9      4.816      6.748
REMARK  Name = 
REMARK  8 active torsions:
REMARK  status: ('A' for Active; 'I' for Inactive)
REMARK    1  A    between atoms: C_1  and  C_2
REMARK    2  A    between atoms: C_7  and  C_8
REMARK    3  A    between atoms: C_15  and  O_16
REMARK    4  A    between atoms: O_16  and  C_17
REMARK    5  A    between atoms: C_17  and  C_18
REMARK    6  A    between atoms: C_18  and  N_19
REMARK    7  A    between atoms: C_20  and  C_22
REMARK    8  A    between atoms: C_25  and  C_26
REMARK                            x       y       z     vdW  Elec       q    Type
REMARK                         _______ _______ _______ _____ _____    ______ ____
ROOT
ATOM      1  C   UNL     1       8.440   9.398  17.494  0.00  0.00    +0.000 C 
ATOM      2  C   UNL     1       7.735   8.148  17.917  0.00  0.00    +0.000 A 
ATOM      3  C   UNL     1       8.433   7.062  18.575  0.00  0.00    +0.000 A 
ATOM      4  C   UNL     1       7.785   5.933  18.931  0.00  0.00    +0.000 A 
ATOM      5  C   UNL     1       6.388   5.785  18.666  0.00  0.00    +0.000 A 
ATOM      6  N   UNL     1       5.591   4.777  18.902  0.00  0.00    +0.000 NA
ATOM      7  C   UNL     1       4.349   5.163  18.447  0.00  0.00    +0.000 A 
ATOM      8  C   UNL     1       4.371   6.458  17.914  0.00  0.00    +0.000 A 
ATOM      9  N   UNL     1       5.723   6.847  18.047  0.00  0.00    +0.000 N 
ATOM     10  C   UNL     1       6.425   8.003  17.684  0.00  0.00    +0.000 A 
ENDROOT
BRANCH   7  11
ATOM     11  C   UNL     1       3.225   4.229  18.526  0.00  0.00    +0.000 A 
ATOM     12  C   UNL     1       2.104   4.458  19.333  0.00  0.00    +0.000 A 
ATOM     13  C   UNL     1       1.056   3.529  19.374  0.00  0.00    +0.000 A 
ATOM     14  C   UNL     1       1.126   2.368  18.612  0.00  0.00    +0.000 A 
ATOM     15  F   UNL     1       0.114   1.492  18.646  0.00  0.00    +0.000 F 
ATOM     16  C   UNL     1       2.234   2.105  17.821  0.00  0.00    +0.000 A 
ATOM     17  C   UNL     1       3.283   3.029  17.787  0.00  0.00    +0.000 A 
ENDBRANCH   7  11
BRANCH   8  18
ATOM     18  O   UNL     1       3.353   7.178  17.370  0.00  0.00    +0.000 OA
BRANCH  18  19
ATOM     19  C   UNL     1       2.557   7.964  18.258  0.00  0.00    +0.000 C 
BRANCH  19  20
ATOM     20  C   UNL     1       1.544   8.897  17.611  0.00  0.00    +0.000 C 
BRANCH  20  21
ATOM     21  N   UNL     1       1.854  10.293  17.821  0.00  0.00    +0.000 N 
ATOM     22  C   UNL     1       1.256  11.027  18.826  0.00  0.00    +0.000 C 
ATOM     23  O   UNL     1       0.418  10.578  19.598  0.00  0.00    +0.000 OA
ATOM     24  H   UNL     1       2.718  10.623  17.423  0.00  0.00    +0.000 HD
BRANCH  22  25
ATOM     25  C   UNL     1       1.740  12.422  18.951  0.00  0.00    +0.000 A 
ATOM     26  C   UNL     1       2.700  12.953  18.086  0.00  0.00    +0.000 A 
ATOM     27  C   UNL     1       3.167  14.249  18.293  0.00  0.00    +0.000 A 
ATOM     28  C   UNL     1       2.649  14.986  19.352  0.00  0.00    +0.000 A 
ATOM     29  C   UNL     1       3.172  16.360  19.649  0.00  0.00    +0.000 C 
ATOM     30  N   UNL     1       1.691  14.503  20.180  0.00  0.00    +0.000 NA
ATOM     31  C   UNL     1       1.250  13.237  19.958  0.00  0.00    +0.000 A 
ENDBRANCH  22  25
ENDBRANCH  20  21
ENDBRANCH  19  20
ENDBRANCH  18  19
ENDBRANCH   8  18
TORSDOF 6
ENDMDL
MODEL 7
REMARK VINA RESULT:      -7.9      0.973      1.349
REMARK  Name = 
REMARK  8 active torsions:
REMARK  status: ('A' for Active; 'I' for Inactive)
REMARK    1  A    between atoms: C_1  and  C_2
REMARK    2  A    between atoms: C_7  and  C_8
REMARK    3  A    between atoms: C_15  and  O_16
REMARK    4  A    between atoms: O_16  and  C_17
REMARK    5  A    between atoms: C_17  and  C_18
REMARK    6  A    between atoms: C_18  and  N_19
REMARK    7  A    between atoms: C_20  and  C_22
REMARK    8  A    between atoms: C_25  and  C_26
REMARK                            x       y       z     vdW  Elec       q    Type
REMARK                         _______ _______ _______ _____ _____    ______ ____
ROOT
ATOM      1  C   UNL     1       2.445   4.264  21.610  0.00  0.00    +0.000 C 
ATOM      2  C   UNL     1       2.626   4.236  20.125  0.00  0.00    +0.000 A 
ATOM      3  C   UNL     1       1.509   4.049  19.222  0.00  0.00    +0.000 A 
ATOM      4  C   UNL     1       1.693   4.006  17.886  0.00  0.00    +0.000 A 
ATOM      5  C   UNL     1       3.002   4.147  17.330  0.00  0.00    +0.000 A 
ATOM      6  N   UNL     1       3.394   4.109  16.084  0.00  0.00    +0.000 NA
ATOM      7  C   UNL     1       4.759   4.299  16.112  0.00  0.00    +0.000 A 
ATOM      8  C   UNL     1       5.233   4.467  17.418  0.00  0.00    +0.000 A 
ATOM      9  N   UNL     1       4.069   4.346  18.211  0.00  0.00    +0.000 N 
ATOM     10  C   UNL     1       3.846   4.379  19.593  0.00  0.00    +0.000 A 
ENDROOT
BRANCH   7  11
ATOM     11  C   UNL     1       5.520   4.267  14.863  0.00  0.00    +0.000 A 
ATOM     12  C   UNL     1       5.137   3.494  13.760  0.00  0.00    +0.000 A 
ATOM     13  C   UNL     1       5.904   3.497  12.587  0.00  0.00    +0.000 A 
ATOM     14  C   UNL     1       7.057   4.271  12.514  0.00  0.00    +0.000 A 
ATOM     15  F   UNL     1       7.777   4.280  11.384  0.00  0.00    +0.000 F 
ATOM     16  C   UNL     1       7.473   5.029  13.598  0.00  0.00    +0.000 A 
ATOM     17  C   UNL     1       6.710   5.018  14.770  0.00  0.00    +0.000 A 
ENDBRANCH   7  11
BRANCH   8  18
ATOM     18  O   UNL     1       6.508   4.673  17.848  0.00  0.00    +0.000 OA
BRANCH  18  19
ATOM     19  C   UNL     1       6.889   6.015  18.152  0.00  0.00    +0.000 C 
BRANCH  19  20
ATOM     20  C   UNL     1       8.116   6.186  19.035  0.00  0.00    +0.000 C 
BRANCH  20  21
ATOM     21  N   UNL     1       8.555   7.560  19.125  0.00  0.00    +0.000 N 
ATOM     22  C   UNL     1       8.238   8.489  18.154  0.00  0.00    +0.000 C 
ATOM     23  O   UNL     1       7.589   8.236  17.147  0.00  0.00    +0.000 OA
ATOM     24  H   UNL     1       8.828   7.882  20.039  0.00  0.00    +0.000 HD
BRANCH  22  25
ATOM     25  C   UNL     1       8.703   9.868  18.436  0.00  0.00    +0.000 A 
ATOM     26  C   UNL     1       9.486  10.172  19.552  0.00  0.00    +0.000 A 
ATOM     27  C   UNL     1       9.836  11.495  19.804  0.00  0.00    +0.000 A 
ATOM     28  C   UNL     1       9.407  12.481  18.922  0.00  0.00    +0.000 A 
ATOM     29  C   UNL     1       9.707  13.925  19.192  0.00  0.00    +0.000 C 
ATOM     30  N   UNL     1       8.678  12.203  17.813  0.00  0.00    +0.000 NA
ATOM     31  C   UNL     1       8.349  10.904  17.588  0.00  0.00    +0.000 A 
ENDBRANCH  22  25
ENDBRANCH  20  21
ENDBRANCH  19  20
ENDBRANCH  18  19
ENDBRANCH   8  18
TORSDOF 6
ENDMDL
MODEL 8
REMARK VINA RESULT:      -7.8      8.926     11.004
REMARK  Name = 
REMARK  8 active torsions:
REMARK  status: ('A' for Active; 'I' for Inactive)
REMARK    1  A    between atoms: C_1  and  C_2
REMARK    2  A    between atoms: C_7  and  C_8
REMARK    3  A    between atoms: C_15  and  O_16
REMARK    4  A    between atoms: O_16  and  C_17
REMARK    5  A    between atoms: C_17  and  C_18
REMARK    6  A    between atoms: C_18  and  N_19
REMARK    7  A    between atoms: C_20  and  C_22
REMARK    8  A    between atoms: C_25  and  C_26
REMARK                            x       y       z     vdW  Elec       q    Type
REMARK                         _______ _______ _______ _____ _____    ______ ____
ROOT
ATOM      1  C   UNL     1      -3.094   9.898  14.828  0.00  0.00    +0.000 C 
ATOM      2  C   UNL     1      -3.389  10.607  16.112  0.00  0.00    +0.000 A 
ATOM      3  C   UNL     1      -4.697  11.164  16.395  0.00  0.00    +0.000 A 
ATOM      4  C   UNL     1      -4.939  11.818  17.550  0.00  0.00    +0.000 A 
ATOM      5  C   UNL     1      -3.906  11.976  18.525  0.00  0.00    +0.000 A 
ATOM      6  N   UNL     1      -3.926  12.590  19.678  0.00  0.00    +0.000 NA
ATOM      7  C   UNL     1      -2.664  12.437  20.209  0.00  0.00    +0.000 A 
ATOM      8  C   UNL     1      -1.829  11.699  19.360  0.00  0.00    +0.000 A 
ATOM      9  N   UNL     1      -2.655  11.418  18.247  0.00  0.00    +0.000 N 
ATOM     10  C   UNL     1      -2.432  10.751  17.037  0.00  0.00    +0.000 A 
ENDROOT
BRANCH   7  11
ATOM     11  C   UNL     1      -2.339  13.055  21.495  0.00  0.00    +0.000 A 
ATOM     12  C   UNL     1      -1.238  13.902  21.674  0.00  0.00    +0.000 A 
ATOM     13  C   UNL     1      -0.971  14.466  22.928  0.00  0.00    +0.000 A 
ATOM     14  C   UNL     1      -1.801  14.183  24.008  0.00  0.00    +0.000 A 
ATOM     15  F   UNL     1      -1.546  14.737  25.201  0.00  0.00    +0.000 F 
ATOM     16  C   UNL     1      -2.884  13.329  23.865  0.00  0.00    +0.000 A 
ATOM     17  C   UNL     1      -3.146  12.762  22.615  0.00  0.00    +0.000 A 
ENDBRANCH   7  11
BRANCH   8  18
ATOM     18  O   UNL     1      -0.527  11.346  19.533  0.00  0.00    +0.000 OA
BRANCH  18  19
ATOM     19  C   UNL     1      -0.256   9.990  19.888  0.00  0.00    +0.000 C 
BRANCH  19  20
ATOM     20  C   UNL     1       1.161   9.681  20.348  0.00  0.00    +0.000 C 
BRANCH  20  21
ATOM     21  N   UNL     1       1.702   8.488  19.737  0.00  0.00    +0.000 N 
ATOM     22  C   UNL     1       2.168   8.485  18.437  0.00  0.00    +0.000 C 
ATOM     23  O   UNL     1       2.150   9.462  17.699  0.00  0.00    +0.000 OA
ATOM     24  H   UNL     1       2.003   7.762  20.366  0.00  0.00    +0.000 HD
BRANCH  22  25
ATOM     25  C   UNL     1       2.756   7.201  17.990  0.00  0.00    +0.000 A 
ATOM     26  C   UNL     1       2.118   5.977  18.211  0.00  0.00    +0.000 A 
ATOM     27  C   UNL     1       2.750   4.797  17.829  0.00  0.00    +0.000 A 
ATOM     28  C   UNL     1       3.999   4.870  17.221  0.00  0.00    +0.000 A 
ATOM     29  C   UNL     1       4.741   3.621  16.855  0.00  0.00    +0.000 C 
ATOM     30  N   UNL     1       4.617   6.049  16.964  0.00  0.00    +0.000 NA
ATOM     31  C   UNL     1       3.981   7.188  17.345  0.00  0.00    +0.000 A 
ENDBRANCH  22  25
ENDBRANCH  20  21
ENDBRANCH  19  20
ENDBRANCH  18  19
ENDBRANCH   8  18
TORSDOF 6
ENDMDL
MODEL 9
REMARK VINA RESULT:      -7.8      8.731     11.015
REMARK  Name = 
REMARK  8 active torsions:
REMARK  status: ('A' for Active; 'I' for Inactive)
REMARK    1  A    between atoms: C_1  and  C_2
REMARK    2  A    between atoms: C_7  and  C_8
REMARK    3  A    between atoms: C_15  and  O_16
REMARK    4  A    between atoms: O_16  and  C_17
REMARK    5  A    between atoms: C_17  and  C_18
REMARK    6  A    between atoms: C_18  and  N_19
REMARK    7  A    between atoms: C_20  and  C_22
REMARK    8  A    between atoms: C_25  and  C_26
REMARK                            x       y       z     vdW  Elec       q    Type
REMARK                         _______ _______ _______ _____ _____    ______ ____
ROOT
ATOM      1  C   UNL     1      -2.982   9.911  14.626  0.00  0.00    +0.000 C 
ATOM      2  C   UNL     1      -3.279  10.571  15.935  0.00  0.00    +0.000 A 
ATOM      3  C   UNL     1      -4.603  11.058  16.264  0.00  0.00    +0.000 A 
ATOM      4  C   UNL     1      -4.848  11.669  17.442  0.00  0.00    +0.000 A 
ATOM      5  C   UNL     1      -3.799  11.847  18.397  0.00  0.00    +0.000 A 
ATOM      6  N   UNL     1      -3.820  12.428  19.567  0.00  0.00    +0.000 NA
ATOM      7  C   UNL     1      -2.540  12.320  20.065  0.00  0.00    +0.000 A 
ATOM      8  C   UNL     1      -1.693  11.644  19.177  0.00  0.00    +0.000 A 
ATOM      9  N   UNL     1      -2.531  11.356  18.076  0.00  0.00    +0.000 N 
ATOM     10  C   UNL     1      -2.307  10.733  16.842  0.00  0.00    +0.000 A 
ENDROOT
BRANCH   7  11
ATOM     11  C   UNL     1      -2.213  12.916  21.361  0.00  0.00    +0.000 A 
ATOM     12  C   UNL     1      -2.990  12.712  22.508  0.00  0.00    +0.000 A 
ATOM     13  C   UNL     1      -2.633  13.309  23.724  0.00  0.00    +0.000 A 
ATOM     14  C   UNL     1      -1.502  14.114  23.797  0.00  0.00    +0.000 A 
ATOM     15  F   UNL     1      -1.160  14.670  24.967  0.00  0.00    +0.000 F 
ATOM     16  C   UNL     1      -0.726  14.352  22.672  0.00  0.00    +0.000 A 
ATOM     17  C   UNL     1      -1.088  13.762  21.457  0.00  0.00    +0.000 A 
ENDBRANCH   7  11
BRANCH   8  18
ATOM     18  O   UNL     1      -0.372  11.348  19.310  0.00  0.00    +0.000 OA
BRANCH  18  19
ATOM     19  C   UNL     1      -0.021   9.973  19.469  0.00  0.00    +0.000 C 
BRANCH  19  20
ATOM     20  C   UNL     1       1.424   9.683  19.848  0.00  0.00    +0.000 C 
BRANCH  20  21
ATOM     21  N   UNL     1       1.819   8.324  19.554  0.00  0.00    +0.000 N 
ATOM     22  C   UNL     1       2.342   7.970  18.327  0.00  0.00    +0.000 C 
ATOM     23  O   UNL     1       2.498   8.749  17.396  0.00  0.00    +0.000 OA
ATOM     24  H   UNL     1       1.983   7.726  20.348  0.00  0.00    +0.000 HD
BRANCH  22  25
ATOM     25  C   UNL     1       2.763   6.553  18.216  0.00  0.00    +0.000 A 
ATOM     26  C   UNL     1       3.840   6.161  17.416  0.00  0.00    +0.000 A 
ATOM     27  C   UNL     1       4.148   4.808  17.296  0.00  0.00    +0.000 A 
ATOM     28  C   UNL     1       3.380   3.882  17.994  0.00  0.00    +0.000 A 
ATOM     29  C   UNL     1       3.637   2.413  17.841  0.00  0.00    +0.000 C 
ATOM     30  N   UNL     1       2.355   4.245  18.804  0.00  0.00    +0.000 NA
ATOM     31  C   UNL     1       2.074   5.570  18.906  0.00  0.00    +0.000 A 
ENDBRANCH  22  25
ENDBRANCH  20  21
ENDBRANCH  19  20
ENDBRANCH  18  19
ENDBRANCH   8  18
TORSDOF 6
ENDMDL
