MODEL 1
REMARK VINA RESULT:      -8.1      0.000      0.000
REMARK  Name = 
REMARK  6 active torsions:
REMARK  status: ('A' for Active; 'I' for Inactive)
REMARK    1  A    between atoms: C_1  and  N_2
REMARK    2  A    between atoms: N_5  and  C_6
REMARK    3  A    between atoms: C_6  and  C_7
REMARK    4  A    between atoms: C_10  and  O_11
REMARK    5  A    between atoms: O_11  and  C_12
REMARK    6  A    between atoms: C_20  and  C_21
REMARK                            x       y       z     vdW  Elec       q    Type
REMARK                         _______ _______ _______ _____ _____    ______ ____
ROOT
ATOM      1  C   UNL     1       1.143  12.057  19.170  0.00  0.00    +0.000 A 
ATOM      2  C   UNL     1       0.892  12.599  20.434  0.00  0.00    +0.000 A 
ATOM      3  C   UNL     1       1.438  13.827  20.788  0.00  0.00    +0.000 A 
ATOM      4  C   UNL     1       2.250  14.510  19.880  0.00  0.00    +0.000 A 
ATOM      5  C   UNL     1       2.603  13.926  18.652  0.00  0.00    +0.000 A 
ATOM      6  C   UNL     1       2.031  12.693  18.300  0.00  0.00    +0.000 A 
ATOM      7  C   UNL     1       3.536  14.633  17.712  0.00  0.00    +0.000 C 
ATOM      8  C   UNL     1       4.104  15.900  18.342  0.00  0.00    +0.000 C 
ATOM      9  C   UNL     1       3.028  16.624  19.160  0.00  0.00    +0.000 C 
ATOM     10  O   UNL     1       2.640  15.767  20.255  0.00  0.00    +0.000 OA
ENDROOT
BRANCH   9  11
ATOM     11  C   UNL     1       1.827  17.182  18.392  0.00  0.00    +0.000 A 
ATOM     12  C   UNL     1       2.000  17.794  17.137  0.00  0.00    +0.000 A 
ATOM     13  C   UNL     1       0.912  18.303  16.425  0.00  0.00    +0.000 A 
ATOM     14  C   UNL     1      -0.375  18.192  16.942  0.00  0.00    +0.000 A 
ATOM     15  C   UNL     1      -0.572  17.566  18.171  0.00  0.00    +0.000 A 
ATOM     16  C   UNL     1       0.518  17.058  18.883  0.00  0.00    +0.000 A 
ENDBRANCH   9  11
BRANCH   1  17
ATOM     17  O   UNL     1       0.570  10.881  18.751  0.00  0.00    +0.000 OA
BRANCH  17  21
ATOM     18  C   UNL     1       2.252   7.605  19.378  0.00  0.00    +0.000 A 
ATOM     19  C   UNL     1       1.545   8.013  20.491  0.00  0.00    +0.000 A 
ATOM     20  N   UNL     1       0.856   9.200  20.358  0.00  0.00    +0.000 NA
ATOM     21  C   UNL     1       1.060   9.706  19.159  0.00  0.00    +0.000 A 
ATOM     22  S   UNL     1       2.020   8.742  18.113  0.00  0.00    +0.000 S 
BRANCH  18  23
ATOM     23  C   UNL     1       3.092   6.382  19.197  0.00  0.00    +0.000 C 
BRANCH  23  28
ATOM     24  C   UNL     1       3.551   1.525  18.410  0.00  0.00    +0.000 C 
ATOM     25  N   UNL     1       3.330   2.940  18.208  0.00  0.00    +0.000 N 
ATOM     26  C   UNL     1       4.475   3.834  18.093  0.00  0.00    +0.000 C 
ATOM     27  C   UNL     1       4.111   5.115  17.335  0.00  0.00    +0.000 C 
ATOM     28  N   UNL     1       2.909   5.789  17.863  0.00  0.00    +0.000 NA
ATOM     29  C   UNL     1       1.778   4.832  17.869  0.00  0.00    +0.000 C 
ATOM     30  C   UNL     1       2.083   3.476  18.522  0.00  0.00    +0.000 C 
ATOM     31  O   UNL     1       1.220   2.850  19.136  0.00  0.00    +0.000 OA
ENDBRANCH  23  28
ENDBRANCH  18  23
ENDBRANCH  17  21
ENDBRANCH   1  17
TORSDOF 5
ENDMDL
MODEL 2
REMARK VINA RESULT:      -7.7      0.868      1.225
REMARK  Name = 
REMARK  6 active torsions:
REMARK  status: ('A' for Active; 'I' for Inactive)
REMARK    1  A    between atoms: C_1  and  N_2
REMARK    2  A    between atoms: N_5  and  C_6
REMARK    3  A    between atoms: C_6  and  C_7
REMARK    4  A    between atoms: C_10  and  O_11
REMARK    5  A    between atoms: O_11  and  C_12
REMARK    6  A    between atoms: C_20  and  C_21
REMARK                            x       y       z     vdW  Elec       q    Type
REMARK                         _______ _______ _______ _____ _____    ______ ____
ROOT
ATOM      1  C   UNL     1       0.943  12.030  19.371  0.00  0.00    +0.000 A 
ATOM      2  C   UNL     1       0.699  12.618  20.616  0.00  0.00    +0.000 A 
ATOM      3  C   UNL     1       1.259  13.851  20.927  0.00  0.00    +0.000 A 
ATOM      4  C   UNL     1       2.077  14.494  19.996  0.00  0.00    +0.000 A 
ATOM      5  C   UNL     1       2.422  13.865  18.788  0.00  0.00    +0.000 A 
ATOM      6  C   UNL     1       1.836  12.626  18.479  0.00  0.00    +0.000 A 
ATOM      7  C   UNL     1       3.361  14.529  17.823  0.00  0.00    +0.000 C 
ATOM      8  C   UNL     1       3.943  15.811  18.409  0.00  0.00    +0.000 C 
ATOM      9  C   UNL     1       2.877  16.573  19.202  0.00  0.00    +0.000 C 
ATOM     10  O   UNL     1       2.481  15.758  20.327  0.00  0.00    +0.000 OA
ENDROOT
BRANCH   9  11
ATOM     11  C   UNL     1       1.681  17.117  18.417  0.00  0.00    +0.000 A 
ATOM     12  C   UNL     1       0.376  17.010  18.933  0.00  0.00    +0.000 A 
ATOM     13  C   UNL     1      -0.723  17.507  18.228  0.00  0.00    +0.000 A 
ATOM     14  C   UNL     1      -0.539  18.140  17.003  0.00  0.00    +0.000 A 
ATOM     15  C   UNL     1       0.747  18.280  16.486  0.00  0.00    +0.000 A 
ATOM     16  C   UNL     1       1.846  17.783  17.192  0.00  0.00    +0.000 A 
ENDBRANCH   9  11
BRANCH   1  17
ATOM     17  O   UNL     1       0.356  10.846  18.993  0.00  0.00    +0.000 OA
BRANCH  17  21
ATOM     18  C   UNL     1       2.344   7.684  19.027  0.00  0.00    +0.000 A 
ATOM     19  C   UNL     1       1.771   7.915  20.261  0.00  0.00    +0.000 A 
ATOM     20  N   UNL     1       0.985   9.044  20.352  0.00  0.00    +0.000 NA
ATOM     21  C   UNL     1       0.983   9.683  19.200  0.00  0.00    +0.000 A 
ATOM     22  S   UNL     1       1.856   8.917  17.937  0.00  0.00    +0.000 S 
BRANCH  18  23
ATOM     23  C   UNL     1       3.238   6.563  18.603  0.00  0.00    +0.000 C 
BRANCH  23  28
ATOM     24  C   UNL     1       4.303   2.019  20.225  0.00  0.00    +0.000 C 
ATOM     25  N   UNL     1       3.676   3.126  19.538  0.00  0.00    +0.000 N 
ATOM     26  C   UNL     1       4.291   3.658  18.330  0.00  0.00    +0.000 C 
ATOM     27  C   UNL     1       3.263   4.378  17.449  0.00  0.00    +0.000 C 
ATOM     28  N   UNL     1       2.468   5.385  18.177  0.00  0.00    +0.000 NA
ATOM     29  C   UNL     1       1.816   4.739  19.341  0.00  0.00    +0.000 C 
ATOM     30  C   UNL     1       2.755   3.910  20.229  0.00  0.00    +0.000 C 
ATOM     31  O   UNL     1       2.584   3.829  21.444  0.00  0.00    +0.000 OA
ENDBRANCH  23  28
ENDBRANCH  18  23
ENDBRANCH  17  21
ENDBRANCH   1  17
TORSDOF 5
ENDMDL
MODEL 3
REMARK VINA RESULT:      -7.6      5.486      6.974
REMARK  Name = 
REMARK  6 active torsions:
REMARK  status: ('A' for Active; 'I' for Inactive)
REMARK    1  A    between atoms: C_1  and  N_2
REMARK    2  A    between atoms: N_5  and  C_6
REMARK    3  A    between atoms: C_6  and  C_7
REMARK    4  A    between atoms: C_10  and  O_11
REMARK    5  A    between atoms: O_11  and  C_12
REMARK    6  A    between atoms: C_20  and  C_21
REMARK                            x       y       z     vdW  Elec       q    Type
REMARK                         _______ _______ _______ _____ _____    ______ ____
ROOT
ATOM      1  C   UNL     1       8.891   9.856  18.170  0.00  0.00    +0.000 A 
ATOM      2  C   UNL     1       8.818   9.746  19.562  0.00  0.00    +0.000 A 
ATOM      3  C   UNL     1       9.520  10.633  20.369  0.00  0.00    +0.000 A 
ATOM      4  C   UNL     1      10.308  11.625  19.784  0.00  0.00    +0.000 A 
ATOM      5  C   UNL     1      10.481  11.677  18.391  0.00  0.00    +0.000 A 
ATOM      6  C   UNL     1       9.754  10.785  17.585  0.00  0.00    +0.000 A 
ATOM      7  C   UNL     1      11.390  12.699  17.773  0.00  0.00    +0.000 C 
ATOM      8  C   UNL     1      12.143  13.489  18.838  0.00  0.00    +0.000 C 
ATOM      9  C   UNL     1      11.230  13.789  20.032  0.00  0.00    +0.000 C 
ATOM     10  O   UNL     1      10.861  12.535  20.644  0.00  0.00    +0.000 OA
ENDROOT
BRANCH   9  11
ATOM     11  C   UNL     1      10.027  14.700  19.777  0.00  0.00    +0.000 A 
ATOM     12  C   UNL     1       8.810  14.484  20.449  0.00  0.00    +0.000 A 
ATOM     13  C   UNL     1       7.705  15.311  20.229  0.00  0.00    +0.000 A 
ATOM     14  C   UNL     1       7.801  16.383  19.348  0.00  0.00    +0.000 A 
ATOM     15  C   UNL     1       9.004  16.631  18.692  0.00  0.00    +0.000 A 
ATOM     16  C   UNL     1      10.108  15.803  18.912  0.00  0.00    +0.000 A 
ENDBRANCH   9  11
BRANCH   1  17
ATOM     17  O   UNL     1       8.162   9.046  17.333  0.00  0.00    +0.000 OA
BRANCH  17  21
ATOM     18  C   UNL     1       6.427   5.832  18.114  0.00  0.00    +0.000 A 
ATOM     19  C   UNL     1       7.584   5.956  18.856  0.00  0.00    +0.000 A 
ATOM     20  N   UNL     1       8.289   7.126  18.669  0.00  0.00    +0.000 NA
ATOM     21  C   UNL     1       7.686   7.875  17.769  0.00  0.00    +0.000 A 
ATOM     22  S   UNL     1       6.207   7.247  17.167  0.00  0.00    +0.000 S 
BRANCH  18  23
ATOM     23  C   UNL     1       5.448   4.702  18.084  0.00  0.00    +0.000 C 
BRANCH  23  28
ATOM     24  C   UNL     1       1.008   2.600  18.617  0.00  0.00    +0.000 C 
ATOM     25  N   UNL     1       2.287   3.214  18.901  0.00  0.00    +0.000 N 
ATOM     26  C   UNL     1       2.427   4.659  18.784  0.00  0.00    +0.000 C 
ATOM     27  C   UNL     1       3.589   5.180  19.639  0.00  0.00    +0.000 C 
ATOM     28  N   UNL     1       4.856   4.461  19.408  0.00  0.00    +0.000 NA
ATOM     29  C   UNL     1       4.639   3.011  19.626  0.00  0.00    +0.000 C 
ATOM     30  C   UNL     1       3.431   2.420  18.885  0.00  0.00    +0.000 C 
ATOM     31  O   UNL     1       3.440   1.266  18.460  0.00  0.00    +0.000 OA
ENDBRANCH  23  28
ENDBRANCH  18  23
ENDBRANCH  17  21
ENDBRANCH   1  17
TORSDOF 5
ENDMDL
MODEL 4
REMARK VINA RESULT:      -7.5      5.499      6.869
REMARK  Name = 
REMARK  6 active torsions:
REMARK  status: ('A' for Active; 'I' for Inactive)
REMARK    1  A    between atoms: C_1  and  N_2
REMARK    2  A    between atoms: N_5  and  C_6
REMARK    3  A    between atoms: C_6  and  C_7
REMARK    4  A    between atoms: C_10  and  O_11
REMARK    5  A    between atoms: O_11  and  C_12
REMARK    6  A    between atoms: C_20  and  C_21
REMARK                            x       y       z     vdW  Elec       q    Type
REMARK                         _______ _______ _______ _____ _____    ______ ____
ROOT
ATOM      1  C   UNL     1       8.920   9.919  18.232  0.00  0.00    +0.000 A 
ATOM      2  C   UNL     1       8.809   9.900  19.626  0.00  0.00    +0.000 A 
ATOM      3  C   UNL     1       9.502  10.828  20.394  0.00  0.00    +0.000 A 
ATOM      4  C   UNL     1      10.320  11.770  19.768  0.00  0.00    +0.000 A 
ATOM      5  C   UNL     1      10.530  11.729  18.379  0.00  0.00    +0.000 A 
ATOM      6  C   UNL     1       9.811  10.797  17.613  0.00  0.00    +0.000 A 
ATOM      7  C   UNL     1      11.470  12.697  17.721  0.00  0.00    +0.000 C 
ATOM      8  C   UNL     1      12.207  13.544  18.753  0.00  0.00    +0.000 C 
ATOM      9  C   UNL     1      11.268  13.933  19.900  0.00  0.00    +0.000 C 
ATOM     10  O   UNL     1      10.864  12.726  20.582  0.00  0.00    +0.000 OA
ENDROOT
BRANCH   9  11
ATOM     11  C   UNL     1      10.085  14.841  19.555  0.00  0.00    +0.000 A 
ATOM     12  C   UNL     1      10.199  15.813  18.544  0.00  0.00    +0.000 A 
ATOM     13  C   UNL     1       9.125  16.644  18.216  0.00  0.00    +0.000 A 
ATOM     14  C   UNL     1       7.909  16.508  18.879  0.00  0.00    +0.000 A 
ATOM     15  C   UNL     1       7.767  15.535  19.865  0.00  0.00    +0.000 A 
ATOM     16  C   UNL     1       8.841  14.704  20.192  0.00  0.00    +0.000 A 
ENDBRANCH   9  11
BRANCH   1  17
ATOM     17  O   UNL     1       8.200   9.066  17.430  0.00  0.00    +0.000 OA
BRANCH  17  21
ATOM     18  C   UNL     1       6.632   5.791  18.302  0.00  0.00    +0.000 A 
ATOM     19  C   UNL     1       7.789   5.988  19.028  0.00  0.00    +0.000 A 
ATOM     20  N   UNL     1       8.435   7.186  18.807  0.00  0.00    +0.000 NA
ATOM     21  C   UNL     1       7.787   7.884  17.897  0.00  0.00    +0.000 A 
ATOM     22  S   UNL     1       6.333   7.172  17.327  0.00  0.00    +0.000 S 
BRANCH  18  23
ATOM     23  C   UNL     1       5.708   4.614  18.309  0.00  0.00    +0.000 C 
BRANCH  23  28
ATOM     24  C   UNL     1       1.600   2.159  19.538  0.00  0.00    +0.000 C 
ATOM     25  N   UNL     1       2.515   3.098  18.927  0.00  0.00    +0.000 N 
ATOM     26  C   UNL     1       3.349   2.663  17.815  0.00  0.00    +0.000 C 
ATOM     27  C   UNL     1       3.792   3.849  16.951  0.00  0.00    +0.000 C 
ATOM     28  N   UNL     1       4.400   4.947  17.726  0.00  0.00    +0.000 NA
ATOM     29  C   UNL     1       3.453   5.378  18.781  0.00  0.00    +0.000 C 
ATOM     30  C   UNL     1       2.877   4.241  19.637  0.00  0.00    +0.000 C 
ATOM     31  O   UNL     1       2.610   4.404  20.827  0.00  0.00    +0.000 OA
ENDBRANCH  23  28
ENDBRANCH  18  23
ENDBRANCH  17  21
ENDBRANCH   1  17
TORSDOF 5
ENDMDL
MODEL 5
REMARK VINA RESULT:      -7.4      1.195      1.785
REMARK  Name = 
REMARK  6 active torsions:
REMARK  status: ('A' for Active; 'I' for Inactive)
REMARK    1  A    between atoms: C_1  and  N_2
REMARK    2  A    between atoms: N_5  and  C_6
REMARK    3  A    between atoms: C_6  and  C_7
REMARK    4  A    between atoms: C_10  and  O_11
REMARK    5  A    between atoms: O_11  and  C_12
REMARK    6  A    between atoms: C_20  and  C_21
REMARK                            x       y       z     vdW  Elec       q    Type
REMARK                         _______ _______ _______ _____ _____    ______ ____
ROOT
ATOM      1  C   UNL     1       1.129  12.160  19.024  0.00  0.00    +0.000 A 
ATOM      2  C   UNL     1       0.732  12.673  20.263  0.00  0.00    +0.000 A 
ATOM      3  C   UNL     1       1.186  13.918  20.681  0.00  0.00    +0.000 A 
ATOM      4  C   UNL     1       2.050  14.649  19.863  0.00  0.00    +0.000 A 
ATOM      5  C   UNL     1       2.546  14.099  18.669  0.00  0.00    +0.000 A 
ATOM      6  C   UNL     1       2.067  12.847  18.250  0.00  0.00    +0.000 A 
ATOM      7  C   UNL     1       3.533  14.859  17.831  0.00  0.00    +0.000 C 
ATOM      8  C   UNL     1       3.980  16.141  18.527  0.00  0.00    +0.000 C 
ATOM      9  C   UNL     1       2.799  16.805  19.243  0.00  0.00    +0.000 C 
ATOM     10  O   UNL     1       2.346  15.916  20.286  0.00  0.00    +0.000 OA
ENDROOT
BRANCH   9  11
ATOM     11  C   UNL     1       1.654  17.321  18.368  0.00  0.00    +0.000 A 
ATOM     12  C   UNL     1       0.327  17.296  18.835  0.00  0.00    +0.000 A 
ATOM     13  C   UNL     1      -0.726  17.768  18.048  0.00  0.00    +0.000 A 
ATOM     14  C   UNL     1      -0.472  18.294  16.785  0.00  0.00    +0.000 A 
ATOM     15  C   UNL     1       0.837  18.353  16.313  0.00  0.00    +0.000 A 
ATOM     16  C   UNL     1       1.890  17.880  17.101  0.00  0.00    +0.000 A 
ENDBRANCH   9  11
BRANCH   1  17
ATOM     17  O   UNL     1       0.652  10.966  18.539  0.00  0.00    +0.000 OA
BRANCH  17  21
ATOM     18  C   UNL     1       2.204   7.686  19.423  0.00  0.00    +0.000 A 
ATOM     19  C   UNL     1       1.512   8.205  20.498  0.00  0.00    +0.000 A 
ATOM     20  N   UNL     1       0.870   9.404  20.271  0.00  0.00    +0.000 NA
ATOM     21  C   UNL     1       1.096   9.808  19.038  0.00  0.00    +0.000 A 
ATOM     22  S   UNL     1       2.019   8.730  18.073  0.00  0.00    +0.000 S 
BRANCH  18  23
ATOM     23  C   UNL     1       2.997   6.420  19.339  0.00  0.00    +0.000 C 
BRANCH  23  28
ATOM     24  C   UNL     1       7.302   4.586  17.753  0.00  0.00    +0.000 C 
ATOM     25  N   UNL     1       5.931   5.046  17.797  0.00  0.00    +0.000 N 
ATOM     26  C   UNL     1       5.655   6.475  17.741  0.00  0.00    +0.000 C 
ATOM     27  C   UNL     1       4.237   6.751  17.228  0.00  0.00    +0.000 C 
ATOM     28  N   UNL     1       3.194   5.994  17.946  0.00  0.00    +0.000 NA
ATOM     29  C   UNL     1       3.514   4.548  17.883  0.00  0.00    +0.000 C 
ATOM     30  C   UNL     1       4.951   4.186  18.286  0.00  0.00    +0.000 C 
ATOM     31  O   UNL     1       5.211   3.127  18.856  0.00  0.00    +0.000 OA
ENDBRANCH  23  28
ENDBRANCH  18  23
ENDBRANCH  17  21
ENDBRANCH   1  17
TORSDOF 5
ENDMDL
MODEL 6
REMARK VINA RESULT:      -7.3      4.806      6.289
REMARK  Name = 
REMARK  6 active torsions:
REMARK  status: ('A' for Active; 'I' for Inactive)
REMARK    1  A    between atoms: C_1  and  N_2
REMARK    2  A    between atoms: N_5  and  C_6
REMARK    3  A    between atoms: C_6  and  C_7
REMARK    4  A    between atoms: C_10  and  O_11
REMARK    5  A    between atoms: O_11  and  C_12
REMARK    6  A    between atoms: C_20  and  C_21
REMARK                            x       y       z     vdW  Elec       q    Type
REMARK                         _______ _______ _______ _____ _____    ______ ____
ROOT
ATOM      1  C   UNL     1       8.591  10.020  18.150  0.00  0.00    +0.000 A 
ATOM      2  C   UNL     1       9.178   9.667  19.370  0.00  0.00    +0.000 A 
ATOM      3  C   UNL     1       9.618  10.654  20.243  0.00  0.00    +0.000 A 
ATOM      4  C   UNL     1       9.484  11.998  19.892  0.00  0.00    +0.000 A 
ATOM      5  C   UNL     1       9.002  12.365  18.624  0.00  0.00    +0.000 A 
ATOM      6  C   UNL     1       8.545  11.359  17.757  0.00  0.00    +0.000 A 
ATOM      7  C   UNL     1       8.930  13.810  18.224  0.00  0.00    +0.000 C 
ATOM      8  C   UNL     1       9.567  14.710  19.278  0.00  0.00    +0.000 C 
ATOM      9  C   UNL     1       9.228  14.211  20.687  0.00  0.00    +0.000 C 
ATOM     10  O   UNL     1       9.821  12.906  20.859  0.00  0.00    +0.000 OA
ENDROOT
BRANCH   9  11
ATOM     11  C   UNL     1       7.757  14.251  21.106  0.00  0.00    +0.000 A 
ATOM     12  C   UNL     1       7.331  13.619  22.289  0.00  0.00    +0.000 A 
ATOM     13  C   UNL     1       5.992  13.653  22.685  0.00  0.00    +0.000 A 
ATOM     14  C   UNL     1       5.054  14.335  21.917  0.00  0.00    +0.000 A 
ATOM     15  C   UNL     1       5.458  14.989  20.756  0.00  0.00    +0.000 A 
ATOM     16  C   UNL     1       6.798  14.955  20.360  0.00  0.00    +0.000 A 
ENDBRANCH   9  11
BRANCH   1  17
ATOM     17  O   UNL     1       8.079   9.082  17.286  0.00  0.00    +0.000 OA
BRANCH  17  21
ATOM     18  C   UNL     1       6.399   5.855  18.133  0.00  0.00    +0.000 A 
ATOM     19  C   UNL     1       7.539   6.027  18.891  0.00  0.00    +0.000 A 
ATOM     20  N   UNL     1       8.223   7.206  18.682  0.00  0.00    +0.000 NA
ATOM     21  C   UNL     1       7.620   7.914  17.749  0.00  0.00    +0.000 A 
ATOM     22  S   UNL     1       6.166   7.236  17.141  0.00  0.00    +0.000 S 
BRANCH  18  23
ATOM     23  C   UNL     1       5.445   4.703  18.120  0.00  0.00    +0.000 C 
BRANCH  23  28
ATOM     24  C   UNL     1       0.991   2.633  18.664  0.00  0.00    +0.000 C 
ATOM     25  N   UNL     1       2.273   3.241  18.945  0.00  0.00    +0.000 N 
ATOM     26  C   UNL     1       2.423   4.685  18.818  0.00  0.00    +0.000 C 
ATOM     27  C   UNL     1       3.587   5.204  19.670  0.00  0.00    +0.000 C 
ATOM     28  N   UNL     1       4.850   4.475  19.446  0.00  0.00    +0.000 NA
ATOM     29  C   UNL     1       4.624   3.029  19.674  0.00  0.00    +0.000 C 
ATOM     30  C   UNL     1       3.412   2.440  18.936  0.00  0.00    +0.000 C 
ATOM     31  O   UNL     1       3.415   1.283  18.519  0.00  0.00    +0.000 OA
ENDBRANCH  23  28
ENDBRANCH  18  23
ENDBRANCH  17  21
ENDBRANCH   1  17
TORSDOF 5
ENDMDL
MODEL 7
REMARK VINA RESULT:      -7.3      4.061     10.462
REMARK  Name = 
REMARK  6 active torsions:
REMARK  status: ('A' for Active; 'I' for Inactive)
REMARK    1  A    between atoms: C_1  and  N_2
REMARK    2  A    between atoms: N_5  and  C_6
REMARK    3  A    between atoms: C_6  and  C_7
REMARK    4  A    between atoms: C_10  and  O_11
REMARK    5  A    between atoms: O_11  and  C_12
REMARK    6  A    between atoms: C_20  and  C_21
REMARK                            x       y       z     vdW  Elec       q    Type
REMARK                         _______ _______ _______ _____ _____    ______ ____
ROOT
ATOM      1  C   UNL     1       1.671   8.172  18.462  0.00  0.00    +0.000 A 
ATOM      2  C   UNL     1       1.931   8.084  19.834  0.00  0.00    +0.000 A 
ATOM      3  C   UNL     1       2.415   6.901  20.377  0.00  0.00    +0.000 A 
ATOM      4  C   UNL     1       2.628   5.797  19.550  0.00  0.00    +0.000 A 
ATOM      5  C   UNL     1       2.265   5.834  18.194  0.00  0.00    +0.000 A 
ATOM      6  C   UNL     1       1.791   7.041  17.653  0.00  0.00    +0.000 A 
ATOM      7  C   UNL     1       2.426   4.619  17.327  0.00  0.00    +0.000 C 
ATOM      8  C   UNL     1       2.861   3.408  18.145  0.00  0.00    +0.000 C 
ATOM      9  C   UNL     1       3.879   3.817  19.214  0.00  0.00    +0.000 C 
ATOM     10  O   UNL     1       3.227   4.716  20.138  0.00  0.00    +0.000 OA
ENDROOT
BRANCH   9  11
ATOM     11  C   UNL     1       5.228   4.350  18.725  0.00  0.00    +0.000 A 
ATOM     12  C   UNL     1       5.695   4.041  17.434  0.00  0.00    +0.000 A 
ATOM     13  C   UNL     1       6.922   4.526  16.974  0.00  0.00    +0.000 A 
ATOM     14  C   UNL     1       7.699   5.345  17.787  0.00  0.00    +0.000 A 
ATOM     15  C   UNL     1       7.244   5.684  19.059  0.00  0.00    +0.000 A 
ATOM     16  C   UNL     1       6.016   5.199  19.518  0.00  0.00    +0.000 A 
ENDBRANCH   9  11
BRANCH   1  17
ATOM     17  O   UNL     1       1.256   9.341  17.870  0.00  0.00    +0.000 OA
BRANCH  17  21
ATOM     18  C   UNL     1      -0.487  11.839  20.032  0.00  0.00    +0.000 A 
ATOM     19  C   UNL     1       0.814  12.229  19.784  0.00  0.00    +0.000 A 
ATOM     20  N   UNL     1       1.542  11.392  18.965  0.00  0.00    +0.000 NA
ATOM     21  C   UNL     1       0.807  10.356  18.615  0.00  0.00    +0.000 A 
ATOM     22  S   UNL     1      -0.811  10.381  19.185  0.00  0.00    +0.000 S 
BRANCH  18  23
ATOM     23  C   UNL     1      -1.526  12.515  20.867  0.00  0.00    +0.000 C 
BRANCH  23  28
ATOM     24  C   UNL     1      -4.212  14.922  24.245  0.00  0.00    +0.000 C 
ATOM     25  N   UNL     1      -3.190  14.116  23.615  0.00  0.00    +0.000 N 
ATOM     26  C   UNL     1      -2.091  14.772  22.919  0.00  0.00    +0.000 C 
ATOM     27  C   UNL     1      -0.861  13.861  22.830  0.00  0.00    +0.000 C 
ATOM     28  N   UNL     1      -1.161  12.520  22.292  0.00  0.00    +0.000 NA
ATOM     29  C   UNL     1      -2.231  11.897  23.106  0.00  0.00    +0.000 C 
ATOM     30  C   UNL     1      -3.466  12.780  23.334  0.00  0.00    +0.000 C 
ATOM     31  O   UNL     1      -4.594  12.296  23.421  0.00  0.00    +0.000 OA
ENDBRANCH  23  28
ENDBRANCH  18  23
ENDBRANCH  17  21
ENDBRANCH   1  17
TORSDOF 5
ENDMDL
MODEL 8
REMARK VINA RESULT:      -7.3      5.230      6.655
REMARK  Name = 
REMARK  6 active torsions:
REMARK  status: ('A' for Active; 'I' for Inactive)
REMARK    1  A    between atoms: C_1  and  N_2
REMARK    2  A    between atoms: N_5  and  C_6
REMARK    3  A    between atoms: C_6  and  C_7
REMARK    4  A    between atoms: C_10  and  O_11
REMARK    5  A    between atoms: O_11  and  C_12
REMARK    6  A    between atoms: C_20  and  C_21
REMARK                            x       y       z     vdW  Elec       q    Type
REMARK                         _______ _______ _______ _____ _____    ______ ____
ROOT
ATOM      1  C   UNL     1       8.867   9.741  18.115  0.00  0.00    +0.000 A 
ATOM      2  C   UNL     1       8.833   9.690  19.512  0.00  0.00    +0.000 A 
ATOM      3  C   UNL     1       9.446  10.686  20.261  0.00  0.00    +0.000 A 
ATOM      4  C   UNL     1      10.108  11.731  19.613  0.00  0.00    +0.000 A 
ATOM      5  C   UNL     1      10.247  11.735  18.215  0.00  0.00    +0.000 A 
ATOM      6  C   UNL     1       9.609  10.732  17.468  0.00  0.00    +0.000 A 
ATOM      7  C   UNL     1      11.024  12.822  17.530  0.00  0.00    +0.000 C 
ATOM      8  C   UNL     1      11.705  13.739  18.540  0.00  0.00    +0.000 C 
ATOM      9  C   UNL     1      10.787  13.993  19.741  0.00  0.00    +0.000 C 
ATOM     10  O   UNL     1      10.571  12.736  20.418  0.00  0.00    +0.000 OA
ENDROOT
BRANCH   9  11
ATOM     11  C   UNL     1       9.485  14.752  19.474  0.00  0.00    +0.000 A 
ATOM     12  C   UNL     1       8.326  14.472  20.223  0.00  0.00    +0.000 A 
ATOM     13  C   UNL     1       7.133  15.161  19.993  0.00  0.00    +0.000 A 
ATOM     14  C   UNL     1       7.078  16.157  19.023  0.00  0.00    +0.000 A 
ATOM     15  C   UNL     1       8.219  16.469  18.289  0.00  0.00    +0.000 A 
ATOM     16  C   UNL     1       9.413  15.779  18.520  0.00  0.00    +0.000 A 
ENDBRANCH   9  11
BRANCH   1  17
ATOM     17  O   UNL     1       8.216   8.817  17.333  0.00  0.00    +0.000 OA
BRANCH  17  21
ATOM     18  C   UNL     1       6.304   5.823  18.487  0.00  0.00    +0.000 A 
ATOM     19  C   UNL     1       7.566   5.843  19.046  0.00  0.00    +0.000 A 
ATOM     20  N   UNL     1       8.349   6.928  18.711  0.00  0.00    +0.000 NA
ATOM     21  C   UNL     1       7.696   7.714  17.880  0.00  0.00    +0.000 A 
ATOM     22  S   UNL     1       6.088   7.230  17.527  0.00  0.00    +0.000 S 
BRANCH  18  23
ATOM     23  C   UNL     1       5.223   4.802  18.646  0.00  0.00    +0.000 C 
BRANCH  23  28
ATOM     24  C   UNL     1       0.984   2.274  18.874  0.00  0.00    +0.000 C 
ATOM     25  N   UNL     1       2.027   3.183  18.451  0.00  0.00    +0.000 N 
ATOM     26  C   UNL     1       3.176   2.662  17.723  0.00  0.00    +0.000 C 
ATOM     27  C   UNL     1       3.847   3.754  16.882  0.00  0.00    +0.000 C 
ATOM     28  N   UNL     1       4.159   4.977  17.646  0.00  0.00    +0.000 NA
ATOM     29  C   UNL     1       2.920   5.480  18.285  0.00  0.00    +0.000 C 
ATOM     30  C   UNL     1       2.125   4.426  19.071  0.00  0.00    +0.000 C 
ATOM     31  O   UNL     1       1.494   4.722  20.084  0.00  0.00    +0.000 OA
ENDBRANCH  23  28
ENDBRANCH  18  23
ENDBRANCH  17  21
ENDBRANCH   1  17
TORSDOF 5
ENDMDL
MODEL 9
REMARK VINA RESULT:      -7.3      1.712      2.084
REMARK  Name = 
REMARK  6 active torsions:
REMARK  status: ('A' for Active; 'I' for Inactive)
REMARK    1  A    between atoms: C_1  and  N_2
REMARK    2  A    between atoms: N_5  and  C_6
REMARK    3  A    between atoms: C_6  and  C_7
REMARK    4  A    between atoms: C_10  and  O_11
REMARK    5  A    between atoms: O_11  and  C_12
REMARK    6  A    between atoms: C_20  and  C_21
REMARK                            x       y       z     vdW  Elec       q    Type
REMARK                         _______ _______ _______ _____ _____    ______ ____
ROOT
ATOM      1  C   UNL     1       1.390  11.732  18.956  0.00  0.00    +0.000 A 
ATOM      2  C   UNL     1       1.043  12.104  20.259  0.00  0.00    +0.000 A 
ATOM      3  C   UNL     1       1.484  13.314  20.779  0.00  0.00    +0.000 A 
ATOM      4  C   UNL     1       2.285  14.152  20.001  0.00  0.00    +0.000 A 
ATOM      5  C   UNL     1       2.734  13.741  18.734  0.00  0.00    +0.000 A 
ATOM      6  C   UNL     1       2.269  12.523  18.213  0.00  0.00    +0.000 A 
ATOM      7  C   UNL     1       3.657  14.614  17.933  0.00  0.00    +0.000 C 
ATOM      8  C   UNL     1       4.103  15.832  18.734  0.00  0.00    +0.000 C 
ATOM      9  C   UNL     1       2.943  16.382  19.570  0.00  0.00    +0.000 C 
ATOM     10  O   UNL     1       2.567  15.379  20.537  0.00  0.00    +0.000 OA
ENDROOT
BRANCH   9  11
ATOM     11  C   UNL     1       1.741  16.947  18.808  0.00  0.00    +0.000 A 
ATOM     12  C   UNL     1       1.918  17.606  17.577  0.00  0.00    +0.000 A 
ATOM     13  C   UNL     1       0.829  18.121  16.869  0.00  0.00    +0.000 A 
ATOM     14  C   UNL     1      -0.461  17.971  17.367  0.00  0.00    +0.000 A 
ATOM     15  C   UNL     1      -0.661  17.299  18.571  0.00  0.00    +0.000 A 
ATOM     16  C   UNL     1       0.428  16.784  19.278  0.00  0.00    +0.000 A 
ENDBRANCH   9  11
BRANCH   1  17
ATOM     17  O   UNL     1       0.921  10.578  18.375  0.00  0.00    +0.000 OA
BRANCH  17  21
ATOM     18  C   UNL     1       2.438   7.205  18.899  0.00  0.00    +0.000 A 
ATOM     19  C   UNL     1       1.984   7.729  20.093  0.00  0.00    +0.000 A 
ATOM     20  N   UNL     1       1.374   8.962  20.009  0.00  0.00    +0.000 NA
ATOM     21  C   UNL     1       1.389   9.387  18.763  0.00  0.00    +0.000 A 
ATOM     22  S   UNL     1       2.061   8.293  17.625  0.00  0.00    +0.000 S 
BRANCH  18  23
ATOM     23  C   UNL     1       3.134   5.906  18.648  0.00  0.00    +0.000 C 
BRANCH  23  28
ATOM     24  C   UNL     1       6.275   4.197  15.238  0.00  0.00    +0.000 C 
ATOM     25  N   UNL     1       5.735   4.816  16.429  0.00  0.00    +0.000 N 
ATOM     26  C   UNL     1       5.289   3.975  17.532  0.00  0.00    +0.000 C 
ATOM     27  C   UNL     1       5.303   4.741  18.860  0.00  0.00    +0.000 C 
ATOM     28  N   UNL     1       4.591   6.032  18.800  0.00  0.00    +0.000 NA
ATOM     29  C   UNL     1       5.161   6.851  17.705  0.00  0.00    +0.000 C 
ATOM     30  C   UNL     1       5.280   6.130  16.354  0.00  0.00    +0.000 C 
ATOM     31  O   UNL     1       5.140   6.732  15.291  0.00  0.00    +0.000 OA
ENDBRANCH  23  28
ENDBRANCH  18  23
ENDBRANCH  17  21
ENDBRANCH   1  17
TORSDOF 5
ENDMDL
