MODEL 1
REMARK VINA RESULT:      -7.5      0.000      0.000
REMARK  Name = 
REMARK  5 active torsions:
REMARK  status: ('A' for Active; 'I' for Inactive)
REMARK    1  A    between atoms: C_1  and  C_2
REMARK    2  A    between atoms: C_5  and  C_6
REMARK    3  A    between atoms: C_6  and  N_7
REMARK    4  A    between atoms: C_6  and  C_17
REMARK    5  A    between atoms: C_20  and  C_21
REMARK                            x       y       z     vdW  Elec       q    Type
REMARK                         _______ _______ _______ _____ _____    ______ ____
ROOT
ATOM      1  C   UNL     1       5.678   5.246  16.880  0.00  0.00    +0.000 C 
ENDROOT
BRANCH   1   2
ATOM      2  N   UNL     1       4.341   5.533  17.399  0.00  0.00    +0.000 NA
ATOM      3  C   UNL     1       3.416   4.681  17.662  0.00  0.00    +0.000 C 
ATOM      4  C   UNL     1       3.505   3.159  17.494  0.00  0.00    +0.000 C 
ATOM      5  C   UNL     1       2.944   2.305  18.659  0.00  0.00    +0.000 C 
ATOM      6  C   UNL     1       3.510   2.550  20.069  0.00  0.00    +0.000 C 
ATOM      7  C   UNL     1       2.494   2.958  21.144  0.00  0.00    +0.000 C 
ATOM      8  C   UNL     1       1.663   4.208  20.842  0.00  0.00    +0.000 C 
ATOM      9  C   UNL     1       2.492   5.455  20.493  0.00  0.00    +0.000 C 
ATOM     10  C   UNL     1       2.075   6.101  19.167  0.00  0.00    +0.000 C 
ATOM     11  N   UNL     1       2.177   5.142  18.074  0.00  0.00    +0.000 N 
ATOM     12  H   UNL     1       1.441   4.444  18.104  0.00  0.00    +0.000 HD
ENDBRANCH   1   2
BRANCH   1  17
ATOM     13  C   UNL     1       8.951   9.588  19.049  0.00  0.00    +0.000 C 
ATOM     14  C   UNL     1       8.199   8.489  18.362  0.00  0.00    +0.000 A 
ATOM     15  C   UNL     1       7.246   8.744  17.372  0.00  0.00    +0.000 A 
ATOM     16  C   UNL     1       6.464   7.703  16.846  0.00  0.00    +0.000 A 
ATOM     17  C   UNL     1       6.640   6.372  17.272  0.00  0.00    +0.000 A 
ATOM     18  C   UNL     1       7.671   6.114  18.207  0.00  0.00    +0.000 A 
ATOM     19  C   UNL     1       8.017   4.718  18.633  0.00  0.00    +0.000 C 
ATOM     20  C   UNL     1       8.405   7.169  18.766  0.00  0.00    +0.000 A 
ENDBRANCH   1  17
BRANCH   1  21
ATOM     21  C   UNL     1       5.525   5.051  15.386  0.00  0.00    +0.000 C 
ATOM     22  C   UNL     1       6.700   4.975  14.433  0.00  0.00    +0.000 C 
ATOM     23  C   UNL     1       5.948   3.727  14.779  0.00  0.00    +0.000 C 
ENDBRANCH   1  21
TORSDOF 3
ENDMDL
MODEL 2
REMARK VINA RESULT:      -7.3      1.860      6.326
REMARK  Name = 
REMARK  5 active torsions:
REMARK  status: ('A' for Active; 'I' for Inactive)
REMARK    1  A    between atoms: C_1  and  C_2
REMARK    2  A    between atoms: C_5  and  C_6
REMARK    3  A    between atoms: C_6  and  N_7
REMARK    4  A    between atoms: C_6  and  C_17
REMARK    5  A    between atoms: C_20  and  C_21
REMARK                            x       y       z     vdW  Elec       q    Type
REMARK                         _______ _______ _______ _____ _____    ______ ____
ROOT
ATOM      1  C   UNL     1       2.950   7.444  18.051  0.00  0.00    +0.000 C 
ENDROOT
BRANCH   1   2
ATOM      2  N   UNL     1       3.735   6.974  16.909  0.00  0.00    +0.000 NA
ATOM      3  C   UNL     1       5.008   7.066  16.757  0.00  0.00    +0.000 C 
ATOM      4  C   UNL     1       5.999   7.691  17.746  0.00  0.00    +0.000 C 
ATOM      5  C   UNL     1       7.308   6.899  17.999  0.00  0.00    +0.000 C 
ATOM      6  C   UNL     1       7.187   5.442  18.477  0.00  0.00    +0.000 C 
ATOM      7  C   UNL     1       7.845   4.381  17.584  0.00  0.00    +0.000 C 
ATOM      8  C   UNL     1       7.378   4.347  16.126  0.00  0.00    +0.000 C 
ATOM      9  C   UNL     1       5.855   4.222  15.948  0.00  0.00    +0.000 C 
ATOM     10  C   UNL     1       5.265   5.311  15.045  0.00  0.00    +0.000 C 
ATOM     11  N   UNL     1       5.574   6.636  15.570  0.00  0.00    +0.000 N 
ATOM     12  H   UNL     1       6.549   6.885  15.437  0.00  0.00    +0.000 HD
ENDBRANCH   1   2
BRANCH   1  17
ATOM     13  C   UNL     1       1.136   2.747  21.039  0.00  0.00    +0.000 C 
ATOM     14  C   UNL     1       1.455   3.958  20.214  0.00  0.00    +0.000 A 
ATOM     15  C   UNL     1       1.657   3.886  18.834  0.00  0.00    +0.000 A 
ATOM     16  C   UNL     1       2.086   5.013  18.114  0.00  0.00    +0.000 A 
ATOM     17  C   UNL     1       2.291   6.252  18.753  0.00  0.00    +0.000 A 
ATOM     18  C   UNL     1       1.994   6.334  20.134  0.00  0.00    +0.000 A 
ATOM     19  C   UNL     1       2.063   7.634  20.879  0.00  0.00    +0.000 C 
ATOM     20  C   UNL     1       1.622   5.188  20.851  0.00  0.00    +0.000 A 
ENDBRANCH   1  17
BRANCH   1  21
ATOM     21  C   UNL     1       1.972   8.464  17.507  0.00  0.00    +0.000 C 
ATOM     22  C   UNL     1       0.982   9.212  18.376  0.00  0.00    +0.000 C 
ATOM     23  C   UNL     1       2.187   9.927  17.845  0.00  0.00    +0.000 C 
ENDBRANCH   1  21
TORSDOF 3
ENDMDL
MODEL 3
REMARK VINA RESULT:      -7.2      1.093      1.872
REMARK  Name = 
REMARK  5 active torsions:
REMARK  status: ('A' for Active; 'I' for Inactive)
REMARK    1  A    between atoms: C_1  and  C_2
REMARK    2  A    between atoms: C_5  and  C_6
REMARK    3  A    between atoms: C_6  and  N_7
REMARK    4  A    between atoms: C_6  and  C_17
REMARK    5  A    between atoms: C_20  and  C_21
REMARK                            x       y       z     vdW  Elec       q    Type
REMARK                         _______ _______ _______ _____ _____    ______ ____
ROOT
ATOM      1  C   UNL     1       5.423   4.245  16.255  0.00  0.00    +0.000 C 
ENDROOT
BRANCH   1   2
ATOM      2  N   UNL     1       4.005   4.246  16.618  0.00  0.00    +0.000 NA
ATOM      3  C   UNL     1       3.366   3.317  17.234  0.00  0.00    +0.000 C 
ATOM      4  C   UNL     1       3.949   1.990  17.736  0.00  0.00    +0.000 C 
ATOM      5  C   UNL     1       3.530   1.552  19.163  0.00  0.00    +0.000 C 
ATOM      6  C   UNL     1       3.795   2.528  20.322  0.00  0.00    +0.000 C 
ATOM      7  C   UNL     1       2.567   2.968  21.130  0.00  0.00    +0.000 C 
ATOM      8  C   UNL     1       1.436   3.620  20.331  0.00  0.00    +0.000 C 
ATOM      9  C   UNL     1       1.873   4.816  19.468  0.00  0.00    +0.000 C 
ATOM     10  C   UNL     1       1.459   4.679  17.998  0.00  0.00    +0.000 C 
ATOM     11  N   UNL     1       2.002   3.454  17.424  0.00  0.00    +0.000 N 
ATOM     12  H   UNL     1       1.524   2.625  17.761  0.00  0.00    +0.000 HD
ENDBRANCH   1   2
BRANCH   1  17
ATOM     13  C   UNL     1       8.688   8.430  18.726  0.00  0.00    +0.000 C 
ATOM     14  C   UNL     1       7.784   7.340  18.234  0.00  0.00    +0.000 A 
ATOM     15  C   UNL     1       8.008   5.994  18.535  0.00  0.00    +0.000 A 
ATOM     16  C   UNL     1       7.222   4.989  17.949  0.00  0.00    +0.000 A 
ATOM     17  C   UNL     1       6.167   5.307  17.071  0.00  0.00    +0.000 A 
ATOM     18  C   UNL     1       5.892   6.677  16.847  0.00  0.00    +0.000 A 
ATOM     19  C   UNL     1       4.717   7.121  16.027  0.00  0.00    +0.000 C 
ATOM     20  C   UNL     1       6.720   7.668  17.393  0.00  0.00    +0.000 A 
ENDBRANCH   1  17
BRANCH   1  21
ATOM     21  C   UNL     1       5.482   4.458  14.757  0.00  0.00    +0.000 C 
ATOM     22  C   UNL     1       6.765   4.758  14.010  0.00  0.00    +0.000 C 
ATOM     23  C   UNL     1       6.147   3.398  13.899  0.00  0.00    +0.000 C 
ENDBRANCH   1  21
TORSDOF 3
ENDMDL
MODEL 4
REMARK VINA RESULT:      -7.1      1.746      4.521
REMARK  Name = 
REMARK  5 active torsions:
REMARK  status: ('A' for Active; 'I' for Inactive)
REMARK    1  A    between atoms: C_1  and  C_2
REMARK    2  A    between atoms: C_5  and  C_6
REMARK    3  A    between atoms: C_6  and  N_7
REMARK    4  A    between atoms: C_6  and  C_17
REMARK    5  A    between atoms: C_20  and  C_21
REMARK                            x       y       z     vdW  Elec       q    Type
REMARK                         _______ _______ _______ _____ _____    ______ ____
ROOT
ATOM      1  C   UNL     1       6.287   5.310  17.969  0.00  0.00    +0.000 C 
ENDROOT
BRANCH   1   2
ATOM      2  N   UNL     1       5.716   4.211  18.748  0.00  0.00    +0.000 NA
ATOM      3  C   UNL     1       4.623   4.232  19.424  0.00  0.00    +0.000 C 
ATOM      4  C   UNL     1       3.661   5.418  19.564  0.00  0.00    +0.000 C 
ATOM      5  C   UNL     1       2.150   5.097  19.429  0.00  0.00    +0.000 C 
ATOM      6  C   UNL     1       1.676   4.392  18.147  0.00  0.00    +0.000 C 
ATOM      7  C   UNL     1       0.969   3.044  18.338  0.00  0.00    +0.000 C 
ATOM      8  C   UNL     1       1.759   1.973  19.094  0.00  0.00    +0.000 C 
ATOM      9  C   UNL     1       3.156   1.685  18.515  0.00  0.00    +0.000 C 
ATOM     10  C   UNL     1       4.272   1.795  19.559  0.00  0.00    +0.000 C 
ATOM     11  N   UNL     1       4.275   3.119  20.170  0.00  0.00    +0.000 N 
ATOM     12  H   UNL     1       3.499   3.249  20.810  0.00  0.00    +0.000 HD
ENDBRANCH   1   2
BRANCH   1  17
ATOM     13  C   UNL     1       5.159   3.777  12.432  0.00  0.00    +0.000 C 
ATOM     14  C   UNL     1       5.585   4.226  13.797  0.00  0.00    +0.000 A 
ATOM     15  C   UNL     1       6.540   3.533  14.545  0.00  0.00    +0.000 A 
ATOM     16  C   UNL     1       6.817   3.903  15.871  0.00  0.00    +0.000 A 
ATOM     17  C   UNL     1       6.169   5.000  16.473  0.00  0.00    +0.000 A 
ATOM     18  C   UNL     1       5.272   5.750  15.675  0.00  0.00    +0.000 A 
ATOM     19  C   UNL     1       4.625   7.004  16.183  0.00  0.00    +0.000 C 
ATOM     20  C   UNL     1       4.963   5.335  14.372  0.00  0.00    +0.000 A 
ENDBRANCH   1  17
BRANCH   1  21
ATOM     21  C   UNL     1       7.709   5.487  18.456  0.00  0.00    +0.000 C 
ATOM     22  C   UNL     1       8.298   6.831  18.833  0.00  0.00    +0.000 C 
ATOM     23  C   UNL     1       7.938   5.854  19.910  0.00  0.00    +0.000 C 
ENDBRANCH   1  21
TORSDOF 3
ENDMDL
MODEL 5
REMARK VINA RESULT:      -7.1      1.999      5.884
REMARK  Name = 
REMARK  5 active torsions:
REMARK  status: ('A' for Active; 'I' for Inactive)
REMARK    1  A    between atoms: C_1  and  C_2
REMARK    2  A    between atoms: C_5  and  C_6
REMARK    3  A    between atoms: C_6  and  N_7
REMARK    4  A    between atoms: C_6  and  C_17
REMARK    5  A    between atoms: C_20  and  C_21
REMARK                            x       y       z     vdW  Elec       q    Type
REMARK                         _______ _______ _______ _____ _____    ______ ____
ROOT
ATOM      1  C   UNL     1       2.669   5.029  19.787  0.00  0.00    +0.000 C 
ENDROOT
BRANCH   1   2
ATOM      2  N   UNL     1       4.124   5.146  19.683  0.00  0.00    +0.000 NA
ATOM      3  C   UNL     1       4.899   4.464  18.919  0.00  0.00    +0.000 C 
ATOM      4  C   UNL     1       4.473   3.369  17.933  0.00  0.00    +0.000 C 
ATOM      5  C   UNL     1       5.133   3.413  16.530  0.00  0.00    +0.000 C 
ATOM      6  C   UNL     1       5.002   4.710  15.713  0.00  0.00    +0.000 C 
ATOM      7  C   UNL     1       6.316   5.385  15.301  0.00  0.00    +0.000 C 
ATOM      8  C   UNL     1       7.273   5.746  16.441  0.00  0.00    +0.000 C 
ATOM      9  C   UNL     1       6.643   6.600  17.555  0.00  0.00    +0.000 C 
ATOM     10  C   UNL     1       6.829   5.998  18.952  0.00  0.00    +0.000 C 
ATOM     11  N   UNL     1       6.267   4.654  19.010  0.00  0.00    +0.000 N 
ATOM     12  H   UNL     1       6.835   3.977  18.511  0.00  0.00    +0.000 HD
ENDBRANCH   1   2
BRANCH   1  17
ATOM     13  C   UNL     1       0.991  10.617  20.275  0.00  0.00    +0.000 C 
ATOM     14  C   UNL     1       1.269   9.152  20.126  0.00  0.00    +0.000 A 
ATOM     15  C   UNL     1       0.981   8.233  21.139  0.00  0.00    +0.000 A 
ATOM     16  C   UNL     1       1.377   6.891  21.021  0.00  0.00    +0.000 A 
ATOM     17  C   UNL     1       2.042   6.424  19.870  0.00  0.00    +0.000 A 
ATOM     18  C   UNL     1       2.245   7.344  18.814  0.00  0.00    +0.000 A 
ATOM     19  C   UNL     1       2.834   6.919  17.501  0.00  0.00    +0.000 C 
ATOM     20  C   UNL     1       1.896   8.693  18.967  0.00  0.00    +0.000 A 
ENDBRANCH   1  17
BRANCH   1  21
ATOM     21  C   UNL     1       2.394   4.152  20.990  0.00  0.00    +0.000 C 
ATOM     22  C   UNL     1       1.171   3.266  21.111  0.00  0.00    +0.000 C 
ATOM     23  C   UNL     1       2.507   2.647  20.831  0.00  0.00    +0.000 C 
ENDBRANCH   1  21
TORSDOF 3
ENDMDL
MODEL 6
REMARK VINA RESULT:      -7.0      1.758      4.522
REMARK  Name = 
REMARK  5 active torsions:
REMARK  status: ('A' for Active; 'I' for Inactive)
REMARK    1  A    between atoms: C_1  and  C_2
REMARK    2  A    between atoms: C_5  and  C_6
REMARK    3  A    between atoms: C_6  and  N_7
REMARK    4  A    between atoms: C_6  and  C_17
REMARK    5  A    between atoms: C_20  and  C_21
REMARK                            x       y       z     vdW  Elec       q    Type
REMARK                         _______ _______ _______ _____ _____    ______ ____
ROOT
ATOM      1  C   UNL     1       6.263   5.140  17.600  0.00  0.00    +0.000 C 
ENDROOT
BRANCH   1   2
ATOM      2  N   UNL     1       5.800   3.949  18.312  0.00  0.00    +0.000 NA
ATOM      3  C   UNL     1       4.926   3.905  19.253  0.00  0.00    +0.000 C 
ATOM      4  C   UNL     1       4.163   5.097  19.844  0.00  0.00    +0.000 C 
ATOM      5  C   UNL     1       2.644   4.895  20.075  0.00  0.00    +0.000 C 
ATOM      6  C   UNL     1       1.783   4.472  18.872  0.00  0.00    +0.000 C 
ATOM      7  C   UNL     1       1.011   3.155  19.022  0.00  0.00    +0.000 C 
ATOM      8  C   UNL     1       1.852   1.917  19.345  0.00  0.00    +0.000 C 
ATOM      9  C   UNL     1       3.013   1.663  18.369  0.00  0.00    +0.000 C 
ATOM     10  C   UNL     1       4.366   1.511  19.073  0.00  0.00    +0.000 C 
ATOM     11  N   UNL     1       4.666   2.694  19.871  0.00  0.00    +0.000 N 
ATOM     12  H   UNL     1       4.099   2.746  20.711  0.00  0.00    +0.000 HD
ENDBRANCH   1   2
BRANCH   1  17
ATOM     13  C   UNL     1       6.326   3.382  12.016  0.00  0.00    +0.000 C 
ATOM     14  C   UNL     1       6.300   3.980  13.390  0.00  0.00    +0.000 A 
ATOM     15  C   UNL     1       7.413   4.615  13.947  0.00  0.00    +0.000 A 
ATOM     16  C   UNL     1       7.398   5.043  15.284  0.00  0.00    +0.000 A 
ATOM     17  C   UNL     1       6.255   4.878  16.091  0.00  0.00    +0.000 A 
ATOM     18  C   UNL     1       5.104   4.317  15.487  0.00  0.00    +0.000 A 
ATOM     19  C   UNL     1       3.802   4.209  16.224  0.00  0.00    +0.000 C 
ATOM     20  C   UNL     1       5.151   3.842  14.169  0.00  0.00    +0.000 A 
ENDBRANCH   1  17
BRANCH   1  21
ATOM     21  C   UNL     1       7.628   5.473  18.165  0.00  0.00    +0.000 C 
ATOM     22  C   UNL     1       8.055   6.879  18.535  0.00  0.00    +0.000 C 
ATOM     23  C   UNL     1       7.728   5.897  19.618  0.00  0.00    +0.000 C 
ENDBRANCH   1  21
TORSDOF 3
ENDMDL
MODEL 7
REMARK VINA RESULT:      -6.6      1.681      5.856
REMARK  Name = 
REMARK  5 active torsions:
REMARK  status: ('A' for Active; 'I' for Inactive)
REMARK    1  A    between atoms: C_1  and  C_2
REMARK    2  A    between atoms: C_5  and  C_6
REMARK    3  A    between atoms: C_6  and  N_7
REMARK    4  A    between atoms: C_6  and  C_17
REMARK    5  A    between atoms: C_20  and  C_21
REMARK                            x       y       z     vdW  Elec       q    Type
REMARK                         _______ _______ _______ _____ _____    ______ ____
ROOT
ATOM      1  C   UNL     1       3.531   3.666  19.333  0.00  0.00    +0.000 C 
ENDROOT
BRANCH   1   2
ATOM      2  N   UNL     1       4.985   3.799  19.223  0.00  0.00    +0.000 NA
ATOM      3  C   UNL     1       5.650   4.169  18.188  0.00  0.00    +0.000 C 
ATOM      4  C   UNL     1       5.067   4.562  16.825  0.00  0.00    +0.000 C 
ATOM      5  C   UNL     1       5.666   5.828  16.161  0.00  0.00    +0.000 C 
ATOM      6  C   UNL     1       5.637   7.142  16.961  0.00  0.00    +0.000 C 
ATOM      7  C   UNL     1       6.996   7.802  17.226  0.00  0.00    +0.000 C 
ATOM      8  C   UNL     1       8.034   6.938  17.946  0.00  0.00    +0.000 C 
ATOM      9  C   UNL     1       7.548   6.333  19.274  0.00  0.00    +0.000 C 
ATOM     10  C   UNL     1       7.730   4.812  19.343  0.00  0.00    +0.000 C 
ATOM     11  N   UNL     1       7.033   4.161  18.241  0.00  0.00    +0.000 N 
ATOM     12  H   UNL     1       7.503   4.298  17.353  0.00  0.00    +0.000 HD
ENDBRANCH   1   2
BRANCH   1  17
ATOM     13  C   UNL     1       1.478   8.933  17.808  0.00  0.00    +0.000 C 
ATOM     14  C   UNL     1       1.906   7.591  18.322  0.00  0.00    +0.000 A 
ATOM     15  C   UNL     1       2.754   7.451  19.424  0.00  0.00    +0.000 A 
ATOM     16  C   UNL     1       3.243   6.189  19.795  0.00  0.00    +0.000 A 
ATOM     17  C   UNL     1       2.867   5.026  19.094  0.00  0.00    +0.000 A 
ATOM     18  C   UNL     1       1.936   5.170  18.038  0.00  0.00    +0.000 A 
ATOM     19  C   UNL     1       1.381   3.982  17.309  0.00  0.00    +0.000 C 
ATOM     20  C   UNL     1       1.500   6.442  17.642  0.00  0.00    +0.000 A 
ENDBRANCH   1  17
BRANCH   1  21
ATOM     21  C   UNL     1       3.258   3.072  20.698  0.00  0.00    +0.000 C 
ATOM     22  C   UNL     1       2.152   3.561  21.611  0.00  0.00    +0.000 C 
ATOM     23  C   UNL     1       1.995   2.255  20.895  0.00  0.00    +0.000 C 
ENDBRANCH   1  21
TORSDOF 3
ENDMDL
MODEL 8
REMARK VINA RESULT:      -6.4      1.275      1.750
REMARK  Name = 
REMARK  5 active torsions:
REMARK  status: ('A' for Active; 'I' for Inactive)
REMARK    1  A    between atoms: C_1  and  C_2
REMARK    2  A    between atoms: C_5  and  C_6
REMARK    3  A    between atoms: C_6  and  N_7
REMARK    4  A    between atoms: C_6  and  C_17
REMARK    5  A    between atoms: C_20  and  C_21
REMARK                            x       y       z     vdW  Elec       q    Type
REMARK                         _______ _______ _______ _____ _____    ______ ____
ROOT
ATOM      1  C   UNL     1       5.830   4.923  18.114  0.00  0.00    +0.000 C 
ENDROOT
BRANCH   1   2
ATOM      2  N   UNL     1       4.850   5.096  19.187  0.00  0.00    +0.000 NA
ATOM      3  C   UNL     1       3.585   5.280  19.054  0.00  0.00    +0.000 C 
ATOM      4  C   UNL     1       2.810   5.357  17.733  0.00  0.00    +0.000 C 
ATOM      5  C   UNL     1       1.474   4.573  17.674  0.00  0.00    +0.000 C 
ATOM      6  C   UNL     1       1.508   3.068  17.990  0.00  0.00    +0.000 C 
ATOM      7  C   UNL     1       0.626   2.601  19.155  0.00  0.00    +0.000 C 
ATOM      8  C   UNL     1       0.881   3.280  20.504  0.00  0.00    +0.000 C 
ATOM      9  C   UNL     1       2.343   3.225  20.978  0.00  0.00    +0.000 C 
ATOM     10  C   UNL     1       2.913   4.605  21.328  0.00  0.00    +0.000 C 
ATOM     11  N   UNL     1       2.818   5.504  20.185  0.00  0.00    +0.000 N 
ATOM     12  H   UNL     1       1.866   5.808  20.011  0.00  0.00    +0.000 HD
ENDBRANCH   1   2
BRANCH   1  17
ATOM     13  C   UNL     1       8.803   9.962  18.329  0.00  0.00    +0.000 C 
ATOM     14  C   UNL     1       8.113   8.646  18.136  0.00  0.00    +0.000 A 
ATOM     15  C   UNL     1       7.050   8.486  17.243  0.00  0.00    +0.000 A 
ATOM     16  C   UNL     1       6.339   7.276  17.185  0.00  0.00    +0.000 A 
ATOM     17  C   UNL     1       6.697   6.181  17.996  0.00  0.00    +0.000 A 
ATOM     18  C   UNL     1       7.832   6.325  18.828  0.00  0.00    +0.000 A 
ATOM     19  C   UNL     1       8.366   5.181  19.638  0.00  0.00    +0.000 C 
ATOM     20  C   UNL     1       8.497   7.556  18.918  0.00  0.00    +0.000 A 
ENDBRANCH   1  17
BRANCH   1  21
ATOM     21  C   UNL     1       5.042   4.592  16.864  0.00  0.00    +0.000 C 
ATOM     22  C   UNL     1       5.572   4.816  15.463  0.00  0.00    +0.000 C 
ATOM     23  C   UNL     1       5.494   3.423  16.009  0.00  0.00    +0.000 C 
ENDBRANCH   1  21
TORSDOF 3
ENDMDL
MODEL 9
REMARK VINA RESULT:      -6.4      2.338      6.119
REMARK  Name = 
REMARK  5 active torsions:
REMARK  status: ('A' for Active; 'I' for Inactive)
REMARK    1  A    between atoms: C_1  and  C_2
REMARK    2  A    between atoms: C_5  and  C_6
REMARK    3  A    between atoms: C_6  and  N_7
REMARK    4  A    between atoms: C_6  and  C_17
REMARK    5  A    between atoms: C_20  and  C_21
REMARK                            x       y       z     vdW  Elec       q    Type
REMARK                         _______ _______ _______ _____ _____    ______ ____
ROOT
ATOM      1  C   UNL     1       2.853   7.794  18.252  0.00  0.00    +0.000 C 
ENDROOT
BRANCH   1   2
ATOM      2  N   UNL     1       3.913   7.519  17.280  0.00  0.00    +0.000 NA
ATOM      3  C   UNL     1       4.957   6.793  17.462  0.00  0.00    +0.000 C 
ATOM      4  C   UNL     1       5.330   6.040  18.745  0.00  0.00    +0.000 C 
ATOM      5  C   UNL     1       5.838   4.587  18.566  0.00  0.00    +0.000 C 
ATOM      6  C   UNL     1       4.933   3.596  17.812  0.00  0.00    +0.000 C 
ATOM      7  C   UNL     1       5.537   2.947  16.560  0.00  0.00    +0.000 C 
ATOM      8  C   UNL     1       6.035   3.909  15.478  0.00  0.00    +0.000 C 
ATOM      9  C   UNL     1       4.990   4.936  15.009  0.00  0.00    +0.000 C 
ATOM     10  C   UNL     1       5.491   6.382  15.090  0.00  0.00    +0.000 C 
ATOM     11  N   UNL     1       5.899   6.709  16.452  0.00  0.00    +0.000 N 
ATOM     12  H   UNL     1       6.774   6.264  16.708  0.00  0.00    +0.000 HD
ENDBRANCH   1   2
BRANCH   1  17
ATOM     13  C   UNL     1       0.982   2.563  20.100  0.00  0.00    +0.000 C 
ATOM     14  C   UNL     1       1.315   3.926  19.572  0.00  0.00    +0.000 A 
ATOM     15  C   UNL     1       1.509   4.170  18.210  0.00  0.00    +0.000 A 
ATOM     16  C   UNL     1       1.952   5.425  17.763  0.00  0.00    +0.000 A 
ATOM     17  C   UNL     1       2.179   6.483  18.667  0.00  0.00    +0.000 A 
ATOM     18  C   UNL     1       1.890   6.250  20.033  0.00  0.00    +0.000 A 
ATOM     19  C   UNL     1       1.983   7.343  21.055  0.00  0.00    +0.000 C 
ATOM     20  C   UNL     1       1.504   4.975  20.472  0.00  0.00    +0.000 A 
ENDBRANCH   1  17
BRANCH   1  21
ATOM     21  C   UNL     1       1.921   8.792  17.598  0.00  0.00    +0.000 C 
ATOM     22  C   UNL     1       0.687   9.347  18.280  0.00  0.00    +0.000 C 
ATOM     23  C   UNL     1       1.898  10.215  18.123  0.00  0.00    +0.000 C 
ENDBRANCH   1  21
TORSDOF 3
ENDMDL
