MODEL 1
REMARK VINA RESULT:      -8.7      0.000      0.000
REMARK  Name = 
REMARK  6 active torsions:
REMARK  status: ('A' for Active; 'I' for Inactive)
REMARK    1  A    between atoms: C_2  and  CA_4
REMARK    2  A    between atoms: C_8  and  C_9
REMARK    3  A    between atoms: C_9  and  C_10
REMARK    4  A    between atoms: C_16  and  O_17
REMARK    5  A    between atoms: O_17  and  C_18
REMARK    6  A    between atoms: C_18  and  C_19
REMARK                            x       y       z     vdW  Elec       q    Type
REMARK                         _______ _______ _______ _____ _____    ______ ____
ROOT
ATOM      1  C   UNL     1       4.143   5.807  17.941  0.00  0.00    +0.000 A 
ATOM      2  C   UNL     1       5.290   6.623  18.065  0.00  0.00    +0.000 A 
ATOM      3  C   UNL     1       6.383   6.520  17.209  0.00  0.00    +0.000 A 
ATOM      4 CL   UNL     1       7.748   7.544  17.431  0.00  0.00    +0.000 Cl
ATOM      5  C   UNL     1       6.367   5.596  16.182  0.00  0.00    +0.000 A 
ATOM      6  C   UNL     1       5.277   4.737  16.065  0.00  0.00    +0.000 A 
ATOM      7  C   UNL     1       4.193   4.779  16.968  0.00  0.00    +0.000 A 
ENDROOT
BRANCH   1   8
ATOM      8  C   UNL     1       2.951   6.009  18.886  0.00  0.00    +0.000 C 
BRANCH   8  13
ATOM      9  CA  UNL     1       1.184   9.076  20.161  0.00  0.00    +0.000 A 
ATOM     10  C   UNL     1       1.070   9.867  19.019  0.00  0.00    +0.000 A 
ATOM     11  C   UNL     1       1.710   9.467  17.857  0.00  0.00    +0.000 A 
ATOM     12  C   UNL     1       2.417   8.276  17.859  0.00  0.00    +0.000 A 
ATOM     13  C   UNL     1       2.354   7.424  18.967  0.00  0.00    +0.000 A 
ATOM     14  N   UNL     1       1.774   7.835  20.127  0.00  0.00    +0.000 NA
BRANCH   9  16
ATOM     15  O   UNL     1      -0.379  10.235  21.686  0.00  0.00    +0.000 OA
ATOM     16  C   UNL     1       0.787   9.740  21.472  0.00  0.00    +0.000 C 
ATOM     17  OXT UNL     1       1.572   9.670  22.489  0.00  0.00    +0.000 OA
ENDBRANCH   9  16
ENDBRANCH   8  13
ENDBRANCH   1   8
BRANCH   7  18
ATOM     18  O   UNL     1       3.189   3.823  16.948  0.00  0.00    +0.000 OA
BRANCH  18  19
ATOM     19  C   UNL     1       3.476   2.651  17.741  0.00  0.00    +0.000 C 
BRANCH  19  20
ATOM     20  C   UNL     1       2.815   2.630  19.098  0.00  0.00    +0.000 A 
ATOM     21  C   UNL     1       3.542   2.529  20.284  0.00  0.00    +0.000 A 
ATOM     22  C   UNL     1       2.891   2.598  21.521  0.00  0.00    +0.000 A 
ATOM     23  C   UNL     1       1.508   2.778  21.585  0.00  0.00    +0.000 A 
ATOM     24  C   UNL     1       0.774   2.905  20.411  0.00  0.00    +0.000 A 
ATOM     25  C   UNL     1       1.429   2.840  19.182  0.00  0.00    +0.000 A 
ATOM     26  F   UNL     1       0.709   3.004  18.064  0.00  0.00    +0.000 F 
ENDBRANCH  19  20
ENDBRANCH  18  19
ENDBRANCH   7  18
TORSDOF 6
ENDMDL
MODEL 2
REMARK VINA RESULT:      -8.6      1.488      2.089
REMARK  Name = 
REMARK  6 active torsions:
REMARK  status: ('A' for Active; 'I' for Inactive)
REMARK    1  A    between atoms: C_2  and  CA_4
REMARK    2  A    between atoms: C_8  and  C_9
REMARK    3  A    between atoms: C_9  and  C_10
REMARK    4  A    between atoms: C_16  and  O_17
REMARK    5  A    between atoms: O_17  and  C_18
REMARK    6  A    between atoms: C_18  and  C_19
REMARK                            x       y       z     vdW  Elec       q    Type
REMARK                         _______ _______ _______ _____ _____    ______ ____
ROOT
ATOM      1  C   UNL     1       4.726   6.309  17.306  0.00  0.00    +0.000 A 
ATOM      2  C   UNL     1       5.842   7.011  17.816  0.00  0.00    +0.000 A 
ATOM      3  C   UNL     1       7.092   6.420  17.982  0.00  0.00    +0.000 A 
ATOM      4 CL   UNL     1       8.399   7.339  18.618  0.00  0.00    +0.000 Cl
ATOM      5  C   UNL     1       7.278   5.097  17.631  0.00  0.00    +0.000 A 
ATOM      6  C   UNL     1       6.187   4.359  17.179  0.00  0.00    +0.000 A 
ATOM      7  C   UNL     1       4.897   4.923  17.074  0.00  0.00    +0.000 A 
ENDROOT
BRANCH   1   8
ATOM      8  C   UNL     1       3.391   7.035  17.101  0.00  0.00    +0.000 C 
BRANCH   8  13
ATOM      9  CA  UNL     1       1.389   8.988  19.618  0.00  0.00    +0.000 A 
ATOM     10  C   UNL     1       1.387   8.151  20.732  0.00  0.00    +0.000 A 
ATOM     11  C   UNL     1       1.911   6.873  20.614  0.00  0.00    +0.000 A 
ATOM     12  C   UNL     1       2.448   6.480  19.399  0.00  0.00    +0.000 A 
ATOM     13  C   UNL     1       2.596   7.409  18.364  0.00  0.00    +0.000 A 
ATOM     14  N   UNL     1       2.037   8.646  18.454  0.00  0.00    +0.000 NA
BRANCH   9  16
ATOM     15  O   UNL     1       0.665  11.270  19.003  0.00  0.00    +0.000 OA
ATOM     16  C   UNL     1       0.483  10.208  19.702  0.00  0.00    +0.000 C 
ATOM     17  OXT UNL     1      -0.615  10.145  20.369  0.00  0.00    +0.000 OA
ENDBRANCH   9  16
ENDBRANCH   8  13
ENDBRANCH   1   8
BRANCH   7  18
ATOM     18  O   UNL     1       3.785   4.149  16.778  0.00  0.00    +0.000 OA
BRANCH  18  19
ATOM     19  C   UNL     1       3.706   2.919  17.530  0.00  0.00    +0.000 C 
BRANCH  19  20
ATOM     20  C   UNL     1       2.847   2.991  18.769  0.00  0.00    +0.000 A 
ATOM     21  C   UNL     1       1.455   3.069  18.711  0.00  0.00    +0.000 A 
ATOM     22  C   UNL     1       0.697   3.049  19.887  0.00  0.00    +0.000 A 
ATOM     23  C   UNL     1       1.320   2.942  21.132  0.00  0.00    +0.000 A 
ATOM     24  C   UNL     1       2.705   2.839  21.202  0.00  0.00    +0.000 A 
ATOM     25  C   UNL     1       3.455   2.854  20.028  0.00  0.00    +0.000 A 
ATOM     26  F   UNL     1       4.785   2.714  20.115  0.00  0.00    +0.000 F 
ENDBRANCH  19  20
ENDBRANCH  18  19
ENDBRANCH   7  18
TORSDOF 6
ENDMDL
MODEL 3
REMARK VINA RESULT:      -8.6      0.998      1.372
REMARK  Name = 
REMARK  6 active torsions:
REMARK  status: ('A' for Active; 'I' for Inactive)
REMARK    1  A    between atoms: C_2  and  CA_4
REMARK    2  A    between atoms: C_8  and  C_9
REMARK    3  A    between atoms: C_9  and  C_10
REMARK    4  A    between atoms: C_16  and  O_17
REMARK    5  A    between atoms: O_17  and  C_18
REMARK    6  A    between atoms: C_18  and  C_19
REMARK                            x       y       z     vdW  Elec       q    Type
REMARK                         _______ _______ _______ _____ _____    ______ ____
ROOT
ATOM      1  C   UNL     1       4.115   5.839  17.885  0.00  0.00    +0.000 A 
ATOM      2  C   UNL     1       5.262   6.644  18.063  0.00  0.00    +0.000 A 
ATOM      3  C   UNL     1       6.382   6.553  17.240  0.00  0.00    +0.000 A 
ATOM      4 CL   UNL     1       7.744   7.563  17.528  0.00  0.00    +0.000 Cl
ATOM      5  C   UNL     1       6.393   5.652  16.193  0.00  0.00    +0.000 A 
ATOM      6  C   UNL     1       5.303   4.802  16.024  0.00  0.00    +0.000 A 
ATOM      7  C   UNL     1       4.190   4.832  16.892  0.00  0.00    +0.000 A 
ENDROOT
BRANCH   1   8
ATOM      8  C   UNL     1       2.895   6.028  18.796  0.00  0.00    +0.000 C 
BRANCH   8  13
ATOM      9  CA  UNL     1       1.204   9.108  20.141  0.00  0.00    +0.000 A 
ATOM     10  C   UNL     1       1.055   9.903  19.006  0.00  0.00    +0.000 A 
ATOM     11  C   UNL     1       1.648   9.500  17.820  0.00  0.00    +0.000 A 
ATOM     12  C   UNL     1       2.344   8.302  17.794  0.00  0.00    +0.000 A 
ATOM     13  C   UNL     1       2.314   7.449  18.901  0.00  0.00    +0.000 A 
ATOM     14  N   UNL     1       1.781   7.861  20.083  0.00  0.00    +0.000 NA
BRANCH   9  16
ATOM     15  O   UNL     1       0.991  11.033  21.678  0.00  0.00    +0.000 OA
ATOM     16  C   UNL     1       0.861   9.772  21.467  0.00  0.00    +0.000 C 
ATOM     17  OXT UNL     1       0.257   9.100  22.382  0.00  0.00    +0.000 OA
ENDBRANCH   9  16
ENDBRANCH   8  13
ENDBRANCH   1   8
BRANCH   7  18
ATOM     18  O   UNL     1       3.182   3.883  16.819  0.00  0.00    +0.000 OA
BRANCH  18  19
ATOM     19  C   UNL     1       3.396   2.731  17.663  0.00  0.00    +0.000 C 
BRANCH  19  20
ATOM     20  C   UNL     1       2.698   2.790  19.000  0.00  0.00    +0.000 A 
ATOM     21  C   UNL     1       1.308   2.811  19.120  0.00  0.00    +0.000 A 
ATOM     22  C   UNL     1       0.707   2.782  20.383  0.00  0.00    +0.000 A 
ATOM     23  C   UNL     1       1.487   2.721  21.539  0.00  0.00    +0.000 A 
ATOM     24  C   UNL     1       2.872   2.674  21.433  0.00  0.00    +0.000 A 
ATOM     25  C   UNL     1       3.466   2.699  20.173  0.00  0.00    +0.000 A 
ATOM     26  F   UNL     1       4.801   2.614  20.092  0.00  0.00    +0.000 F 
ENDBRANCH  19  20
ENDBRANCH  18  19
ENDBRANCH   7  18
TORSDOF 6
ENDMDL
MODEL 4
REMARK VINA RESULT:      -8.5      3.273      7.233
REMARK  Name = 
REMARK  6 active torsions:
REMARK  status: ('A' for Active; 'I' for Inactive)
REMARK    1  A    between atoms: C_2  and  CA_4
REMARK    2  A    between atoms: C_8  and  C_9
REMARK    3  A    between atoms: C_9  and  C_10
REMARK    4  A    between atoms: C_16  and  O_17
REMARK    5  A    between atoms: O_17  and  C_18
REMARK    6  A    between atoms: C_18  and  C_19
REMARK                            x       y       z     vdW  Elec       q    Type
REMARK                         _______ _______ _______ _____ _____    ______ ____
ROOT
ATOM      1  C   UNL     1       2.775   5.713  18.745  0.00  0.00    +0.000 A 
ATOM      2  C   UNL     1       2.634   4.319  18.562  0.00  0.00    +0.000 A 
ATOM      3  C   UNL     1       1.799   3.536  19.354  0.00  0.00    +0.000 A 
ATOM      4 CL   UNL     1       1.688   1.842  19.074  0.00  0.00    +0.000 Cl
ATOM      5  C   UNL     1       1.059   4.124  20.362  0.00  0.00    +0.000 A 
ATOM      6  C   UNL     1       1.217   5.485  20.608  0.00  0.00    +0.000 A 
ATOM      7  C   UNL     1       2.114   6.280  19.861  0.00  0.00    +0.000 A 
ENDROOT
BRANCH   1   8
ATOM      8  C   UNL     1       3.674   6.524  17.802  0.00  0.00    +0.000 C 
BRANCH   8  13
ATOM      9  CA  UNL     1       6.476   4.922  15.869  0.00  0.00    +0.000 A 
ATOM     10  C   UNL     1       7.398   4.601  16.864  0.00  0.00    +0.000 A 
ATOM     11  C   UNL     1       7.175   5.048  18.157  0.00  0.00    +0.000 A 
ATOM     12  C   UNL     1       6.025   5.774  18.424  0.00  0.00    +0.000 A 
ATOM     13  C   UNL     1       5.040   5.916  17.442  0.00  0.00    +0.000 A 
ATOM     14  N   UNL     1       5.276   5.527  16.160  0.00  0.00    +0.000 NA
BRANCH   9  16
ATOM     15  O   UNL     1       6.388   3.930  13.606  0.00  0.00    +0.000 OA
ATOM     16  C   UNL     1       6.952   4.732  14.436  0.00  0.00    +0.000 C 
ATOM     17  OXT UNL     1       7.851   5.514  13.952  0.00  0.00    +0.000 OA
ENDBRANCH   9  16
ENDBRANCH   8  13
ENDBRANCH   1   8
BRANCH   7  18
ATOM     18  O   UNL     1       2.388   7.594  20.209  0.00  0.00    +0.000 OA
BRANCH  18  19
ATOM     19  C   UNL     1       1.397   8.541  19.755  0.00  0.00    +0.000 C 
BRANCH  19  20
ATOM     20  C   UNL     1       0.617   9.214  20.857  0.00  0.00    +0.000 A 
ATOM     21  C   UNL     1       0.718   8.824  22.193  0.00  0.00    +0.000 A 
ATOM     22  C   UNL     1       0.038   9.532  23.190  0.00  0.00    +0.000 A 
ATOM     23  C   UNL     1      -0.741  10.644  22.865  0.00  0.00    +0.000 A 
ATOM     24  C   UNL     1      -0.831  11.059  21.541  0.00  0.00    +0.000 A 
ATOM     25  C   UNL     1      -0.148  10.353  20.552  0.00  0.00    +0.000 A 
ATOM     26  F   UNL     1      -0.216  10.793  19.288  0.00  0.00    +0.000 F 
ENDBRANCH  19  20
ENDBRANCH  18  19
ENDBRANCH   7  18
TORSDOF 6
ENDMDL
MODEL 5
REMARK VINA RESULT:      -8.5      1.194      1.623
REMARK  Name = 
REMARK  6 active torsions:
REMARK  status: ('A' for Active; 'I' for Inactive)
REMARK    1  A    between atoms: C_2  and  CA_4
REMARK    2  A    between atoms: C_8  and  C_9
REMARK    3  A    between atoms: C_9  and  C_10
REMARK    4  A    between atoms: C_16  and  O_17
REMARK    5  A    between atoms: O_17  and  C_18
REMARK    6  A    between atoms: C_18  and  C_19
REMARK                            x       y       z     vdW  Elec       q    Type
REMARK                         _______ _______ _______ _____ _____    ______ ____
ROOT
ATOM      1  C   UNL     1       4.684   6.413  17.325  0.00  0.00    +0.000 A 
ATOM      2  C   UNL     1       5.816   7.138  17.761  0.00  0.00    +0.000 A 
ATOM      3  C   UNL     1       7.065   6.547  17.941  0.00  0.00    +0.000 A 
ATOM      4 CL   UNL     1       8.393   7.496  18.484  0.00  0.00    +0.000 Cl
ATOM      5  C   UNL     1       7.232   5.201  17.680  0.00  0.00    +0.000 A 
ATOM      6  C   UNL     1       6.125   4.445  17.304  0.00  0.00    +0.000 A 
ATOM      7  C   UNL     1       4.837   5.012  17.187  0.00  0.00    +0.000 A 
ENDROOT
BRANCH   1   8
ATOM      8  C   UNL     1       3.350   7.136  17.097  0.00  0.00    +0.000 C 
BRANCH   8  13
ATOM      9  CA  UNL     1       1.271   9.109  19.534  0.00  0.00    +0.000 A 
ATOM     10  C   UNL     1       1.319   8.329  20.688  0.00  0.00    +0.000 A 
ATOM     11  C   UNL     1       1.904   7.074  20.628  0.00  0.00    +0.000 A 
ATOM     12  C   UNL     1       2.452   6.649  19.429  0.00  0.00    +0.000 A 
ATOM     13  C   UNL     1       2.546   7.532  18.348  0.00  0.00    +0.000 A 
ATOM     14  N   UNL     1       1.927   8.743  18.383  0.00  0.00    +0.000 NA
BRANCH   9  16
ATOM     15  O   UNL     1      -0.667  10.376  20.401  0.00  0.00    +0.000 OA
ATOM     16  C   UNL     1       0.306  10.286  19.568  0.00  0.00    +0.000 C 
ATOM     17  OXT UNL     1       0.547  11.331  18.857  0.00  0.00    +0.000 OA
ENDBRANCH   9  16
ENDBRANCH   8  13
ENDBRANCH   1   8
BRANCH   7  18
ATOM     18  O   UNL     1       3.713   4.231  16.969  0.00  0.00    +0.000 OA
BRANCH  18  19
ATOM     19  C   UNL     1       3.732   2.965  17.665  0.00  0.00    +0.000 C 
BRANCH  19  20
ATOM     20  C   UNL     1       2.933   2.938  18.945  0.00  0.00    +0.000 A 
ATOM     21  C   UNL     1       3.514   2.669  20.185  0.00  0.00    +0.000 A 
ATOM     22  C   UNL     1       2.748   2.737  21.354  0.00  0.00    +0.000 A 
ATOM     23  C   UNL     1       1.397   3.084  21.298  0.00  0.00    +0.000 A 
ATOM     24  C   UNL     1       0.812   3.379  20.073  0.00  0.00    +0.000 A 
ATOM     25  C   UNL     1       1.580   3.314  18.911  0.00  0.00    +0.000 A 
ATOM     26  F   UNL     1       1.007   3.641  17.745  0.00  0.00    +0.000 F 
ENDBRANCH  19  20
ENDBRANCH  18  19
ENDBRANCH   7  18
TORSDOF 6
ENDMDL
MODEL 6
REMARK VINA RESULT:      -8.4      2.496      4.501
REMARK  Name = 
REMARK  6 active torsions:
REMARK  status: ('A' for Active; 'I' for Inactive)
REMARK    1  A    between atoms: C_2  and  CA_4
REMARK    2  A    between atoms: C_8  and  C_9
REMARK    3  A    between atoms: C_9  and  C_10
REMARK    4  A    between atoms: C_16  and  O_17
REMARK    5  A    between atoms: O_17  and  C_18
REMARK    6  A    between atoms: C_18  and  C_19
REMARK                            x       y       z     vdW  Elec       q    Type
REMARK                         _______ _______ _______ _____ _____    ______ ____
ROOT
ATOM      1  C   UNL     1       2.928   4.833  19.377  0.00  0.00    +0.000 A 
ATOM      2  C   UNL     1       2.320   4.301  20.536  0.00  0.00    +0.000 A 
ATOM      3  C   UNL     1       1.774   3.020  20.581  0.00  0.00    +0.000 A 
ATOM      4 CL   UNL     1       1.043   2.448  22.028  0.00  0.00    +0.000 Cl
ATOM      5  C   UNL     1       1.825   2.214  19.460  0.00  0.00    +0.000 A 
ATOM      6  C   UNL     1       2.365   2.726  18.284  0.00  0.00    +0.000 A 
ATOM      7  C   UNL     1       2.857   4.047  18.201  0.00  0.00    +0.000 A 
ENDROOT
BRANCH   1   8
ATOM      8  C   UNL     1       3.556   6.232  19.413  0.00  0.00    +0.000 C 
BRANCH   8  13
ATOM      9  CA  UNL     1       1.019   8.868  20.289  0.00  0.00    +0.000 A 
ATOM     10  C   UNL     1       0.704   9.422  19.049  0.00  0.00    +0.000 A 
ATOM     11  C   UNL     1       1.437   9.041  17.936  0.00  0.00    +0.000 A 
ATOM     12  C   UNL     1       2.439   8.096  18.087  0.00  0.00    +0.000 A 
ATOM     13  C   UNL     1       2.599   7.432  19.308  0.00  0.00    +0.000 A 
ATOM     14  N   UNL     1       1.921   7.839  20.415  0.00  0.00    +0.000 NA
BRANCH   9  16
ATOM     15  O   UNL     1       0.776  10.784  21.832  0.00  0.00    +0.000 OA
ATOM     16  C   UNL     1       0.447   9.587  21.502  0.00  0.00    +0.000 C 
ATOM     17  OXT UNL     1      -0.534   9.066  22.152  0.00  0.00    +0.000 OA
ENDBRANCH   9  16
ENDBRANCH   8  13
ENDBRANCH   1   8
BRANCH   7  18
ATOM     18  O   UNL     1       3.246   4.606  16.994  0.00  0.00    +0.000 OA
BRANCH  18  19
ATOM     19  C   UNL     1       4.588   4.258  16.588  0.00  0.00    +0.000 C 
BRANCH  19  20
ATOM     20  C   UNL     1       5.671   5.126  17.180  0.00  0.00    +0.000 A 
ATOM     21  C   UNL     1       6.628   4.630  18.066  0.00  0.00    +0.000 A 
ATOM     22  C   UNL     1       7.662   5.455  18.523  0.00  0.00    +0.000 A 
ATOM     23  C   UNL     1       7.758   6.779  18.091  0.00  0.00    +0.000 A 
ATOM     24  C   UNL     1       6.826   7.278  17.189  0.00  0.00    +0.000 A 
ATOM     25  C   UNL     1       5.800   6.452  16.734  0.00  0.00    +0.000 A 
ATOM     26  F   UNL     1       4.935   6.941  15.834  0.00  0.00    +0.000 F 
ENDBRANCH  19  20
ENDBRANCH  18  19
ENDBRANCH   7  18
TORSDOF 6
ENDMDL
MODEL 7
REMARK VINA RESULT:      -8.3      4.196      6.583
REMARK  Name = 
REMARK  6 active torsions:
REMARK  status: ('A' for Active; 'I' for Inactive)
REMARK    1  A    between atoms: C_2  and  CA_4
REMARK    2  A    between atoms: C_8  and  C_9
REMARK    3  A    between atoms: C_9  and  C_10
REMARK    4  A    between atoms: C_16  and  O_17
REMARK    5  A    between atoms: O_17  and  C_18
REMARK    6  A    between atoms: C_18  and  C_19
REMARK                            x       y       z     vdW  Elec       q    Type
REMARK                         _______ _______ _______ _____ _____    ______ ____
ROOT
ATOM      1  C   UNL     1       6.338   5.940  17.105  0.00  0.00    +0.000 A 
ATOM      2  C   UNL     1       6.869   7.247  17.026  0.00  0.00    +0.000 A 
ATOM      3  C   UNL     1       7.800   7.738  17.938  0.00  0.00    +0.000 A 
ATOM      4 CL   UNL     1       8.392   9.346  17.779  0.00  0.00    +0.000 Cl
ATOM      5  C   UNL     1       8.246   6.931  18.966  0.00  0.00    +0.000 A 
ATOM      6  C   UNL     1       7.702   5.658  19.108  0.00  0.00    +0.000 A 
ATOM      7  C   UNL     1       6.705   5.170  18.236  0.00  0.00    +0.000 A 
ENDROOT
BRANCH   1   8
ATOM      8  C   UNL     1       5.355   5.444  16.037  0.00  0.00    +0.000 C 
BRANCH   8  13
ATOM      9  CA  UNL     1       5.871   3.591  12.804  0.00  0.00    +0.000 A 
ATOM     10  C   UNL     1       7.156   3.975  12.425  0.00  0.00    +0.000 A 
ATOM     11  C   UNL     1       7.802   4.966  13.148  0.00  0.00    +0.000 A 
ATOM     12  C   UNL     1       7.160   5.520  14.244  0.00  0.00    +0.000 A 
ATOM     13  C   UNL     1       5.953   4.980  14.698  0.00  0.00    +0.000 A 
ATOM     14  N   UNL     1       5.289   4.046  13.963  0.00  0.00    +0.000 NA
BRANCH   9  16
ATOM     15  O   UNL     1       4.020   3.228  11.205  0.00  0.00    +0.000 OA
ATOM     16  C   UNL     1       5.086   2.791  11.773  0.00  0.00    +0.000 C 
ATOM     17  OXT UNL     1       5.575   1.697  11.306  0.00  0.00    +0.000 OA
ENDBRANCH   9  16
ENDBRANCH   8  13
ENDBRANCH   1   8
BRANCH   7  18
ATOM     18  O   UNL     1       6.052   3.970  18.472  0.00  0.00    +0.000 OA
BRANCH  18  19
ATOM     19  C   UNL     1       5.074   4.030  19.532  0.00  0.00    +0.000 C 
BRANCH  19  20
ATOM     20  C   UNL     1       3.694   3.557  19.145  0.00  0.00    +0.000 A 
ATOM     21  C   UNL     1       3.476   2.657  18.102  0.00  0.00    +0.000 A 
ATOM     22  C   UNL     1       2.187   2.184  17.834  0.00  0.00    +0.000 A 
ATOM     23  C   UNL     1       1.103   2.597  18.612  0.00  0.00    +0.000 A 
ATOM     24  C   UNL     1       1.310   3.474  19.670  0.00  0.00    +0.000 A 
ATOM     25  C   UNL     1       2.597   3.939  19.935  0.00  0.00    +0.000 A 
ATOM     26  F   UNL     1       2.780   4.754  20.984  0.00  0.00    +0.000 F 
ENDBRANCH  19  20
ENDBRANCH  18  19
ENDBRANCH   7  18
TORSDOF 6
ENDMDL
MODEL 8
REMARK VINA RESULT:      -8.3      3.308      7.398
REMARK  Name = 
REMARK  6 active torsions:
REMARK  status: ('A' for Active; 'I' for Inactive)
REMARK    1  A    between atoms: C_2  and  CA_4
REMARK    2  A    between atoms: C_8  and  C_9
REMARK    3  A    between atoms: C_9  and  C_10
REMARK    4  A    between atoms: C_16  and  O_17
REMARK    5  A    between atoms: O_17  and  C_18
REMARK    6  A    between atoms: C_18  and  C_19
REMARK                            x       y       z     vdW  Elec       q    Type
REMARK                         _______ _______ _______ _____ _____    ______ ____
ROOT
ATOM      1  C   UNL     1       2.825   5.660  18.799  0.00  0.00    +0.000 A 
ATOM      2  C   UNL     1       2.811   4.258  18.629  0.00  0.00    +0.000 A 
ATOM      3  C   UNL     1       1.984   3.417  19.370  0.00  0.00    +0.000 A 
ATOM      4 CL   UNL     1       2.032   1.717  19.111  0.00  0.00    +0.000 Cl
ATOM      5  C   UNL     1       1.125   3.954  20.310  0.00  0.00    +0.000 A 
ATOM      6  C   UNL     1       1.154   5.326  20.544  0.00  0.00    +0.000 A 
ATOM      7  C   UNL     1       2.037   6.184  19.853  0.00  0.00    +0.000 A 
ENDROOT
BRANCH   1   8
ATOM      8  C   UNL     1       3.724   6.532  17.912  0.00  0.00    +0.000 C 
BRANCH   8  13
ATOM      9  CA  UNL     1       6.480   4.982  15.872  0.00  0.00    +0.000 A 
ATOM     10  C   UNL     1       7.436   4.660  16.834  0.00  0.00    +0.000 A 
ATOM     11  C   UNL     1       7.250   5.090  18.138  0.00  0.00    +0.000 A 
ATOM     12  C   UNL     1       6.102   5.800  18.450  0.00  0.00    +0.000 A 
ATOM     13  C   UNL     1       5.085   5.942  17.502  0.00  0.00    +0.000 A 
ATOM     14  N   UNL     1       5.283   5.571  16.208  0.00  0.00    +0.000 NA
BRANCH   9  16
ATOM     15  O   UNL     1       7.868   5.486  13.889  0.00  0.00    +0.000 OA
ATOM     16  C   UNL     1       6.912   4.813  14.422  0.00  0.00    +0.000 C 
ATOM     17  OXT UNL     1       6.432   3.849  13.720  0.00  0.00    +0.000 OA
ENDBRANCH   9  16
ENDBRANCH   8  13
ENDBRANCH   1   8
BRANCH   7  18
ATOM     18  O   UNL     1       2.177   7.519  20.197  0.00  0.00    +0.000 OA
BRANCH  18  19
ATOM     19  C   UNL     1       1.371   7.924  21.325  0.00  0.00    +0.000 C 
BRANCH  19  20
ATOM     20  C   UNL     1       0.647   9.235  21.144  0.00  0.00    +0.000 A 
ATOM     21  C   UNL     1       0.326   9.747  19.886  0.00  0.00    +0.000 A 
ATOM     22  C   UNL     1      -0.419  10.926  19.772  0.00  0.00    +0.000 A 
ATOM     23  C   UNL     1      -0.860  11.600  20.912  0.00  0.00    +0.000 A 
ATOM     24  C   UNL     1      -0.568  11.089  22.171  0.00  0.00    +0.000 A 
ATOM     25  C   UNL     1       0.171   9.912  22.280  0.00  0.00    +0.000 A 
ATOM     26  F   UNL     1       0.407   9.415  23.502  0.00  0.00    +0.000 F 
ENDBRANCH  19  20
ENDBRANCH  18  19
ENDBRANCH   7  18
TORSDOF 6
ENDMDL
MODEL 9
REMARK VINA RESULT:      -8.3      2.644      4.596
REMARK  Name = 
REMARK  6 active torsions:
REMARK  status: ('A' for Active; 'I' for Inactive)
REMARK    1  A    between atoms: C_2  and  CA_4
REMARK    2  A    between atoms: C_8  and  C_9
REMARK    3  A    between atoms: C_9  and  C_10
REMARK    4  A    between atoms: C_16  and  O_17
REMARK    5  A    between atoms: O_17  and  C_18
REMARK    6  A    between atoms: C_18  and  C_19
REMARK                            x       y       z     vdW  Elec       q    Type
REMARK                         _______ _______ _______ _____ _____    ______ ____
ROOT
ATOM      1  C   UNL     1       3.001   5.550  18.692  0.00  0.00    +0.000 A 
ATOM      2  C   UNL     1       1.916   4.684  18.429  0.00  0.00    +0.000 A 
ATOM      3  C   UNL     1       1.805   3.420  19.004  0.00  0.00    +0.000 A 
ATOM      4 CL   UNL     1       0.457   2.420  18.626  0.00  0.00    +0.000 Cl
ATOM      5  C   UNL     1       2.778   2.976  19.878  0.00  0.00    +0.000 A 
ATOM      6  C   UNL     1       3.889   3.780  20.116  0.00  0.00    +0.000 A 
ATOM      7  C   UNL     1       4.053   5.033  19.486  0.00  0.00    +0.000 A 
ENDROOT
BRANCH   1   8
ATOM      8  C   UNL     1       3.034   6.950  18.066  0.00  0.00    +0.000 C 
BRANCH   8  13
ATOM      9  CA  UNL     1       1.004   8.888  20.571  0.00  0.00    +0.000 A 
ATOM     10  C   UNL     1       0.316   9.803  19.775  0.00  0.00    +0.000 A 
ATOM     11  C   UNL     1       0.632   9.893  18.429  0.00  0.00    +0.000 A 
ATOM     12  C   UNL     1       1.600   9.047  17.911  0.00  0.00    +0.000 A 
ATOM     13  C   UNL     1       2.132   8.023  18.700  0.00  0.00    +0.000 A 
ATOM     14  N   UNL     1       1.867   7.963  20.033  0.00  0.00    +0.000 NA
BRANCH   9  16
ATOM     15  O   UNL     1       1.863   9.469  22.815  0.00  0.00    +0.000 OA
ATOM     16  C   UNL     1       0.883   9.093  22.075  0.00  0.00    +0.000 C 
ATOM     17  OXT UNL     1      -0.275   9.060  22.635  0.00  0.00    +0.000 OA
ENDBRANCH   9  16
ENDBRANCH   8  13
ENDBRANCH   1   8
BRANCH   7  18
ATOM     18  O   UNL     1       5.229   5.758  19.599  0.00  0.00    +0.000 OA
BRANCH  18  19
ATOM     19  C   UNL     1       6.356   5.161  18.921  0.00  0.00    +0.000 C 
BRANCH  19  20
ATOM     20  C   UNL     1       6.193   5.025  17.427  0.00  0.00    +0.000 A 
ATOM     21  C   UNL     1       6.005   3.791  16.803  0.00  0.00    +0.000 A 
ATOM     22  C   UNL     1       5.776   3.724  15.424  0.00  0.00    +0.000 A 
ATOM     23  C   UNL     1       5.721   4.889  14.656  0.00  0.00    +0.000 A 
ATOM     24  C   UNL     1       5.883   6.126  15.269  0.00  0.00    +0.000 A 
ATOM     25  C   UNL     1       6.107   6.188  16.643  0.00  0.00    +0.000 A 
ATOM     26  F   UNL     1       6.220   7.392  17.220  0.00  0.00    +0.000 F 
ENDBRANCH  19  20
ENDBRANCH  18  19
ENDBRANCH   7  18
TORSDOF 6
ENDMDL
