MODEL 1
REMARK VINA RESULT:      -7.2      0.000      0.000
REMARK  Name = 
REMARK  9 active torsions:
REMARK  status: ('A' for Active; 'I' for Inactive)
REMARK    1  A    between atoms: C_1  and  C_2
REMARK    2  A    between atoms: C_6  and  C_7
REMARK    3  A    between atoms: C_7  and  N_9
REMARK    4  A    between atoms: N_9  and  C_10
REMARK    5  A    between atoms: C_15  and  C_16
REMARK    6  A    between atoms: N_17  and  O_18
REMARK    7  A    between atoms: O_18  and  C_19
REMARK    8  A    between atoms: C_19  and  C_20
REMARK    9  A    between atoms: C_19  and  C_21
REMARK                            x       y       z     vdW  Elec       q    Type
REMARK                         _______ _______ _______ _____ _____    ______ ____
ROOT
ATOM      1  C   UNL     1       2.571   7.142  19.495  0.00  0.00    +0.000 A 
ATOM      2  C   UNL     1       2.520   7.731  18.226  0.00  0.00    +0.000 A 
ATOM      3  C   UNL     1       1.785   8.890  17.996  0.00  0.00    +0.000 A 
ATOM      4  C   UNL     1       1.044   9.474  19.021  0.00  0.00    +0.000 A 
ATOM      5 CL   UNL     1       0.244  10.947  18.619  0.00  0.00    +0.000 Cl
ATOM      6  C   UNL     1       1.010   8.860  20.286  0.00  0.00    +0.000 A 
ATOM      7  C   UNL     1       1.799   7.704  20.519  0.00  0.00    +0.000 A 
ENDROOT
BRANCH   1   8
ATOM      8  N   UNL     1       3.471   6.067  19.741  0.00  0.00    +0.000 N 
ATOM      9  H   UNL     1       4.237   6.273  20.371  0.00  0.00    +0.000 HD
BRANCH   8  10
ATOM     10  C   UNL     1       3.509   4.858  19.038  0.00  0.00    +0.000 C 
ATOM     11  S   UNL     1       4.746   4.370  17.993  0.00  0.00    +0.000 S 
BRANCH  10  17
ATOM     12  C   UNL     1       2.174   3.362  21.762  0.00  0.00    +0.000 C 
ATOM     13  C   UNL     1       1.882   3.308  20.312  0.00  0.00    +0.000 A 
ATOM     14  O   UNL     1       0.874   2.437  20.002  0.00  0.00    +0.000 OA
ATOM     15  C   UNL     1       0.697   2.472  18.665  0.00  0.00    +0.000 A 
ATOM     16  C   UNL     1       1.581   3.359  18.102  0.00  0.00    +0.000 A 
ATOM     17  C   UNL     1       2.385   3.919  19.163  0.00  0.00    +0.000 A 
ENDBRANCH  10  17
ENDBRANCH   8  10
ENDBRANCH   1   8
BRANCH   6  18
ATOM     18  C   UNL     1       0.198   9.413  21.405  0.00  0.00    +0.000 C 
ATOM     19  N   UNL     1       0.693  10.378  22.153  0.00  0.00    +0.000 NA
BRANCH  19  20
ATOM     20  O   UNL     1      -0.232  10.821  23.105  0.00  0.00    +0.000 OA
BRANCH  20  21
ATOM     21  C   UNL     1      -1.167  11.691  22.434  0.00  0.00    +0.000 C 
ATOM     22  C   UNL     1      -2.432  11.886  23.270  0.00  0.00    +0.000 C 
ATOM     23  C   UNL     1      -0.504  13.040  22.179  0.00  0.00    +0.000 C 
ENDBRANCH  20  21
ENDBRANCH  19  20
ENDBRANCH   6  18
TORSDOF 6
ENDMDL
MODEL 2
REMARK VINA RESULT:      -7.1      3.631      5.575
REMARK  Name = 
REMARK  9 active torsions:
REMARK  status: ('A' for Active; 'I' for Inactive)
REMARK    1  A    between atoms: C_1  and  C_2
REMARK    2  A    between atoms: C_6  and  C_7
REMARK    3  A    between atoms: C_7  and  N_9
REMARK    4  A    between atoms: N_9  and  C_10
REMARK    5  A    between atoms: C_15  and  C_16
REMARK    6  A    between atoms: N_17  and  O_18
REMARK    7  A    between atoms: O_18  and  C_19
REMARK    8  A    between atoms: C_19  and  C_20
REMARK    9  A    between atoms: C_19  and  C_21
REMARK                            x       y       z     vdW  Elec       q    Type
REMARK                         _______ _______ _______ _____ _____    ______ ____
ROOT
ATOM      1  C   UNL     1       4.878   3.766  19.263  0.00  0.00    +0.000 A 
ATOM      2  C   UNL     1       4.235   2.526  19.352  0.00  0.00    +0.000 A 
ATOM      3  C   UNL     1       2.886   2.434  19.681  0.00  0.00    +0.000 A 
ATOM      4  C   UNL     1       2.148   3.579  19.970  0.00  0.00    +0.000 A 
ATOM      5 CL   UNL     1       0.472   3.327  20.285  0.00  0.00    +0.000 Cl
ATOM      6  C   UNL     1       2.785   4.832  19.969  0.00  0.00    +0.000 A 
ATOM      7  C   UNL     1       4.150   4.917  19.590  0.00  0.00    +0.000 A 
ENDROOT
BRANCH   1   8
ATOM      8  N   UNL     1       6.204   3.841  18.751  0.00  0.00    +0.000 N 
ATOM      9  H   UNL     1       6.822   3.085  19.023  0.00  0.00    +0.000 HD
BRANCH   8  10
ATOM     10  C   UNL     1       6.768   4.948  18.107  0.00  0.00    +0.000 C 
ATOM     11  S   UNL     1       7.731   6.127  18.844  0.00  0.00    +0.000 S 
BRANCH  10  17
ATOM     12  C   UNL     1       4.592   7.020  16.554  0.00  0.00    +0.000 C 
ATOM     13  C   UNL     1       5.571   6.015  16.082  0.00  0.00    +0.000 A 
ATOM     14  O   UNL     1       5.571   5.868  14.722  0.00  0.00    +0.000 OA
ATOM     15  C   UNL     1       6.495   4.935  14.410  0.00  0.00    +0.000 A 
ATOM     16  C   UNL     1       7.095   4.474  15.555  0.00  0.00    +0.000 A 
ATOM     17  C   UNL     1       6.499   5.160  16.677  0.00  0.00    +0.000 A 
ENDBRANCH  10  17
ENDBRANCH   8  10
ENDBRANCH   1   8
BRANCH   6  18
ATOM     18  C   UNL     1       2.058   6.083  20.317  0.00  0.00    +0.000 C 
ATOM     19  N   UNL     1       2.365   7.208  19.702  0.00  0.00    +0.000 NA
BRANCH  19  20
ATOM     20  O   UNL     1       1.535   8.261  20.102  0.00  0.00    +0.000 OA
BRANCH  20  21
ATOM     21  C   UNL     1       1.612   9.286  19.089  0.00  0.00    +0.000 C 
ATOM     22  C   UNL     1       1.629   8.674  17.689  0.00  0.00    +0.000 C 
ATOM     23  C   UNL     1       0.415  10.221  19.230  0.00  0.00    +0.000 C 
ENDBRANCH  20  21
ENDBRANCH  19  20
ENDBRANCH   6  18
TORSDOF 6
ENDMDL
MODEL 3
REMARK VINA RESULT:      -6.9      1.068      1.352
REMARK  Name = 
REMARK  9 active torsions:
REMARK  status: ('A' for Active; 'I' for Inactive)
REMARK    1  A    between atoms: C_1  and  C_2
REMARK    2  A    between atoms: C_6  and  C_7
REMARK    3  A    between atoms: C_7  and  N_9
REMARK    4  A    between atoms: N_9  and  C_10
REMARK    5  A    between atoms: C_15  and  C_16
REMARK    6  A    between atoms: N_17  and  O_18
REMARK    7  A    between atoms: O_18  and  C_19
REMARK    8  A    between atoms: C_19  and  C_20
REMARK    9  A    between atoms: C_19  and  C_21
REMARK                            x       y       z     vdW  Elec       q    Type
REMARK                         _______ _______ _______ _____ _____    ______ ____
ROOT
ATOM      1  C   UNL     1       2.472   7.287  19.173  0.00  0.00    +0.000 A 
ATOM      2  C   UNL     1       2.474   8.002  17.970  0.00  0.00    +0.000 A 
ATOM      3  C   UNL     1       1.825   9.228  17.857  0.00  0.00    +0.000 A 
ATOM      4  C   UNL     1       1.120   9.758  18.934  0.00  0.00    +0.000 A 
ATOM      5 CL   UNL     1       0.431  11.318  18.681  0.00  0.00    +0.000 Cl
ATOM      6  C   UNL     1       1.032   9.025  20.132  0.00  0.00    +0.000 A 
ATOM      7  C   UNL     1       1.734   7.798  20.248  0.00  0.00    +0.000 A 
ENDROOT
BRANCH   1   8
ATOM      8  N   UNL     1       3.291   6.131  19.312  0.00  0.00    +0.000 N 
ATOM      9  H   UNL     1       4.269   6.308  19.509  0.00  0.00    +0.000 HD
BRANCH   8  10
ATOM     10  C   UNL     1       2.915   4.822  18.991  0.00  0.00    +0.000 C 
ATOM     11  S   UNL     1       2.814   4.186  17.427  0.00  0.00    +0.000 S 
BRANCH  10  17
ATOM     12  C   UNL     1       4.544   2.161  20.297  0.00  0.00    +0.000 C 
ATOM     13  C   UNL     1       3.234   2.796  20.561  0.00  0.00    +0.000 A 
ATOM     14  O   UNL     1       2.508   2.145  21.520  0.00  0.00    +0.000 OA
ATOM     15  C   UNL     1       1.343   2.808  21.677  0.00  0.00    +0.000 A 
ATOM     16  C   UNL     1       1.305   3.886  20.828  0.00  0.00    +0.000 A 
ATOM     17  C   UNL     1       2.534   3.899  20.070  0.00  0.00    +0.000 A 
ENDBRANCH  10  17
ENDBRANCH   8  10
ENDBRANCH   1   8
BRANCH   6  18
ATOM     18  C   UNL     1       0.253   9.521  21.299  0.00  0.00    +0.000 C 
ATOM     19  N   UNL     1       0.747  10.484  22.051  0.00  0.00    +0.000 NA
BRANCH  19  20
ATOM     20  O   UNL     1      -0.148  10.870  23.054  0.00  0.00    +0.000 OA
BRANCH  20  21
ATOM     21  C   UNL     1      -1.124  11.748  22.455  0.00  0.00    +0.000 C 
ATOM     22  C   UNL     1      -2.390  11.824  23.307  0.00  0.00    +0.000 C 
ATOM     23  C   UNL     1      -0.519  13.140  22.302  0.00  0.00    +0.000 C 
ENDBRANCH  20  21
ENDBRANCH  19  20
ENDBRANCH   6  18
TORSDOF 6
ENDMDL
MODEL 4
REMARK VINA RESULT:      -6.8      2.449      3.471
REMARK  Name = 
REMARK  9 active torsions:
REMARK  status: ('A' for Active; 'I' for Inactive)
REMARK    1  A    between atoms: C_1  and  C_2
REMARK    2  A    between atoms: C_6  and  C_7
REMARK    3  A    between atoms: C_7  and  N_9
REMARK    4  A    between atoms: N_9  and  C_10
REMARK    5  A    between atoms: C_15  and  C_16
REMARK    6  A    between atoms: N_17  and  O_18
REMARK    7  A    between atoms: O_18  and  C_19
REMARK    8  A    between atoms: C_19  and  C_20
REMARK    9  A    between atoms: C_19  and  C_21
REMARK                            x       y       z     vdW  Elec       q    Type
REMARK                         _______ _______ _______ _____ _____    ______ ____
ROOT
ATOM      1  C   UNL     1       2.650   6.589  19.413  0.00  0.00    +0.000 A 
ATOM      2  C   UNL     1       2.700   7.211  18.160  0.00  0.00    +0.000 A 
ATOM      3  C   UNL     1       2.114   8.455  17.948  0.00  0.00    +0.000 A 
ATOM      4  C   UNL     1       1.425   9.098  18.973  0.00  0.00    +0.000 A 
ATOM      5 CL   UNL     1       0.817  10.666  18.595  0.00  0.00    +0.000 Cl
ATOM      6  C   UNL     1       1.287   8.462  20.219  0.00  0.00    +0.000 A 
ATOM      7  C   UNL     1       1.925   7.213  20.436  0.00  0.00    +0.000 A 
ENDROOT
BRANCH   1   8
ATOM      8  N   UNL     1       3.408   5.407  19.649  0.00  0.00    +0.000 N 
ATOM      9  H   UNL     1       3.444   5.095  20.612  0.00  0.00    +0.000 HD
BRANCH   8  10
ATOM     10  C   UNL     1       4.260   4.788  18.727  0.00  0.00    +0.000 C 
ATOM     11  S   UNL     1       3.939   3.339  17.916  0.00  0.00    +0.000 S 
BRANCH  10  17
ATOM     12  C   UNL     1       5.467   6.177  15.890  0.00  0.00    +0.000 C 
ATOM     13  C   UNL     1       6.029   5.938  17.238  0.00  0.00    +0.000 A 
ATOM     14  O   UNL     1       7.333   6.334  17.351  0.00  0.00    +0.000 OA
ATOM     15  C   UNL     1       7.736   6.070  18.611  0.00  0.00    +0.000 A 
ATOM     16  C   UNL     1       6.704   5.506  19.320  0.00  0.00    +0.000 A 
ATOM     17  C   UNL     1       5.567   5.395  18.437  0.00  0.00    +0.000 A 
ENDBRANCH  10  17
ENDBRANCH   8  10
ENDBRANCH   1   8
BRANCH   6  18
ATOM     18  C   UNL     1       0.520   9.080  21.335  0.00  0.00    +0.000 C 
ATOM     19  N   UNL     1       1.067  10.048  22.043  0.00  0.00    +0.000 NA
BRANCH  19  20
ATOM     20  O   UNL     1       0.180  10.556  22.998  0.00  0.00    +0.000 OA
BRANCH  20  21
ATOM     21  C   UNL     1      -0.849  11.284  22.296  0.00  0.00    +0.000 C 
ATOM     22  C   UNL     1      -2.022  11.605  23.222  0.00  0.00    +0.000 C 
ATOM     23  C   UNL     1      -0.259  12.577  21.741  0.00  0.00    +0.000 C 
ENDBRANCH  20  21
ENDBRANCH  19  20
ENDBRANCH   6  18
TORSDOF 6
ENDMDL
MODEL 5
REMARK VINA RESULT:      -6.8      2.070      2.686
REMARK  Name = 
REMARK  9 active torsions:
REMARK  status: ('A' for Active; 'I' for Inactive)
REMARK    1  A    between atoms: C_1  and  C_2
REMARK    2  A    between atoms: C_6  and  C_7
REMARK    3  A    between atoms: C_7  and  N_9
REMARK    4  A    between atoms: N_9  and  C_10
REMARK    5  A    between atoms: C_15  and  C_16
REMARK    6  A    between atoms: N_17  and  O_18
REMARK    7  A    between atoms: O_18  and  C_19
REMARK    8  A    between atoms: C_19  and  C_20
REMARK    9  A    between atoms: C_19  and  C_21
REMARK                            x       y       z     vdW  Elec       q    Type
REMARK                         _______ _______ _______ _____ _____    ______ ____
ROOT
ATOM      1  C   UNL     1       2.579   6.976  19.524  0.00  0.00    +0.000 A 
ATOM      2  C   UNL     1       2.609   7.594  18.268  0.00  0.00    +0.000 A 
ATOM      3  C   UNL     1       1.950   8.798  18.040  0.00  0.00    +0.000 A 
ATOM      4  C   UNL     1       1.206   9.401  19.050  0.00  0.00    +0.000 A 
ATOM      5 CL   UNL     1       0.507  10.926  18.654  0.00  0.00    +0.000 Cl
ATOM      6  C   UNL     1       1.090   8.764  20.299  0.00  0.00    +0.000 A 
ATOM      7  C   UNL     1       1.802   7.559  20.533  0.00  0.00    +0.000 A 
ENDROOT
BRANCH   1   8
ATOM      8  N   UNL     1       3.406   5.846  19.778  0.00  0.00    +0.000 N 
ATOM      9  H   UNL     1       4.133   5.981  20.470  0.00  0.00    +0.000 HD
BRANCH   8  10
ATOM     10  C   UNL     1       3.438   4.671  19.018  0.00  0.00    +0.000 C 
ATOM     11  S   UNL     1       2.340   3.392  19.143  0.00  0.00    +0.000 S 
BRANCH  10  17
ATOM     12  C   UNL     1       6.722   5.467  19.172  0.00  0.00    +0.000 C 
ATOM     13  C   UNL     1       5.862   4.845  18.141  0.00  0.00    +0.000 A 
ATOM     14  O   UNL     1       6.535   4.559  16.985  0.00  0.00    +0.000 OA
ATOM     15  C   UNL     1       5.658   4.000  16.126  0.00  0.00    +0.000 A 
ATOM     16  C   UNL     1       4.420   3.917  16.713  0.00  0.00    +0.000 A 
ATOM     17  C   UNL     1       4.520   4.478  18.041  0.00  0.00    +0.000 A 
ENDBRANCH  10  17
ENDBRANCH   8  10
ENDBRANCH   1   8
BRANCH   6  18
ATOM     18  C   UNL     1       0.269   9.339  21.400  0.00  0.00    +0.000 C 
ATOM     19  N   UNL     1       0.764  10.308  22.143  0.00  0.00    +0.000 NA
BRANCH  19  20
ATOM     20  O   UNL     1      -0.168  10.773  23.077  0.00  0.00    +0.000 OA
BRANCH  20  21
ATOM     21  C   UNL     1      -1.095  11.631  22.380  0.00  0.00    +0.000 C 
ATOM     22  C   UNL     1      -2.343  11.891  23.224  0.00  0.00    +0.000 C 
ATOM     23  C   UNL     1      -0.407  12.952  22.054  0.00  0.00    +0.000 C 
ENDBRANCH  20  21
ENDBRANCH  19  20
ENDBRANCH   6  18
TORSDOF 6
ENDMDL
MODEL 6
REMARK VINA RESULT:      -6.8      3.617      5.380
REMARK  Name = 
REMARK  9 active torsions:
REMARK  status: ('A' for Active; 'I' for Inactive)
REMARK    1  A    between atoms: C_1  and  C_2
REMARK    2  A    between atoms: C_6  and  C_7
REMARK    3  A    between atoms: C_7  and  N_9
REMARK    4  A    between atoms: N_9  and  C_10
REMARK    5  A    between atoms: C_15  and  C_16
REMARK    6  A    between atoms: N_17  and  O_18
REMARK    7  A    between atoms: O_18  and  C_19
REMARK    8  A    between atoms: C_19  and  C_20
REMARK    9  A    between atoms: C_19  and  C_21
REMARK                            x       y       z     vdW  Elec       q    Type
REMARK                         _______ _______ _______ _____ _____    ______ ____
ROOT
ATOM      1  C   UNL     1       4.803   3.829  19.265  0.00  0.00    +0.000 A 
ATOM      2  C   UNL     1       4.139   2.602  19.375  0.00  0.00    +0.000 A 
ATOM      3  C   UNL     1       2.783   2.540  19.683  0.00  0.00    +0.000 A 
ATOM      4  C   UNL     1       2.059   3.704  19.930  0.00  0.00    +0.000 A 
ATOM      5 CL   UNL     1       0.374   3.487  20.223  0.00  0.00    +0.000 Cl
ATOM      6  C   UNL     1       2.717   4.947  19.907  0.00  0.00    +0.000 A 
ATOM      7  C   UNL     1       4.089   5.000  19.549  0.00  0.00    +0.000 A 
ENDROOT
BRANCH   1   8
ATOM      8  N   UNL     1       6.139   3.870  18.773  0.00  0.00    +0.000 N 
ATOM      9  H   UNL     1       6.738   3.108  19.069  0.00  0.00    +0.000 HD
BRANCH   8  10
ATOM     10  C   UNL     1       6.734   4.954  18.118  0.00  0.00    +0.000 C 
ATOM     11  S   UNL     1       7.744   6.102  18.840  0.00  0.00    +0.000 S 
BRANCH  10  17
ATOM     12  C   UNL     1       4.542   7.021  16.580  0.00  0.00    +0.000 C 
ATOM     13  C   UNL     1       5.523   6.022  16.101  0.00  0.00    +0.000 A 
ATOM     14  O   UNL     1       5.519   5.878  14.741  0.00  0.00    +0.000 OA
ATOM     15  C   UNL     1       6.445   4.950  14.422  0.00  0.00    +0.000 A 
ATOM     16  C   UNL     1       7.053   4.489  15.564  0.00  0.00    +0.000 A 
ATOM     17  C   UNL     1       6.458   5.169  16.690  0.00  0.00    +0.000 A 
ENDBRANCH  10  17
ENDBRANCH   8  10
ENDBRANCH   1   8
BRANCH   6  18
ATOM     18  C   UNL     1       2.004   6.218  20.210  0.00  0.00    +0.000 C 
ATOM     19  N   UNL     1       2.363   7.328  19.598  0.00  0.00    +0.000 NA
BRANCH  19  20
ATOM     20  O   UNL     1       1.541   8.404  19.950  0.00  0.00    +0.000 OA
BRANCH  20  21
ATOM     21  C   UNL     1       1.090   8.184  21.303  0.00  0.00    +0.000 C 
ATOM     22  C   UNL     1       1.727   9.188  22.264  0.00  0.00    +0.000 C 
ATOM     23  C   UNL     1      -0.429   8.313  21.352  0.00  0.00    +0.000 C 
ENDBRANCH  20  21
ENDBRANCH  19  20
ENDBRANCH   6  18
TORSDOF 6
ENDMDL
MODEL 7
REMARK VINA RESULT:      -6.8      3.923      5.904
REMARK  Name = 
REMARK  9 active torsions:
REMARK  status: ('A' for Active; 'I' for Inactive)
REMARK    1  A    between atoms: C_1  and  C_2
REMARK    2  A    between atoms: C_6  and  C_7
REMARK    3  A    between atoms: C_7  and  N_9
REMARK    4  A    between atoms: N_9  and  C_10
REMARK    5  A    between atoms: C_15  and  C_16
REMARK    6  A    between atoms: N_17  and  O_18
REMARK    7  A    between atoms: O_18  and  C_19
REMARK    8  A    between atoms: C_19  and  C_20
REMARK    9  A    between atoms: C_19  and  C_21
REMARK                            x       y       z     vdW  Elec       q    Type
REMARK                         _______ _______ _______ _____ _____    ______ ____
ROOT
ATOM      1  C   UNL     1       4.968   3.895  18.966  0.00  0.00    +0.000 A 
ATOM      2  C   UNL     1       4.493   2.653  19.401  0.00  0.00    +0.000 A 
ATOM      3  C   UNL     1       3.274   2.537  20.063  0.00  0.00    +0.000 A 
ATOM      4  C   UNL     1       2.510   3.667  20.344  0.00  0.00    +0.000 A 
ATOM      5 CL   UNL     1       0.988   3.371  21.097  0.00  0.00    +0.000 Cl
ATOM      6  C   UNL     1       2.999   4.938  19.992  0.00  0.00    +0.000 A 
ATOM      7  C   UNL     1       4.222   5.038  19.280  0.00  0.00    +0.000 A 
ENDROOT
BRANCH   1   8
ATOM      8  N   UNL     1       6.124   3.961  18.138  0.00  0.00    +0.000 N 
ATOM      9  H   UNL     1       6.873   3.323  18.379  0.00  0.00    +0.000 HD
BRANCH   8  10
ATOM     10  C   UNL     1       6.390   4.953  17.187  0.00  0.00    +0.000 C 
ATOM     11  S   UNL     1       5.953   4.889  15.554  0.00  0.00    +0.000 S 
BRANCH  10  17
ATOM     12  C   UNL     1       8.281   5.557  19.926  0.00  0.00    +0.000 C 
ATOM     13  C   UNL     1       7.892   6.362  18.746  0.00  0.00    +0.000 A 
ATOM     14  O   UNL     1       8.374   7.641  18.789  0.00  0.00    +0.000 OA
ATOM     15  C   UNL     1       7.961   8.275  17.672  0.00  0.00    +0.000 A 
ATOM     16  C   UNL     1       7.214   7.419  16.902  0.00  0.00    +0.000 A 
ATOM     17  C   UNL     1       7.140   6.151  17.590  0.00  0.00    +0.000 A 
ENDBRANCH  10  17
ENDBRANCH   8  10
ENDBRANCH   1   8
BRANCH   6  18
ATOM     18  C   UNL     1       2.249   6.183  20.310  0.00  0.00    +0.000 C 
ATOM     19  N   UNL     1       2.399   7.247  19.547  0.00  0.00    +0.000 NA
BRANCH  19  20
ATOM     20  O   UNL     1       1.567   8.296  19.951  0.00  0.00    +0.000 OA
BRANCH  20  21
ATOM     21  C   UNL     1       1.236   9.069  18.778  0.00  0.00    +0.000 C 
ATOM     22  C   UNL     1       1.129  10.556  19.112  0.00  0.00    +0.000 C 
ATOM     23  C   UNL     1       2.310   8.853  17.716  0.00  0.00    +0.000 C 
ENDBRANCH  20  21
ENDBRANCH  19  20
ENDBRANCH   6  18
TORSDOF 6
ENDMDL
MODEL 8
REMARK VINA RESULT:      -6.8      3.454      7.844
REMARK  Name = 
REMARK  9 active torsions:
REMARK  status: ('A' for Active; 'I' for Inactive)
REMARK    1  A    between atoms: C_1  and  C_2
REMARK    2  A    between atoms: C_6  and  C_7
REMARK    3  A    between atoms: C_7  and  N_9
REMARK    4  A    between atoms: N_9  and  C_10
REMARK    5  A    between atoms: C_15  and  C_16
REMARK    6  A    between atoms: N_17  and  O_18
REMARK    7  A    between atoms: O_18  and  C_19
REMARK    8  A    between atoms: C_19  and  C_20
REMARK    9  A    between atoms: C_19  and  C_21
REMARK                            x       y       z     vdW  Elec       q    Type
REMARK                         _______ _______ _______ _____ _____    ______ ____
ROOT
ATOM      1  C   UNL     1       2.069   5.978  20.417  0.00  0.00    +0.000 A 
ATOM      2  C   UNL     1       1.008   5.068  20.340  0.00  0.00    +0.000 A 
ATOM      3  C   UNL     1       1.196   3.778  19.854  0.00  0.00    +0.000 A 
ATOM      4  C   UNL     1       2.445   3.370  19.393  0.00  0.00    +0.000 A 
ATOM      5 CL   UNL     1       2.556   1.724  18.893  0.00  0.00    +0.000 Cl
ATOM      6  C   UNL     1       3.512   4.286  19.382  0.00  0.00    +0.000 A 
ATOM      7  C   UNL     1       3.318   5.585  19.920  0.00  0.00    +0.000 A 
ENDROOT
BRANCH   1   8
ATOM      8  N   UNL     1       1.887   7.223  21.082  0.00  0.00    +0.000 N 
ATOM      9  H   UNL     1       2.020   7.207  22.086  0.00  0.00    +0.000 HD
BRANCH   8  10
ATOM     10  C   UNL     1       1.344   8.380  20.512  0.00  0.00    +0.000 C 
ATOM     11  S   UNL     1       1.506   8.846  18.895  0.00  0.00    +0.000 S 
BRANCH  10  17
ATOM     12  C   UNL     1       1.251  11.762  20.534  0.00  0.00    +0.000 C 
ATOM     13  C   UNL     1       0.603  10.709  21.349  0.00  0.00    +0.000 A 
ATOM     14  O   UNL     1      -0.178  11.215  22.351  0.00  0.00    +0.000 OA
ATOM     15  C   UNL     1      -0.714  10.173  23.021  0.00  0.00    +0.000 A 
ATOM     16  C   UNL     1      -0.288   8.994  22.462  0.00  0.00    +0.000 A 
ATOM     17  C   UNL     1       0.592   9.314  21.363  0.00  0.00    +0.000 A 
ENDBRANCH  10  17
ENDBRANCH   8  10
ENDBRANCH   1   8
BRANCH   6  18
ATOM     18  C   UNL     1       4.856   3.921  18.856  0.00  0.00    +0.000 C 
ATOM     19  N   UNL     1       5.865   4.753  19.013  0.00  0.00    +0.000 NA
BRANCH  19  20
ATOM     20  O   UNL     1       7.061   4.217  18.524  0.00  0.00    +0.000 OA
BRANCH  20  21
ATOM     21  C   UNL     1       7.526   5.079  17.465  0.00  0.00    +0.000 C 
ATOM     22  C   UNL     1       6.967   4.638  16.112  0.00  0.00    +0.000 C 
ATOM     23  C   UNL     1       7.096   6.512  17.760  0.00  0.00    +0.000 C 
ENDBRANCH  20  21
ENDBRANCH  19  20
ENDBRANCH   6  18
TORSDOF 6
ENDMDL
MODEL 9
REMARK VINA RESULT:      -6.8      3.530      8.012
REMARK  Name = 
REMARK  9 active torsions:
REMARK  status: ('A' for Active; 'I' for Inactive)
REMARK    1  A    between atoms: C_1  and  C_2
REMARK    2  A    between atoms: C_6  and  C_7
REMARK    3  A    between atoms: C_7  and  N_9
REMARK    4  A    between atoms: N_9  and  C_10
REMARK    5  A    between atoms: C_15  and  C_16
REMARK    6  A    between atoms: N_17  and  O_18
REMARK    7  A    between atoms: O_18  and  C_19
REMARK    8  A    between atoms: C_19  and  C_20
REMARK    9  A    between atoms: C_19  and  C_21
REMARK                            x       y       z     vdW  Elec       q    Type
REMARK                         _______ _______ _______ _____ _____    ______ ____
ROOT
ATOM      1  C   UNL     1       2.122   6.224  19.929  0.00  0.00    +0.000 A 
ATOM      2  C   UNL     1       1.254   5.398  20.651  0.00  0.00    +0.000 A 
ATOM      3  C   UNL     1       1.182   4.031  20.401  0.00  0.00    +0.000 A 
ATOM      4  C   UNL     1       1.949   3.455  19.391  0.00  0.00    +0.000 A 
ATOM      5 CL   UNL     1       1.821   1.742  19.242  0.00  0.00    +0.000 Cl
ATOM      6  C   UNL     1       2.771   4.272  18.594  0.00  0.00    +0.000 A 
ATOM      7  C   UNL     1       2.868   5.657  18.888  0.00  0.00    +0.000 A 
ENDROOT
BRANCH   1   8
ATOM      8  N   UNL     1       2.306   7.579  20.326  0.00  0.00    +0.000 N 
ATOM      9  H   UNL     1       2.999   7.734  21.049  0.00  0.00    +0.000 HD
BRANCH   8  10
ATOM     10  C   UNL     1       1.481   8.652  19.970  0.00  0.00    +0.000 C 
ATOM     11  S   UNL     1       1.285   9.261  18.405  0.00  0.00    +0.000 S 
BRANCH  10  17
ATOM     12  C   UNL     1       1.251  11.953  20.674  0.00  0.00    +0.000 C 
ATOM     13  C   UNL     1       0.685  10.729  21.284  0.00  0.00    +0.000 A 
ATOM     14  O   UNL     1      -0.069  10.986  22.396  0.00  0.00    +0.000 OA
ATOM     15  C   UNL     1      -0.529   9.807  22.863  0.00  0.00    +0.000 A 
ATOM     16  C   UNL     1      -0.082   8.784  22.063  0.00  0.00    +0.000 A 
ATOM     17  C   UNL     1       0.732   9.360  21.018  0.00  0.00    +0.000 A 
ENDBRANCH  10  17
ENDBRANCH   8  10
ENDBRANCH   1   8
BRANCH   6  18
ATOM     18  C   UNL     1       3.576   3.718  17.471  0.00  0.00    +0.000 C 
ATOM     19  N   UNL     1       4.752   4.243  17.192  0.00  0.00    +0.000 NA
BRANCH  19  20
ATOM     20  O   UNL     1       5.395   3.554  16.158  0.00  0.00    +0.000 OA
BRANCH  20  21
ATOM     21  C   UNL     1       6.100   4.526  15.357  0.00  0.00    +0.000 C 
ATOM     22  C   UNL     1       6.181   4.079  13.898  0.00  0.00    +0.000 C 
ATOM     23  C   UNL     1       5.381   5.868  15.448  0.00  0.00    +0.000 C 
ENDBRANCH  20  21
ENDBRANCH  19  20
ENDBRANCH   6  18
TORSDOF 6
ENDMDL
