MODEL 1
REMARK VINA RESULT:      -6.4      0.000      0.000
REMARK  Name = 
REMARK  4 active torsions:
REMARK  status: ('A' for Active; 'I' for Inactive)
REMARK    1  A    between atoms: C_1  and  N_2
REMARK    2  A    between atoms: C_7  and  C_8
REMARK    3  A    between atoms: N_10  and  C_11
REMARK    4  A    between atoms: C_11  and  C_12
REMARK                            x       y       z     vdW  Elec       q    Type
REMARK                         _______ _______ _______ _____ _____    ______ ____
ROOT
ATOM      1  C   UNL     1       4.083   4.581  17.282  0.00  0.00    +0.000 C 
ATOM      2  O   UNL     1       3.361   5.563  17.438  0.00  0.00    +0.000 OA
ATOM      3  N   UNL     1       3.601   3.303  17.418  0.00  0.00    +0.000 N 
ATOM      4  H   UNL     1       4.228   2.522  17.287  0.00  0.00    +0.000 HD
ENDROOT
BRANCH   1  11
ATOM      5  C   UNL     1       6.346   5.311  19.246  0.00  0.00    +0.000 C 
ATOM      6  N   UNL     1       6.484   5.011  17.837  0.00  0.00    +0.000 N 
ATOM      7  N   UNL     1       7.723   5.051  17.299  0.00  0.00    +0.000 NA
ATOM      8  C   UNL     1       7.525   4.740  16.021  0.00  0.00    +0.000 A 
ATOM      9  C   UNL     1       6.173   4.503  15.748  0.00  0.00    +0.000 A 
ATOM     10 BR   UNL     1       5.562   4.048  14.035  0.00  0.00    +0.000 Br
ATOM     11  C   UNL     1       5.487   4.680  16.937  0.00  0.00    +0.000 A 
ENDBRANCH   1  11
BRANCH   3  12
ATOM     12  C   UNL     1       2.225   2.991  17.724  0.00  0.00    +0.000 C 
BRANCH  12  13
ATOM     13  C   UNL     1       2.078   2.919  19.211  0.00  0.00    +0.000 A 
ATOM     14  C   UNL     1       0.926   3.060  19.960  0.00  0.00    +0.000 A 
ATOM     15  C   UNL     1       1.160   2.901  21.357  0.00  0.00    +0.000 A 
ATOM     16  C   UNL     1       2.486   2.654  21.630  0.00  0.00    +0.000 A 
ATOM     17  S   UNL     1       3.440   2.620  20.211  0.00  0.00    +0.000 S 
ENDBRANCH  12  13
ENDBRANCH   3  12
TORSDOF 3
ENDMDL
MODEL 2
REMARK VINA RESULT:      -6.2      1.225      1.225
REMARK  Name = 
REMARK  4 active torsions:
REMARK  status: ('A' for Active; 'I' for Inactive)
REMARK    1  A    between atoms: C_1  and  N_2
REMARK    2  A    between atoms: C_7  and  C_8
REMARK    3  A    between atoms: N_10  and  C_11
REMARK    4  A    between atoms: C_11  and  C_12
REMARK                            x       y       z     vdW  Elec       q    Type
REMARK                         _______ _______ _______ _____ _____    ______ ____
ROOT
ATOM      1  C   UNL     1       4.138   3.784  17.205  0.00  0.00    +0.000 C 
ATOM      2  O   UNL     1       3.960   2.573  17.309  0.00  0.00    +0.000 OA
ATOM      3  N   UNL     1       3.118   4.682  17.397  0.00  0.00    +0.000 N 
ATOM      4  H   UNL     1       3.304   5.670  17.296  0.00  0.00    +0.000 HD
ENDROOT
BRANCH   1  11
ATOM      5  C   UNL     1       6.019   5.154  19.230  0.00  0.00    +0.000 C 
ATOM      6  N   UNL     1       6.250   4.980  17.811  0.00  0.00    +0.000 N 
ATOM      7  N   UNL     1       7.402   5.463  17.293  0.00  0.00    +0.000 NA
ATOM      8  C   UNL     1       7.321   5.158  16.001  0.00  0.00    +0.000 A 
ATOM      9  C   UNL     1       6.130   4.487  15.700  0.00  0.00    +0.000 A 
ATOM     10 BR   UNL     1       5.709   3.926  13.960  0.00  0.00    +0.000 Br
ATOM     11  C   UNL     1       5.425   4.369  16.884  0.00  0.00    +0.000 A 
ENDBRANCH   1  11
BRANCH   3  12
ATOM     12  C   UNL     1       1.772   4.306  17.757  0.00  0.00    +0.000 C 
BRANCH  12  13
ATOM     13  C   UNL     1       1.768   3.889  19.194  0.00  0.00    +0.000 A 
ATOM     14  C   UNL     1       1.269   2.723  19.741  0.00  0.00    +0.000 A 
ATOM     15  C   UNL     1       1.465   2.653  21.151  0.00  0.00    +0.000 A 
ATOM     16  C   UNL     1       2.099   3.774  21.637  0.00  0.00    +0.000 A 
ATOM     17  S   UNL     1       2.449   4.902  20.400  0.00  0.00    +0.000 S 
ENDBRANCH  12  13
ENDBRANCH   3  12
TORSDOF 3
ENDMDL
MODEL 3
REMARK VINA RESULT:      -6.1      1.335      1.378
REMARK  Name = 
REMARK  4 active torsions:
REMARK  status: ('A' for Active; 'I' for Inactive)
REMARK    1  A    between atoms: C_1  and  N_2
REMARK    2  A    between atoms: C_7  and  C_8
REMARK    3  A    between atoms: N_10  and  C_11
REMARK    4  A    between atoms: C_11  and  C_12
REMARK                            x       y       z     vdW  Elec       q    Type
REMARK                         _______ _______ _______ _____ _____    ______ ____
ROOT
ATOM      1  C   UNL     1       4.159   3.911  17.238  0.00  0.00    +0.000 C 
ATOM      2  O   UNL     1       3.894   2.713  17.310  0.00  0.00    +0.000 OA
ATOM      3  N   UNL     1       3.208   4.874  17.463  0.00  0.00    +0.000 N 
ATOM      4  H   UNL     1       3.464   5.849  17.389  0.00  0.00    +0.000 HD
ENDROOT
BRANCH   1  11
ATOM      5  C   UNL     1       6.106   5.176  19.269  0.00  0.00    +0.000 C 
ATOM      6  N   UNL     1       6.338   4.975  17.854  0.00  0.00    +0.000 N 
ATOM      7  N   UNL     1       7.521   5.379  17.342  0.00  0.00    +0.000 NA
ATOM      8  C   UNL     1       7.432   5.070  16.051  0.00  0.00    +0.000 A 
ATOM      9  C   UNL     1       6.203   4.473  15.745  0.00  0.00    +0.000 A 
ATOM     10 BR   UNL     1       5.763   3.925  14.007  0.00  0.00    +0.000 Br
ATOM     11  C   UNL     1       5.483   4.410  16.924  0.00  0.00    +0.000 A 
ENDBRANCH   1  11
BRANCH   3  12
ATOM     12  C   UNL     1       1.840   4.586  17.823  0.00  0.00    +0.000 C 
BRANCH  12  13
ATOM     13  C   UNL     1       1.819   4.081  19.231  0.00  0.00    +0.000 A 
ATOM     14  C   UNL     1       2.374   4.665  20.353  0.00  0.00    +0.000 A 
ATOM     15  C   UNL     1       2.132   3.911  21.538  0.00  0.00    +0.000 A 
ATOM     16  C   UNL     1       1.408   2.769  21.280  0.00  0.00    +0.000 A 
ATOM     17  S   UNL     1       1.030   2.608  19.620  0.00  0.00    +0.000 S 
ENDBRANCH  12  13
ENDBRANCH   3  12
TORSDOF 3
ENDMDL
MODEL 4
REMARK VINA RESULT:      -6.1      2.026      2.508
REMARK  Name = 
REMARK  4 active torsions:
REMARK  status: ('A' for Active; 'I' for Inactive)
REMARK    1  A    between atoms: C_1  and  N_2
REMARK    2  A    between atoms: C_7  and  C_8
REMARK    3  A    between atoms: N_10  and  C_11
REMARK    4  A    between atoms: C_11  and  C_12
REMARK                            x       y       z     vdW  Elec       q    Type
REMARK                         _______ _______ _______ _____ _____    ______ ____
ROOT
ATOM      1  C   UNL     1       4.330   3.727  16.989  0.00  0.00    +0.000 C 
ATOM      2  O   UNL     1       3.214   4.065  16.603  0.00  0.00    +0.000 OA
ATOM      3  N   UNL     1       4.522   2.594  17.739  0.00  0.00    +0.000 N 
ATOM      4  H   UNL     1       5.455   2.354  18.043  0.00  0.00    +0.000 HD
ENDROOT
BRANCH   1  11
ATOM      5  C   UNL     1       5.528   4.095  14.170  0.00  0.00    +0.000 C 
ATOM      6  N   UNL     1       6.051   4.627  15.411  0.00  0.00    +0.000 N 
ATOM      7  N   UNL     1       7.184   5.362  15.358  0.00  0.00    +0.000 NA
ATOM      8  C   UNL     1       7.405   5.697  16.626  0.00  0.00    +0.000 A 
ATOM      9  C   UNL     1       6.422   5.181  17.478  0.00  0.00    +0.000 A 
ATOM     10 BR   UNL     1       6.451   5.469  19.331  0.00  0.00    +0.000 Br
ATOM     11  C   UNL     1       5.532   4.478  16.685  0.00  0.00    +0.000 A 
ENDBRANCH   1  11
BRANCH   3  12
ATOM     12  C   UNL     1       3.461   1.692  18.118  0.00  0.00    +0.000 C 
BRANCH  12  13
ATOM     13  C   UNL     1       2.760   2.263  19.310  0.00  0.00    +0.000 A 
ATOM     14  C   UNL     1       3.295   2.568  20.547  0.00  0.00    +0.000 A 
ATOM     15  C   UNL     1       2.331   3.127  21.436  0.00  0.00    +0.000 A 
ATOM     16  C   UNL     1       1.088   3.221  20.852  0.00  0.00    +0.000 A 
ATOM     17  S   UNL     1       1.086   2.635  19.246  0.00  0.00    +0.000 S 
ENDBRANCH  12  13
ENDBRANCH   3  12
TORSDOF 3
ENDMDL
MODEL 5
REMARK VINA RESULT:      -6.1      2.247      2.662
REMARK  Name = 
REMARK  4 active torsions:
REMARK  status: ('A' for Active; 'I' for Inactive)
REMARK    1  A    between atoms: C_1  and  N_2
REMARK    2  A    between atoms: C_7  and  C_8
REMARK    3  A    between atoms: N_10  and  C_11
REMARK    4  A    between atoms: C_11  and  C_12
REMARK                            x       y       z     vdW  Elec       q    Type
REMARK                         _______ _______ _______ _____ _____    ______ ____
ROOT
ATOM      1  C   UNL     1       5.041   4.055  18.068  0.00  0.00    +0.000 C 
ATOM      2  O   UNL     1       5.718   4.024  19.093  0.00  0.00    +0.000 OA
ATOM      3  N   UNL     1       4.138   3.065  17.771  0.00  0.00    +0.000 N 
ATOM      4  H   UNL     1       3.605   3.124  16.915  0.00  0.00    +0.000 HD
ENDROOT
BRANCH   1  11
ATOM      5  C   UNL     1       6.932   4.100  15.632  0.00  0.00    +0.000 C 
ATOM      6  N   UNL     1       5.984   5.125  16.013  0.00  0.00    +0.000 N 
ATOM      7  N   UNL     1       5.901   6.231  15.240  0.00  0.00    +0.000 NA
ATOM      8  C   UNL     1       4.967   6.967  15.837  0.00  0.00    +0.000 A 
ATOM      9  C   UNL     1       4.461   6.336  16.979  0.00  0.00    +0.000 A 
ATOM     10 BR   UNL     1       3.135   7.118  18.050  0.00  0.00    +0.000 Br
ATOM     11  C   UNL     1       5.125   5.128  17.098  0.00  0.00    +0.000 A 
ENDBRANCH   1  11
BRANCH   3  12
ATOM     12  C   UNL     1       3.880   1.929  18.623  0.00  0.00    +0.000 C 
BRANCH  12  13
ATOM     13  C   UNL     1       2.879   2.334  19.658  0.00  0.00    +0.000 A 
ATOM     14  C   UNL     1       3.082   2.518  21.012  0.00  0.00    +0.000 A 
ATOM     15  C   UNL     1       1.900   2.935  21.690  0.00  0.00    +0.000 A 
ATOM     16  C   UNL     1       0.829   3.046  20.833  0.00  0.00    +0.000 A 
ATOM     17  S   UNL     1       1.249   2.645  19.225  0.00  0.00    +0.000 S 
ENDBRANCH  12  13
ENDBRANCH   3  12
TORSDOF 3
ENDMDL
MODEL 6
REMARK VINA RESULT:      -6.0      0.842      1.069
REMARK  Name = 
REMARK  4 active torsions:
REMARK  status: ('A' for Active; 'I' for Inactive)
REMARK    1  A    between atoms: C_1  and  N_2
REMARK    2  A    between atoms: C_7  and  C_8
REMARK    3  A    between atoms: N_10  and  C_11
REMARK    4  A    between atoms: C_11  and  C_12
REMARK                            x       y       z     vdW  Elec       q    Type
REMARK                         _______ _______ _______ _____ _____    ______ ____
ROOT
ATOM      1  C   UNL     1       4.119   4.258  17.242  0.00  0.00    +0.000 C 
ATOM      2  O   UNL     1       3.257   5.126  17.350  0.00  0.00    +0.000 OA
ATOM      3  N   UNL     1       3.831   2.929  17.433  0.00  0.00    +0.000 N 
ATOM      4  H   UNL     1       4.570   2.246  17.341  0.00  0.00    +0.000 HD
ENDROOT
BRANCH   1  11
ATOM      5  C   UNL     1       6.260   5.280  19.213  0.00  0.00    +0.000 C 
ATOM      6  N   UNL     1       6.438   5.010  17.802  0.00  0.00    +0.000 N 
ATOM      7  N   UNL     1       7.660   5.222  17.265  0.00  0.00    +0.000 NA
ATOM      8  C   UNL     1       7.507   4.894  15.985  0.00  0.00    +0.000 A 
ATOM      9  C   UNL     1       6.200   4.475  15.710  0.00  0.00    +0.000 A 
ATOM     10 BR   UNL     1       5.658   3.949  13.994  0.00  0.00    +0.000 Br
ATOM     11  C   UNL     1       5.496   4.549  16.899  0.00  0.00    +0.000 A 
ENDBRANCH   1  11
BRANCH   3  12
ATOM     12  C   UNL     1       2.515   2.428  17.747  0.00  0.00    +0.000 C 
BRANCH  12  13
ATOM     13  C   UNL     1       2.298   2.565  19.221  0.00  0.00    +0.000 A 
ATOM     14  C   UNL     1       3.227   2.435  20.234  0.00  0.00    +0.000 A 
ATOM     15  C   UNL     1       2.665   2.662  21.524  0.00  0.00    +0.000 A 
ATOM     16  C   UNL     1       1.321   2.949  21.455  0.00  0.00    +0.000 A 
ATOM     17  S   UNL     1       0.743   2.938  19.845  0.00  0.00    +0.000 S 
ENDBRANCH  12  13
ENDBRANCH   3  12
TORSDOF 3
ENDMDL
MODEL 7
REMARK VINA RESULT:      -6.0      1.906      2.308
REMARK  Name = 
REMARK  4 active torsions:
REMARK  status: ('A' for Active; 'I' for Inactive)
REMARK    1  A    between atoms: C_1  and  N_2
REMARK    2  A    between atoms: C_7  and  C_8
REMARK    3  A    between atoms: N_10  and  C_11
REMARK    4  A    between atoms: C_11  and  C_12
REMARK                            x       y       z     vdW  Elec       q    Type
REMARK                         _______ _______ _______ _____ _____    ______ ____
ROOT
ATOM      1  C   UNL     1       4.300   3.720  16.983  0.00  0.00    +0.000 C 
ATOM      2  O   UNL     1       3.185   4.077  16.611  0.00  0.00    +0.000 OA
ATOM      3  N   UNL     1       4.484   2.573  17.713  0.00  0.00    +0.000 N 
ATOM      4  H   UNL     1       5.417   2.317  18.006  0.00  0.00    +0.000 HD
ENDROOT
BRANCH   1  11
ATOM      5  C   UNL     1       5.506   4.077  14.166  0.00  0.00    +0.000 C 
ATOM      6  N   UNL     1       6.030   4.606  15.408  0.00  0.00    +0.000 N 
ATOM      7  N   UNL     1       7.169   5.332  15.356  0.00  0.00    +0.000 NA
ATOM      8  C   UNL     1       7.391   5.666  16.625  0.00  0.00    +0.000 A 
ATOM      9  C   UNL     1       6.402   5.157  17.475  0.00  0.00    +0.000 A 
ATOM     10 BR   UNL     1       6.431   5.446  19.328  0.00  0.00    +0.000 Br
ATOM     11  C   UNL     1       5.508   4.462  16.681  0.00  0.00    +0.000 A 
ENDBRANCH   1  11
BRANCH   3  12
ATOM     12  C   UNL     1       3.416   1.678  18.087  0.00  0.00    +0.000 C 
BRANCH  12  13
ATOM     13  C   UNL     1       2.713   2.254  19.276  0.00  0.00    +0.000 A 
ATOM     14  C   UNL     1       1.369   2.545  19.412  0.00  0.00    +0.000 A 
ATOM     15  C   UNL     1       1.050   3.059  20.702  0.00  0.00    +0.000 A 
ATOM     16  C   UNL     1       2.162   3.153  21.507  0.00  0.00    +0.000 A 
ATOM     17  S   UNL     1       3.580   2.630  20.708  0.00  0.00    +0.000 S 
ENDBRANCH  12  13
ENDBRANCH   3  12
TORSDOF 3
ENDMDL
MODEL 8
REMARK VINA RESULT:      -5.8      2.047      2.288
REMARK  Name = 
REMARK  4 active torsions:
REMARK  status: ('A' for Active; 'I' for Inactive)
REMARK    1  A    between atoms: C_1  and  N_2
REMARK    2  A    between atoms: C_7  and  C_8
REMARK    3  A    between atoms: N_10  and  C_11
REMARK    4  A    between atoms: C_11  and  C_12
REMARK                            x       y       z     vdW  Elec       q    Type
REMARK                         _______ _______ _______ _____ _____    ______ ____
ROOT
ATOM      1  C   UNL     1       5.236   5.644  18.571  0.00  0.00    +0.000 C 
ATOM      2  O   UNL     1       5.715   5.430  19.683  0.00  0.00    +0.000 OA
ATOM      3  N   UNL     1       3.931   6.037  18.411  0.00  0.00    +0.000 N 
ATOM      4  H   UNL     1       3.574   6.196  17.480  0.00  0.00    +0.000 HD
ENDROOT
BRANCH   1  11
ATOM      5  C   UNL     1       7.601   7.446  17.748  0.00  0.00    +0.000 C 
ATOM      6  N   UNL     1       7.054   6.336  16.997  0.00  0.00    +0.000 N 
ATOM      7  N   UNL     1       7.618   6.038  15.805  0.00  0.00    +0.000 NA
ATOM      8  C   UNL     1       6.910   4.999  15.370  0.00  0.00    +0.000 A 
ATOM      9  C   UNL     1       5.907   4.638  16.276  0.00  0.00    +0.000 A 
ATOM     10 BR   UNL     1       4.730   3.214  15.953  0.00  0.00    +0.000 Br
ATOM     11  C   UNL     1       5.998   5.512  17.345  0.00  0.00    +0.000 A 
ENDBRANCH   1  11
BRANCH   3  12
ATOM     12  C   UNL     1       3.018   6.258  19.507  0.00  0.00    +0.000 C 
BRANCH  12  13
ATOM     13  C   UNL     1       2.268   4.989  19.759  0.00  0.00    +0.000 A 
ATOM     14  C   UNL     1       1.965   4.405  20.974  0.00  0.00    +0.000 A 
ATOM     15  C   UNL     1       1.207   3.207  20.831  0.00  0.00    +0.000 A 
ATOM     16  C   UNL     1       0.964   2.908  19.509  0.00  0.00    +0.000 A 
ATOM     17  S   UNL     1       1.651   4.063  18.452  0.00  0.00    +0.000 S 
ENDBRANCH  12  13
ENDBRANCH   3  12
TORSDOF 3
ENDMDL
MODEL 9
REMARK VINA RESULT:      -5.8      2.370      2.678
REMARK  Name = 
REMARK  4 active torsions:
REMARK  status: ('A' for Active; 'I' for Inactive)
REMARK    1  A    between atoms: C_1  and  N_2
REMARK    2  A    between atoms: C_7  and  C_8
REMARK    3  A    between atoms: N_10  and  C_11
REMARK    4  A    between atoms: C_11  and  C_12
REMARK                            x       y       z     vdW  Elec       q    Type
REMARK                         _______ _______ _______ _____ _____    ______ ____
ROOT
ATOM      1  C   UNL     1       4.963   5.513  18.664  0.00  0.00    +0.000 C 
ATOM      2  O   UNL     1       5.418   5.285  19.782  0.00  0.00    +0.000 OA
ATOM      3  N   UNL     1       3.668   5.933  18.485  0.00  0.00    +0.000 N 
ATOM      4  H   UNL     1       3.329   6.104  17.549  0.00  0.00    +0.000 HD
ENDROOT
BRANCH   1  11
ATOM      5  C   UNL     1       4.592   3.279  16.570  0.00  0.00    +0.000 C 
ATOM      6  N   UNL     1       5.556   4.358  16.526  0.00  0.00    +0.000 N 
ATOM      7  N   UNL     1       6.396   4.413  15.469  0.00  0.00    +0.000 NA
ATOM      8  C   UNL     1       7.143   5.487  15.713  0.00  0.00    +0.000 A 
ATOM      9  C   UNL     1       6.781   6.109  16.913  0.00  0.00    +0.000 A 
ATOM     10 BR   UNL     1       7.649   7.646  17.545  0.00  0.00    +0.000 Br
ATOM     11  C   UNL     1       5.740   5.372  17.449  0.00  0.00    +0.000 A 
ENDBRANCH   1  11
BRANCH   3  12
ATOM     12  C   UNL     1       2.742   6.168  19.567  0.00  0.00    +0.000 C 
BRANCH  12  13
ATOM     13  C   UNL     1       2.148   4.856  19.972  0.00  0.00    +0.000 A 
ATOM     14  C   UNL     1       2.054   4.320  21.242  0.00  0.00    +0.000 A 
ATOM     15  C   UNL     1       1.397   3.056  21.254  0.00  0.00    +0.000 A 
ATOM     16  C   UNL     1       1.019   2.662  19.990  0.00  0.00    +0.000 A 
ATOM     17  S   UNL     1       1.460   3.809  18.801  0.00  0.00    +0.000 S 
ENDBRANCH  12  13
ENDBRANCH   3  12
TORSDOF 3
ENDMDL
