MODEL 1
REMARK VINA RESULT:      -5.0      0.000      0.000
REMARK  Name = 
REMARK  6 active torsions:
REMARK  status: ('A' for Active; 'I' for Inactive)
REMARK    1  A    between atoms: C_1  and  C_2
REMARK    2  A    between atoms: C_2  and  S_3
REMARK    3  A    between atoms: S_3  and  C_4
REMARK    4  A    between atoms: N_6  and  C_7
REMARK    5  A    between atoms: C_7  and  C_8
REMARK    6  A    between atoms: C_8  and  O_9
REMARK                            x       y       z     vdW  Elec       q    Type
REMARK                         _______ _______ _______ _____ _____    ______ ____
ROOT
ATOM      1  C   UNL     1       4.142   4.109  19.055  0.00  0.00    +0.000 A 
ATOM      2  N   UNL     1       5.433   3.974  19.089  0.00  0.00    +0.000 NA
ATOM      3  N   UNL     1       5.975   4.725  18.063  0.00  0.00    +0.000 N 
ATOM      4  C   UNL     1       5.098   5.447  17.285  0.00  0.00    +0.000 A 
ATOM      5  N   UNL     1       5.296   6.238  16.296  0.00  0.00    +0.000 NA
ATOM      6  S   UNL     1       3.461   5.147  17.826  0.00  0.00    +0.000 S 
ATOM      7  H   UNL     1       6.304   6.281  16.092  0.00  0.00    +0.000 HD
ENDROOT
BRANCH   1   8
ATOM      8  S   UNL     1       3.049   3.310  20.139  0.00  0.00    +0.000 S 
BRANCH   8  10
ATOM      9  C   UNL     1       0.890   2.371  18.748  0.00  0.00    +0.000 C 
ATOM     10  C   UNL     1       2.351   2.057  19.032  0.00  0.00    +0.000 C 
ENDBRANCH   8  10
ENDBRANCH   1   8
BRANCH   3  11
ATOM     11  C   UNL     1       7.423   4.903  18.065  0.00  0.00    +0.000 C 
BRANCH  11  12
ATOM     12  C   UNL     1       7.863   5.991  19.046  0.00  0.00    +0.000 C 
BRANCH  12  13
ATOM     13  O   UNL     1       7.852   5.512  20.392  0.00  0.00    +0.000 OA
ATOM     14  H   UNL     1       6.941   5.217  20.589  0.00  0.00    +0.000 HD
ENDBRANCH  12  13
ENDBRANCH  11  12
ENDBRANCH   3  11
TORSDOF 5
ENDMDL
MODEL 2
REMARK VINA RESULT:      -5.0      1.125      1.125
REMARK  Name = 
REMARK  6 active torsions:
REMARK  status: ('A' for Active; 'I' for Inactive)
REMARK    1  A    between atoms: C_1  and  C_2
REMARK    2  A    between atoms: C_2  and  S_3
REMARK    3  A    between atoms: S_3  and  C_4
REMARK    4  A    between atoms: N_6  and  C_7
REMARK    5  A    between atoms: C_7  and  C_8
REMARK    6  A    between atoms: C_8  and  O_9
REMARK                            x       y       z     vdW  Elec       q    Type
REMARK                         _______ _______ _______ _____ _____    ______ ____
ROOT
ATOM      1  C   UNL     1       4.496   3.659  18.907  0.00  0.00    +0.000 A 
ATOM      2  N   UNL     1       5.750   3.920  19.119  0.00  0.00    +0.000 NA
ATOM      3  N   UNL     1       6.307   4.364  17.935  0.00  0.00    +0.000 N 
ATOM      4  C   UNL     1       5.468   4.469  16.849  0.00  0.00    +0.000 A 
ATOM      5  N   UNL     1       5.680   4.866  15.648  0.00  0.00    +0.000 NA
ATOM      6  S   UNL     1       3.864   3.935  17.302  0.00  0.00    +0.000 S 
ATOM      7  H   UNL     1       6.672   5.116  15.544  0.00  0.00    +0.000 HD
ENDROOT
BRANCH   1   8
ATOM      8  S   UNL     1       3.413   3.036  20.110  0.00  0.00    +0.000 S 
BRANCH   8  10
ATOM      9  C   UNL     1       0.708   3.419  20.242  0.00  0.00    +0.000 C 
ATOM     10  C   UNL     1       1.995   4.141  19.875  0.00  0.00    +0.000 C 
ENDBRANCH   8  10
ENDBRANCH   1   8
BRANCH   3  11
ATOM     11  C   UNL     1       7.648   4.935  18.006  0.00  0.00    +0.000 C 
BRANCH  11  12
ATOM     12  C   UNL     1       7.752   6.016  19.083  0.00  0.00    +0.000 C 
BRANCH  12  13
ATOM     13  O   UNL     1       7.959   5.443  20.375  0.00  0.00    +0.000 OA
ATOM     14  H   UNL     1       7.601   4.534  20.351  0.00  0.00    +0.000 HD
ENDBRANCH  12  13
ENDBRANCH  11  12
ENDBRANCH   3  11
TORSDOF 5
ENDMDL
MODEL 3
REMARK VINA RESULT:      -4.9      2.435      2.859
REMARK  Name = 
REMARK  6 active torsions:
REMARK  status: ('A' for Active; 'I' for Inactive)
REMARK    1  A    between atoms: C_1  and  C_2
REMARK    2  A    between atoms: C_2  and  S_3
REMARK    3  A    between atoms: S_3  and  C_4
REMARK    4  A    between atoms: N_6  and  C_7
REMARK    5  A    between atoms: C_7  and  C_8
REMARK    6  A    between atoms: C_8  and  O_9
REMARK                            x       y       z     vdW  Elec       q    Type
REMARK                         _______ _______ _______ _____ _____    ______ ____
ROOT
ATOM      1  C   UNL     1       3.405   3.915  17.979  0.00  0.00    +0.000 A 
ATOM      2  N   UNL     1       3.834   3.835  16.756  0.00  0.00    +0.000 NA
ATOM      3  N   UNL     1       5.202   4.032  16.763  0.00  0.00    +0.000 N 
ATOM      4  C   UNL     1       5.801   4.224  17.987  0.00  0.00    +0.000 A 
ATOM      5  N   UNL     1       7.028   4.406  18.312  0.00  0.00    +0.000 NA
ATOM      6  S   UNL     1       4.578   4.209  19.239  0.00  0.00    +0.000 S 
ATOM      7  H   UNL     1       7.606   4.415  17.461  0.00  0.00    +0.000 HD
ENDROOT
BRANCH   1   8
ATOM      8  S   UNL     1       1.739   3.769  18.439  0.00  0.00    +0.000 S 
BRANCH   8  10
ATOM      9  C   UNL     1       1.310   2.965  21.017  0.00  0.00    +0.000 C 
ATOM     10  C   UNL     1       1.860   2.464  19.691  0.00  0.00    +0.000 C 
ENDBRANCH   8  10
ENDBRANCH   1   8
BRANCH   3  11
ATOM     11  C   UNL     1       5.919   3.749  15.524  0.00  0.00    +0.000 C 
BRANCH  11  12
ATOM     12  C   UNL     1       6.345   5.030  14.805  0.00  0.00    +0.000 C 
BRANCH  12  13
ATOM     13  O   UNL     1       7.593   5.514  15.303  0.00  0.00    +0.000 OA
ATOM     14  H   UNL     1       8.300   5.100  14.770  0.00  0.00    +0.000 HD
ENDBRANCH  12  13
ENDBRANCH  11  12
ENDBRANCH   3  11
TORSDOF 5
ENDMDL
MODEL 4
REMARK VINA RESULT:      -4.8      2.283      2.722
REMARK  Name = 
REMARK  6 active torsions:
REMARK  status: ('A' for Active; 'I' for Inactive)
REMARK    1  A    between atoms: C_1  and  C_2
REMARK    2  A    between atoms: C_2  and  S_3
REMARK    3  A    between atoms: S_3  and  C_4
REMARK    4  A    between atoms: N_6  and  C_7
REMARK    5  A    between atoms: C_7  and  C_8
REMARK    6  A    between atoms: C_8  and  O_9
REMARK                            x       y       z     vdW  Elec       q    Type
REMARK                         _______ _______ _______ _____ _____    ______ ____
ROOT
ATOM      1  C   UNL     1       3.853   4.277  17.896  0.00  0.00    +0.000 A 
ATOM      2  N   UNL     1       4.777   4.242  16.984  0.00  0.00    +0.000 NA
ATOM      3  N   UNL     1       5.960   4.677  17.549  0.00  0.00    +0.000 N 
ATOM      4  C   UNL     1       5.934   5.003  18.886  0.00  0.00    +0.000 A 
ATOM      5  N   UNL     1       6.857   5.405  19.680  0.00  0.00    +0.000 NA
ATOM      6  S   UNL     1       4.306   4.805  19.499  0.00  0.00    +0.000 S 
ATOM      7  H   UNL     1       7.739   5.495  19.157  0.00  0.00    +0.000 HD
ENDROOT
BRANCH   1   8
ATOM      8  S   UNL     1       2.195   3.852  17.620  0.00  0.00    +0.000 S 
BRANCH   8  10
ATOM      9  C   UNL     1       0.896   3.087  19.903  0.00  0.00    +0.000 C 
ATOM     10  C   UNL     1       1.956   2.612  18.921  0.00  0.00    +0.000 C 
ENDBRANCH   8  10
ENDBRANCH   1   8
BRANCH   3  11
ATOM     11  C   UNL     1       7.177   4.493  16.764  0.00  0.00    +0.000 C 
BRANCH  11  12
ATOM     12  C   UNL     1       6.920   4.657  15.266  0.00  0.00    +0.000 C 
BRANCH  12  13
ATOM     13  O   UNL     1       6.195   5.856  14.992  0.00  0.00    +0.000 OA
ATOM     14  H   UNL     1       5.251   5.615  14.916  0.00  0.00    +0.000 HD
ENDBRANCH  12  13
ENDBRANCH  11  12
ENDBRANCH   3  11
TORSDOF 5
ENDMDL
MODEL 5
REMARK VINA RESULT:      -4.8      2.660      4.788
REMARK  Name = 
REMARK  6 active torsions:
REMARK  status: ('A' for Active; 'I' for Inactive)
REMARK    1  A    between atoms: C_1  and  C_2
REMARK    2  A    between atoms: C_2  and  S_3
REMARK    3  A    between atoms: S_3  and  C_4
REMARK    4  A    between atoms: N_6  and  C_7
REMARK    5  A    between atoms: C_7  and  C_8
REMARK    6  A    between atoms: C_8  and  O_9
REMARK                            x       y       z     vdW  Elec       q    Type
REMARK                         _______ _______ _______ _____ _____    ______ ____
ROOT
ATOM      1  C   UNL     1       5.686   4.325  18.127  0.00  0.00    +0.000 A 
ATOM      2  N   UNL     1       5.174   3.980  19.269  0.00  0.00    +0.000 NA
ATOM      3  N   UNL     1       3.859   3.612  19.061  0.00  0.00    +0.000 N 
ATOM      4  C   UNL     1       3.396   3.647  17.765  0.00  0.00    +0.000 A 
ATOM      5  N   UNL     1       2.255   3.347  17.263  0.00  0.00    +0.000 NA
ATOM      6  S   UNL     1       4.668   4.226  16.711  0.00  0.00    +0.000 S 
ATOM      7  H   UNL     1       1.619   3.054  18.017  0.00  0.00    +0.000 HD
ENDROOT
BRANCH   1   8
ATOM      8  S   UNL     1       7.310   4.898  17.920  0.00  0.00    +0.000 S 
BRANCH   8  10
ATOM      9  C   UNL     1       7.652   7.595  17.623  0.00  0.00    +0.000 C 
ATOM     10  C   UNL     1       7.005   6.396  16.946  0.00  0.00    +0.000 C 
ENDBRANCH   8  10
ENDBRANCH   1   8
BRANCH   3  11
ATOM     11  C   UNL     1       3.168   2.964  20.171  0.00  0.00    +0.000 C 
BRANCH  11  12
ATOM     12  C   UNL     1       2.259   3.937  20.923  0.00  0.00    +0.000 C 
BRANCH  12  13
ATOM     13  O   UNL     1       2.743   5.278  20.829  0.00  0.00    +0.000 OA
ATOM     14  H   UNL     1       2.278   5.704  20.082  0.00  0.00    +0.000 HD
ENDBRANCH  12  13
ENDBRANCH  11  12
ENDBRANCH   3  11
TORSDOF 5
ENDMDL
MODEL 6
REMARK VINA RESULT:      -4.7      3.007      5.086
REMARK  Name = 
REMARK  6 active torsions:
REMARK  status: ('A' for Active; 'I' for Inactive)
REMARK    1  A    between atoms: C_1  and  C_2
REMARK    2  A    between atoms: C_2  and  S_3
REMARK    3  A    between atoms: S_3  and  C_4
REMARK    4  A    between atoms: N_6  and  C_7
REMARK    5  A    between atoms: C_7  and  C_8
REMARK    6  A    between atoms: C_8  and  O_9
REMARK                            x       y       z     vdW  Elec       q    Type
REMARK                         _______ _______ _______ _____ _____    ______ ____
ROOT
ATOM      1  C   UNL     1       4.048   4.467  18.750  0.00  0.00    +0.000 A 
ATOM      2  N   UNL     1       3.139   4.733  19.638  0.00  0.00    +0.000 NA
ATOM      3  N   UNL     1       2.104   3.830  19.482  0.00  0.00    +0.000 N 
ATOM      4  C   UNL     1       2.251   2.871  18.506  0.00  0.00    +0.000 A 
ATOM      5  N   UNL     1       1.491   1.903  18.146  0.00  0.00    +0.000 NA
ATOM      6  S   UNL     1       3.770   3.120  17.672  0.00  0.00    +0.000 S 
ATOM      7  H   UNL     1       0.634   1.916  18.714  0.00  0.00    +0.000 HD
ENDROOT
BRANCH   1   8
ATOM      8  S   UNL     1       5.513   5.375  18.553  0.00  0.00    +0.000 S 
BRANCH   8  10
ATOM      9  C   UNL     1       5.320   6.169  15.943  0.00  0.00    +0.000 C 
ATOM     10  C   UNL     1       4.966   6.618  17.352  0.00  0.00    +0.000 C 
ENDBRANCH   8  10
ENDBRANCH   1   8
BRANCH   3  11
ATOM     11  C   UNL     1       1.087   3.800  20.528  0.00  0.00    +0.000 C 
BRANCH  11  12
ATOM     12  C   UNL     1       1.354   2.696  21.552  0.00  0.00    +0.000 C 
BRANCH  12  13
ATOM     13  O   UNL     1       2.686   2.772  22.062  0.00  0.00    +0.000 OA
ATOM     14  H   UNL     1       2.758   2.118  22.786  0.00  0.00    +0.000 HD
ENDBRANCH  12  13
ENDBRANCH  11  12
ENDBRANCH   3  11
TORSDOF 5
ENDMDL
MODEL 7
REMARK VINA RESULT:      -4.7      2.720      3.136
REMARK  Name = 
REMARK  6 active torsions:
REMARK  status: ('A' for Active; 'I' for Inactive)
REMARK    1  A    between atoms: C_1  and  C_2
REMARK    2  A    between atoms: C_2  and  S_3
REMARK    3  A    between atoms: S_3  and  C_4
REMARK    4  A    between atoms: N_6  and  C_7
REMARK    5  A    between atoms: C_7  and  C_8
REMARK    6  A    between atoms: C_8  and  O_9
REMARK                            x       y       z     vdW  Elec       q    Type
REMARK                         _______ _______ _______ _____ _____    ______ ____
ROOT
ATOM      1  C   UNL     1       4.079   3.487  17.655  0.00  0.00    +0.000 A 
ATOM      2  N   UNL     1       4.774   3.798  16.603  0.00  0.00    +0.000 NA
ATOM      3  N   UNL     1       5.913   4.461  17.016  0.00  0.00    +0.000 N 
ATOM      4  C   UNL     1       6.090   4.618  18.372  0.00  0.00    +0.000 A 
ATOM      5  N   UNL     1       7.038   5.157  19.047  0.00  0.00    +0.000 NA
ATOM      6  S   UNL     1       4.720   3.932  19.218  0.00  0.00    +0.000 S 
ATOM      7  H   UNL     1       7.744   5.532  18.401  0.00  0.00    +0.000 HD
ENDROOT
BRANCH   1   8
ATOM      8  S   UNL     1       2.547   2.675  17.607  0.00  0.00    +0.000 S 
BRANCH   8  10
ATOM      9  C   UNL     1       1.047   3.097  19.855  0.00  0.00    +0.000 C 
ATOM     10  C   UNL     1       1.547   3.809  18.607  0.00  0.00    +0.000 C 
ENDBRANCH   8  10
ENDBRANCH   1   8
BRANCH   3  11
ATOM     11  C   UNL     1       6.947   4.692  16.012  0.00  0.00    +0.000 C 
BRANCH  11  12
ATOM     12  C   UNL     1       6.370   4.733  14.597  0.00  0.00    +0.000 C 
BRANCH  12  13
ATOM     13  O   UNL     1       6.402   3.443  13.985  0.00  0.00    +0.000 OA
ATOM     14  H   UNL     1       5.478   3.185  13.800  0.00  0.00    +0.000 HD
ENDBRANCH  12  13
ENDBRANCH  11  12
ENDBRANCH   3  11
TORSDOF 5
ENDMDL
MODEL 8
REMARK VINA RESULT:      -4.7      3.494      5.019
REMARK  Name = 
REMARK  6 active torsions:
REMARK  status: ('A' for Active; 'I' for Inactive)
REMARK    1  A    between atoms: C_1  and  C_2
REMARK    2  A    between atoms: C_2  and  S_3
REMARK    3  A    between atoms: S_3  and  C_4
REMARK    4  A    between atoms: N_6  and  C_7
REMARK    5  A    between atoms: C_7  and  C_8
REMARK    6  A    between atoms: C_8  and  O_9
REMARK                            x       y       z     vdW  Elec       q    Type
REMARK                         _______ _______ _______ _____ _____    ______ ____
ROOT
ATOM      1  C   UNL     1       3.696   5.026  18.336  0.00  0.00    +0.000 A 
ATOM      2  N   UNL     1       3.189   4.755  19.500  0.00  0.00    +0.000 NA
ATOM      3  N   UNL     1       3.171   3.382  19.655  0.00  0.00    +0.000 N 
ATOM      4  C   UNL     1       3.692   2.629  18.628  0.00  0.00    +0.000 A 
ATOM      5  N   UNL     1       3.834   1.361  18.492  0.00  0.00    +0.000 NA
ATOM      6  S   UNL     1       4.211   3.690  17.336  0.00  0.00    +0.000 S 
ATOM      7  H   UNL     1       3.456   0.887  19.323  0.00  0.00    +0.000 HD
ENDROOT
BRANCH   1   8
ATOM      8  S   UNL     1       3.876   6.631  17.701  0.00  0.00    +0.000 S 
BRANCH   8  10
ATOM      9  C   UNL     1       2.136   8.739  17.791  0.00  0.00    +0.000 C 
ATOM     10  C   UNL     1       2.506   7.469  18.542  0.00  0.00    +0.000 C 
ENDBRANCH   8  10
ENDBRANCH   1   8
BRANCH   3  11
ATOM     11  C   UNL     1       2.859   2.869  20.985  0.00  0.00    +0.000 C 
BRANCH  11  12
ATOM     12  C   UNL     1       1.352   2.730  21.205  0.00  0.00    +0.000 C 
BRANCH  12  13
ATOM     13  O   UNL     1       0.619   3.598  20.340  0.00  0.00    +0.000 OA
ATOM     14  H   UNL     1       0.090   4.195  20.906  0.00  0.00    +0.000 HD
ENDBRANCH  12  13
ENDBRANCH  11  12
ENDBRANCH   3  11
TORSDOF 5
ENDMDL
MODEL 9
REMARK VINA RESULT:      -4.7      3.134      4.978
REMARK  Name = 
REMARK  6 active torsions:
REMARK  status: ('A' for Active; 'I' for Inactive)
REMARK    1  A    between atoms: C_1  and  C_2
REMARK    2  A    between atoms: C_2  and  S_3
REMARK    3  A    between atoms: S_3  and  C_4
REMARK    4  A    between atoms: N_6  and  C_7
REMARK    5  A    between atoms: C_7  and  C_8
REMARK    6  A    between atoms: C_8  and  O_9
REMARK                            x       y       z     vdW  Elec       q    Type
REMARK                         _______ _______ _______ _____ _____    ______ ____
ROOT
ATOM      1  C   UNL     1       3.921   5.414  18.006  0.00  0.00    +0.000 A 
ATOM      2  N   UNL     1       3.108   4.514  17.541  0.00  0.00    +0.000 NA
ATOM      3  N   UNL     1       3.436   3.299  18.111  0.00  0.00    +0.000 N 
ATOM      4  C   UNL     1       4.465   3.293  19.025  0.00  0.00    +0.000 A 
ATOM      5  N   UNL     1       4.972   2.346  19.725  0.00  0.00    +0.000 NA
ATOM      6  S   UNL     1       5.123   4.909  19.168  0.00  0.00    +0.000 S 
ATOM      7  H   UNL     1       4.492   1.464  19.502  0.00  0.00    +0.000 HD
ENDROOT
BRANCH   1   8
ATOM      8  S   UNL     1       3.901   7.083  17.533  0.00  0.00    +0.000 S 
BRANCH   8  10
ATOM      9  C   UNL     1       1.881   8.909  17.782  0.00  0.00    +0.000 C 
ATOM     10  C   UNL     1       2.446   7.663  18.445  0.00  0.00    +0.000 C 
ENDBRANCH   8  10
ENDBRANCH   1   8
BRANCH   3  11
ATOM     11  C   UNL     1       2.500   2.198  17.908  0.00  0.00    +0.000 C 
BRANCH  11  12
ATOM     12  C   UNL     1       1.337   2.246  18.899  0.00  0.00    +0.000 C 
BRANCH  12  13
ATOM     13  O   UNL     1       1.011   3.591  19.252  0.00  0.00    +0.000 OA
ATOM     14  H   UNL     1       1.577   3.839  20.010  0.00  0.00    +0.000 HD
ENDBRANCH  12  13
ENDBRANCH  11  12
ENDBRANCH   3  11
TORSDOF 5
ENDMDL
