MODEL 1
REMARK VINA RESULT:      -7.4      0.000      0.000
REMARK  Name = 
REMARK  12 active torsions:
REMARK  status: ('A' for Active; 'I' for Inactive)
REMARK    1  A    between atoms: C_1  and  O_2
REMARK    2  A    between atoms: O_2  and  C_3
REMARK    3  A    between atoms: C_3  and  C_5
REMARK    4  A    between atoms: C_5  and  N_6
REMARK    5  A    between atoms: C_5  and  C_7
REMARK    6  A    between atoms: C_7  and  C_8
REMARK    7  A    between atoms: C_8  and  S_9
REMARK    8  A    between atoms: S_9  and  C_10
REMARK    9  A    between atoms: C_10  and  C_11
REMARK   10  A    between atoms: C_13  and  N_14
REMARK   11  A    between atoms: C_24  and  O_25
REMARK   12  A    between atoms: C_26  and  O_27
REMARK                            x       y       z     vdW  Elec       q    Type
REMARK                         _______ _______ _______ _____ _____    ______ ____
ROOT
ATOM      1  C   UNL     1       2.143   2.697  17.849  0.00  0.00    +0.000 C 
ATOM      2  O   UNL     1       3.070   3.374  16.969  0.00  0.00    +0.000 OA
ATOM      3  C   UNL     1       4.362   3.443  17.607  0.00  0.00    +0.000 C 
ATOM      4  C   UNL     1       4.181   3.057  19.073  0.00  0.00    +0.000 C 
ATOM      5  C   UNL     1       2.992   2.111  18.983  0.00  0.00    +0.000 C 
ENDROOT
BRANCH   3   6
ATOM      6  N   UNL     1       4.972   4.742  17.374  0.00  0.00    +0.000 N 
ATOM      7  C   UNL     1       4.484   5.663  16.471  0.00  0.00    +0.000 A 
ATOM      8  C   UNL     1       5.327   6.751  16.471  0.00  0.00    +0.000 A 
ATOM      9  C   UNL     1       6.358   6.495  17.413  0.00  0.00    +0.000 A 
ATOM     10  C   UNL     1       7.498   7.173  17.869  0.00  0.00    +0.000 A 
ATOM     11  N   UNL     1       7.898   8.408  17.382  0.00  0.00    +0.000 N 
ATOM     12  N   UNL     1       8.251   6.609  18.831  0.00  0.00    +0.000 NA
ATOM     13  C   UNL     1       7.896   5.389  19.279  0.00  0.00    +0.000 A 
ATOM     14  N   UNL     1       6.861   4.623  18.890  0.00  0.00    +0.000 NA
ATOM     15  C   UNL     1       6.111   5.241  17.963  0.00  0.00    +0.000 A 
ATOM     16  H   UNL     1       7.178   8.968  16.949  0.00  0.00    +0.000 HD
ATOM     17  H   UNL     1       8.536   8.874  18.014  0.00  0.00    +0.000 HD
ENDBRANCH   3   6
BRANCH   4  18
ATOM     18  O   UNL     1       5.329   2.391  19.610  0.00  0.00    +0.000 OA
ATOM     19  H   UNL     1       5.531   1.656  18.992  0.00  0.00    +0.000 HD
ENDBRANCH   4  18
BRANCH   5  20
ATOM     20  O   UNL     1       3.497   0.802  18.636  0.00  0.00    +0.000 OA
ATOM     21  H   UNL     1       3.825   0.824  17.718  0.00  0.00    +0.000 HD
ENDBRANCH   5  20
BRANCH   1  22
ATOM     22  C   UNL     1       1.050   3.653  18.364  0.00  0.00    +0.000 C 
BRANCH  22  23
ATOM     23  S   UNL     1       0.879   3.545  20.184  0.00  0.00    +0.000 S 
BRANCH  23  24
ATOM     24  C   UNL     1       1.845   5.018  20.675  0.00  0.00    +0.000 C 
BRANCH  24  25
ATOM     25  C   UNL     1       1.921   5.973  19.481  0.00  0.00    +0.000 C 
BRANCH  25  26
ATOM     26  C   UNL     1       2.307   7.410  19.857  0.00  0.00    +0.000 C 
BRANCH  26  27
ATOM     27  N   UNL     1       1.675   7.804  21.142  0.00  0.00    +0.000 NA
ATOM     28  H   UNL     1       2.412   8.141  21.767  0.00  0.00    +0.000 HD
ATOM     29  H   UNL     1       1.349   6.950  21.602  0.00  0.00    +0.000 HD
ENDBRANCH  26  27
BRANCH  26  30
ATOM     30  C   UNL     1       1.876   8.388  18.742  0.00  0.00    +0.000 C 
ATOM     31  O   UNL     1       2.248   8.312  17.578  0.00  0.00    +0.000 OA
BRANCH  30  33
ATOM     32  C   UNL     1       1.165  10.623  18.675  0.00  0.00    +0.000 C 
ATOM     33  O   UNL     1       1.004   9.316  19.227  0.00  0.00    +0.000 OA
ENDBRANCH  30  33
ENDBRANCH  26  30
ENDBRANCH  25  26
ENDBRANCH  24  25
ENDBRANCH  23  24
ENDBRANCH  22  23
ENDBRANCH   1  22
TORSDOF 11
ENDMDL
MODEL 2
REMARK VINA RESULT:      -7.2      3.175      6.460
REMARK  Name = 
REMARK  12 active torsions:
REMARK  status: ('A' for Active; 'I' for Inactive)
REMARK    1  A    between atoms: C_1  and  O_2
REMARK    2  A    between atoms: O_2  and  C_3
REMARK    3  A    between atoms: C_3  and  C_5
REMARK    4  A    between atoms: C_5  and  N_6
REMARK    5  A    between atoms: C_5  and  C_7
REMARK    6  A    between atoms: C_7  and  C_8
REMARK    7  A    between atoms: C_8  and  S_9
REMARK    8  A    between atoms: S_9  and  C_10
REMARK    9  A    between atoms: C_10  and  C_11
REMARK   10  A    between atoms: C_13  and  N_14
REMARK   11  A    between atoms: C_24  and  O_25
REMARK   12  A    between atoms: C_26  and  O_27
REMARK                            x       y       z     vdW  Elec       q    Type
REMARK                         _______ _______ _______ _____ _____    ______ ____
ROOT
ATOM      1  C   UNL     1       4.510   4.202  19.420  0.00  0.00    +0.000 C 
ATOM      2  O   UNL     1       4.231   5.582  19.752  0.00  0.00    +0.000 OA
ATOM      3  C   UNL     1       2.803   5.765  19.849  0.00  0.00    +0.000 C 
ATOM      4  C   UNL     1       2.133   4.524  19.267  0.00  0.00    +0.000 C 
ATOM      5  C   UNL     1       3.178   3.458  19.564  0.00  0.00    +0.000 C 
ENDROOT
BRANCH   3   6
ATOM      6  N   UNL     1       2.414   7.028  19.243  0.00  0.00    +0.000 N 
ATOM      7  C   UNL     1       2.755   7.397  17.958  0.00  0.00    +0.000 A 
ATOM      8  C   UNL     1       2.268   8.664  17.732  0.00  0.00    +0.000 A 
ATOM      9  C   UNL     1       1.597   9.082  18.912  0.00  0.00    +0.000 A 
ATOM     10  C   UNL     1       0.915  10.235  19.328  0.00  0.00    +0.000 A 
ATOM     11  N   UNL     1       0.772  11.365  18.538  0.00  0.00    +0.000 N 
ATOM     12  N   UNL     1       0.362  10.258  20.554  0.00  0.00    +0.000 NA
ATOM     13  C   UNL     1       0.534   9.182  21.347  0.00  0.00    +0.000 A 
ATOM     14  N   UNL     1       1.203   8.046  21.081  0.00  0.00    +0.000 NA
ATOM     15  C   UNL     1       1.700   8.045  19.833  0.00  0.00    +0.000 A 
ATOM     16  H   UNL     1       0.862  11.224  17.542  0.00  0.00    +0.000 HD
ATOM     17  H   UNL     1       0.018  11.958  18.860  0.00  0.00    +0.000 HD
ENDBRANCH   3   6
BRANCH   4  18
ATOM     18  O   UNL     1       0.890   4.220  19.909  0.00  0.00    +0.000 OA
ATOM     19  H   UNL     1       1.120   3.903  20.809  0.00  0.00    +0.000 HD
ENDBRANCH   4  18
BRANCH   5  20
ATOM     20  O   UNL     1       2.973   3.008  20.921  0.00  0.00    +0.000 OA
ATOM     21  H   UNL     1       3.503   2.204  21.071  0.00  0.00    +0.000 HD
ENDBRANCH   5  20
BRANCH   1  22
ATOM     22  C   UNL     1       5.111   4.070  18.007  0.00  0.00    +0.000 C 
BRANCH  22  23
ATOM     23  S   UNL     1       5.995   5.597  17.519  0.00  0.00    +0.000 S 
BRANCH  23  24
ATOM     24  C   UNL     1       5.383   5.777  15.805  0.00  0.00    +0.000 C 
BRANCH  24  25
ATOM     25  C   UNL     1       5.370   4.396  15.144  0.00  0.00    +0.000 C 
BRANCH  25  26
ATOM     26  C   UNL     1       6.623   4.094  14.310  0.00  0.00    +0.000 C 
BRANCH  26  27
ATOM     27  N   UNL     1       7.565   5.241  14.344  0.00  0.00    +0.000 NA
ATOM     28  H   UNL     1       7.135   5.989  14.895  0.00  0.00    +0.000 HD
ATOM     29  H   UNL     1       7.605   5.638  13.401  0.00  0.00    +0.000 HD
ENDBRANCH  26  27
BRANCH  26  30
ATOM     30  C   UNL     1       6.229   3.786  12.849  0.00  0.00    +0.000 C 
ATOM     31  O   UNL     1       7.030   3.665  11.930  0.00  0.00    +0.000 OA
BRANCH  30  33
ATOM     32  C   UNL     1       4.445   3.146  11.466  0.00  0.00    +0.000 C 
ATOM     33  O   UNL     1       4.880   3.634  12.736  0.00  0.00    +0.000 OA
ENDBRANCH  30  33
ENDBRANCH  26  30
ENDBRANCH  25  26
ENDBRANCH  24  25
ENDBRANCH  23  24
ENDBRANCH  22  23
ENDBRANCH   1  22
TORSDOF 11
ENDMDL
MODEL 3
REMARK VINA RESULT:      -7.0      2.674      5.474
REMARK  Name = 
REMARK  12 active torsions:
REMARK  status: ('A' for Active; 'I' for Inactive)
REMARK    1  A    between atoms: C_1  and  O_2
REMARK    2  A    between atoms: O_2  and  C_3
REMARK    3  A    between atoms: C_3  and  C_5
REMARK    4  A    between atoms: C_5  and  N_6
REMARK    5  A    between atoms: C_5  and  C_7
REMARK    6  A    between atoms: C_7  and  C_8
REMARK    7  A    between atoms: C_8  and  S_9
REMARK    8  A    between atoms: S_9  and  C_10
REMARK    9  A    between atoms: C_10  and  C_11
REMARK   10  A    between atoms: C_13  and  N_14
REMARK   11  A    between atoms: C_24  and  O_25
REMARK   12  A    between atoms: C_26  and  O_27
REMARK                            x       y       z     vdW  Elec       q    Type
REMARK                         _______ _______ _______ _____ _____    ______ ____
ROOT
ATOM      1  C   UNL     1       3.807   3.565  18.861  0.00  0.00    +0.000 C 
ATOM      2  O   UNL     1       4.004   4.982  19.073  0.00  0.00    +0.000 OA
ATOM      3  C   UNL     1       2.835   5.530  19.718  0.00  0.00    +0.000 C 
ATOM      4  C   UNL     1       1.729   4.481  19.648  0.00  0.00    +0.000 C 
ATOM      5  C   UNL     1       2.542   3.195  19.644  0.00  0.00    +0.000 C 
ENDROOT
BRANCH   3   6
ATOM      6  N   UNL     1       2.505   6.825  19.146  0.00  0.00    +0.000 N 
ATOM      7  C   UNL     1       2.903   7.231  17.890  0.00  0.00    +0.000 A 
ATOM      8  C   UNL     1       2.462   8.519  17.694  0.00  0.00    +0.000 A 
ATOM      9  C   UNL     1       1.760   8.914  18.864  0.00  0.00    +0.000 A 
ATOM     10  C   UNL     1       1.095  10.070  19.299  0.00  0.00    +0.000 A 
ATOM     11  N   UNL     1       1.014  11.233  18.547  0.00  0.00    +0.000 N 
ATOM     12  N   UNL     1       0.498  10.065  20.504  0.00  0.00    +0.000 NA
ATOM     13  C   UNL     1       0.610   8.956  21.262  0.00  0.00    +0.000 A 
ATOM     14  N   UNL     1       1.256   7.810  20.977  0.00  0.00    +0.000 NA
ATOM     15  C   UNL     1       1.798   7.841  19.749  0.00  0.00    +0.000 A 
ATOM     16  H   UNL     1       1.138  11.126  17.551  0.00  0.00    +0.000 HD
ATOM     17  H   UNL     1       0.266  11.835  18.864  0.00  0.00    +0.000 HD
ENDBRANCH   3   6
BRANCH   4  18
ATOM     18  O   UNL     1       0.852   4.532  20.779  0.00  0.00    +0.000 OA
ATOM     19  H   UNL     1      -0.059   4.470  20.420  0.00  0.00    +0.000 HD
ENDBRANCH   4  18
BRANCH   5  20
ATOM     20  O   UNL     1       2.853   2.867  21.017  0.00  0.00    +0.000 OA
ATOM     21  H   UNL     1       3.374   2.043  21.034  0.00  0.00    +0.000 HD
ENDBRANCH   5  20
BRANCH   1  22
ATOM     22  C   UNL     1       3.695   3.227  17.363  0.00  0.00    +0.000 C 
BRANCH  22  23
ATOM     23  S   UNL     1       4.883   4.207  16.372  0.00  0.00    +0.000 S 
BRANCH  23  24
ATOM     24  C   UNL     1       6.417   3.878  17.311  0.00  0.00    +0.000 C 
BRANCH  24  25
ATOM     25  C   UNL     1       7.430   4.981  16.994  0.00  0.00    +0.000 C 
BRANCH  25  26
ATOM     26  C   UNL     1       7.786   5.863  18.199  0.00  0.00    +0.000 C 
BRANCH  26  27
ATOM     27  N   UNL     1       6.937   5.522  19.369  0.00  0.00    +0.000 NA
ATOM     28  H   UNL     1       6.587   6.396  19.772  0.00  0.00    +0.000 HD
ATOM     29  H   UNL     1       7.551   5.156  20.101  0.00  0.00    +0.000 HD
ENDBRANCH  26  27
BRANCH  26  30
ATOM     30  C   UNL     1       7.605   7.355  17.840  0.00  0.00    +0.000 C 
ATOM     31  O   UNL     1       6.774   7.777  17.046  0.00  0.00    +0.000 OA
BRANCH  30  33
ATOM     32  C   UNL     1       8.450   9.513  18.203  0.00  0.00    +0.000 C 
ATOM     33  O   UNL     1       8.470   8.129  18.554  0.00  0.00    +0.000 OA
ENDBRANCH  30  33
ENDBRANCH  26  30
ENDBRANCH  25  26
ENDBRANCH  24  25
ENDBRANCH  23  24
ENDBRANCH  22  23
ENDBRANCH   1  22
TORSDOF 11
ENDMDL
MODEL 4
REMARK VINA RESULT:      -6.9      2.662      5.631
REMARK  Name = 
REMARK  12 active torsions:
REMARK  status: ('A' for Active; 'I' for Inactive)
REMARK    1  A    between atoms: C_1  and  O_2
REMARK    2  A    between atoms: O_2  and  C_3
REMARK    3  A    between atoms: C_3  and  C_5
REMARK    4  A    between atoms: C_5  and  N_6
REMARK    5  A    between atoms: C_5  and  C_7
REMARK    6  A    between atoms: C_7  and  C_8
REMARK    7  A    between atoms: C_8  and  S_9
REMARK    8  A    between atoms: S_9  and  C_10
REMARK    9  A    between atoms: C_10  and  C_11
REMARK   10  A    between atoms: C_13  and  N_14
REMARK   11  A    between atoms: C_24  and  O_25
REMARK   12  A    between atoms: C_26  and  O_27
REMARK                            x       y       z     vdW  Elec       q    Type
REMARK                         _______ _______ _______ _____ _____    ______ ____
ROOT
ATOM      1  C   UNL     1       3.648   3.168  20.671  0.00  0.00    +0.000 C 
ATOM      2  O   UNL     1       3.566   4.612  20.719  0.00  0.00    +0.000 OA
ATOM      3  C   UNL     1       2.211   5.017  20.431  0.00  0.00    +0.000 C 
ATOM      4  C   UNL     1       1.465   3.802  19.887  0.00  0.00    +0.000 C 
ATOM      5  C   UNL     1       2.201   2.668  20.586  0.00  0.00    +0.000 C 
ENDROOT
BRANCH   3   6
ATOM      6  N   UNL     1       2.209   6.189  19.571  0.00  0.00    +0.000 N 
ATOM      7  C   UNL     1       2.718   6.198  18.289  0.00  0.00    +0.000 A 
ATOM      8  C   UNL     1       2.598   7.474  17.788  0.00  0.00    +0.000 A 
ATOM      9  C   UNL     1       1.983   8.272  18.789  0.00  0.00    +0.000 A 
ATOM     10  C   UNL     1       1.601   9.616  18.913  0.00  0.00    +0.000 A 
ATOM     11  N   UNL     1       1.813  10.564  17.924  0.00  0.00    +0.000 N 
ATOM     12  N   UNL     1       0.994  10.019  20.044  0.00  0.00    +0.000 NA
ATOM     13  C   UNL     1       0.824   9.115  21.029  0.00  0.00    +0.000 A 
ATOM     14  N   UNL     1       1.188   7.820  21.047  0.00  0.00    +0.000 NA
ATOM     15  C   UNL     1       1.749   7.448  19.885  0.00  0.00    +0.000 A 
ATOM     16  H   UNL     1       1.929  10.209  16.986  0.00  0.00    +0.000 HD
ATOM     17  H   UNL     1       1.221  11.375  18.047  0.00  0.00    +0.000 HD
ENDBRANCH   3   6
BRANCH   4  18
ATOM     18  O   UNL     1       0.077   3.809  20.239  0.00  0.00    +0.000 OA
ATOM     19  H   UNL     1      -0.409   4.051  19.421  0.00  0.00    +0.000 HD
ENDBRANCH   4  18
BRANCH   5  20
ATOM     20  O   UNL     1       1.622   2.513  21.901  0.00  0.00    +0.000 OA
ATOM     21  H   UNL     1       2.259   2.047  22.474  0.00  0.00    +0.000 HD
ENDBRANCH   5  20
BRANCH   1  22
ATOM     22  C   UNL     1       4.508   2.689  19.487  0.00  0.00    +0.000 C 
BRANCH  22  23
ATOM     23  S   UNL     1       3.501   2.505  17.968  0.00  0.00    +0.000 S 
BRANCH  23  24
ATOM     24  C   UNL     1       4.392   3.659  16.864  0.00  0.00    +0.000 C 
BRANCH  24  25
ATOM     25  C   UNL     1       5.595   4.229  17.620  0.00  0.00    +0.000 C 
BRANCH  25  26
ATOM     26  C   UNL     1       6.885   4.278  16.789  0.00  0.00    +0.000 C 
BRANCH  26  27
ATOM     27  N   UNL     1       8.079   4.186  17.667  0.00  0.00    +0.000 NA
ATOM     28  H   UNL     1       7.945   3.393  18.302  0.00  0.00    +0.000 HD
ATOM     29  H   UNL     1       8.065   4.994  18.295  0.00  0.00    +0.000 HD
ENDBRANCH  26  27
BRANCH  26  30
ATOM     30  C   UNL     1       6.941   5.585  15.968  0.00  0.00    +0.000 C 
ATOM     31  O   UNL     1       6.559   6.674  16.379  0.00  0.00    +0.000 OA
BRANCH  30  33
ATOM     32  C   UNL     1       6.730   4.528  13.884  0.00  0.00    +0.000 C 
ATOM     33  O   UNL     1       7.504   5.362  14.747  0.00  0.00    +0.000 OA
ENDBRANCH  30  33
ENDBRANCH  26  30
ENDBRANCH  25  26
ENDBRANCH  24  25
ENDBRANCH  23  24
ENDBRANCH  22  23
ENDBRANCH   1  22
TORSDOF 11
ENDMDL
MODEL 5
REMARK VINA RESULT:      -6.8      3.583      6.906
REMARK  Name = 
REMARK  12 active torsions:
REMARK  status: ('A' for Active; 'I' for Inactive)
REMARK    1  A    between atoms: C_1  and  O_2
REMARK    2  A    between atoms: O_2  and  C_3
REMARK    3  A    between atoms: C_3  and  C_5
REMARK    4  A    between atoms: C_5  and  N_6
REMARK    5  A    between atoms: C_5  and  C_7
REMARK    6  A    between atoms: C_7  and  C_8
REMARK    7  A    between atoms: C_8  and  S_9
REMARK    8  A    between atoms: S_9  and  C_10
REMARK    9  A    between atoms: C_10  and  C_11
REMARK   10  A    between atoms: C_13  and  N_14
REMARK   11  A    between atoms: C_24  and  O_25
REMARK   12  A    between atoms: C_26  and  O_27
REMARK                            x       y       z     vdW  Elec       q    Type
REMARK                         _______ _______ _______ _____ _____    ______ ____
ROOT
ATOM      1  C   UNL     1       4.255   3.770  19.035  0.00  0.00    +0.000 C 
ATOM      2  O   UNL     1       4.290   5.200  19.257  0.00  0.00    +0.000 OA
ATOM      3  C   UNL     1       3.024   5.623  19.804  0.00  0.00    +0.000 C 
ATOM      4  C   UNL     1       2.038   4.469  19.650  0.00  0.00    +0.000 C 
ATOM      5  C   UNL     1       2.975   3.271  19.715  0.00  0.00    +0.000 C 
ENDROOT
BRANCH   3   6
ATOM      6  N   UNL     1       2.612   6.882  19.204  0.00  0.00    +0.000 N 
ATOM      7  C   UNL     1       3.032   7.310  17.962  0.00  0.00    +0.000 A 
ATOM      8  C   UNL     1       2.492   8.555  17.733  0.00  0.00    +0.000 A 
ATOM      9  C   UNL     1       1.705   8.897  18.865  0.00  0.00    +0.000 A 
ATOM     10  C   UNL     1       0.926   9.996  19.256  0.00  0.00    +0.000 A 
ATOM     11  N   UNL     1       0.781  11.141  18.489  0.00  0.00    +0.000 N 
ATOM     12  N   UNL     1       0.277   9.948  20.434  0.00  0.00    +0.000 NA
ATOM     13  C   UNL     1       0.448   8.858  21.208  0.00  0.00    +0.000 A 
ATOM     14  N   UNL     1       1.201   7.770  20.965  0.00  0.00    +0.000 NA
ATOM     15  C   UNL     1       1.794   7.838  19.763  0.00  0.00    +0.000 A 
ATOM     16  H   UNL     1       0.958  11.038  17.500  0.00  0.00    +0.000 HD
ATOM     17  H   UNL     1      -0.030  11.680  18.765  0.00  0.00    +0.000 HD
ENDBRANCH   3   6
BRANCH   4  18
ATOM     18  O   UNL     1       1.074   4.426  20.708  0.00  0.00    +0.000 OA
ATOM     19  H   UNL     1       0.760   5.349  20.826  0.00  0.00    +0.000 HD
ENDBRANCH   4  18
BRANCH   5  20
ATOM     20  O   UNL     1       3.207   2.970  21.109  0.00  0.00    +0.000 OA
ATOM     21  H   UNL     1       2.522   2.347  21.416  0.00  0.00    +0.000 HD
ENDBRANCH   5  20
BRANCH   1  22
ATOM     22  C   UNL     1       4.297   3.430  17.533  0.00  0.00    +0.000 C 
BRANCH  22  23
ATOM     23  S   UNL     1       5.231   4.694  16.593  0.00  0.00    +0.000 S 
BRANCH  23  24
ATOM     24  C   UNL     1       5.970   3.635  15.298  0.00  0.00    +0.000 C 
BRANCH  24  25
ATOM     25  C   UNL     1       5.683   4.262  13.932  0.00  0.00    +0.000 C 
BRANCH  25  26
ATOM     26  C   UNL     1       6.355   3.533  12.759  0.00  0.00    +0.000 C 
BRANCH  26  27
ATOM     27  N   UNL     1       7.210   4.465  11.982  0.00  0.00    +0.000 NA
ATOM     28  H   UNL     1       7.386   4.044  11.065  0.00  0.00    +0.000 HD
ATOM     29  H   UNL     1       8.137   4.472  12.418  0.00  0.00    +0.000 HD
ENDBRANCH  26  27
BRANCH  26  30
ATOM     30  C   UNL     1       5.285   2.912  11.834  0.00  0.00    +0.000 C 
ATOM     31  O   UNL     1       4.281   3.499  11.451  0.00  0.00    +0.000 OA
BRANCH  30  33
ATOM     32  C   UNL     1       6.988   1.500  11.053  0.00  0.00    +0.000 C 
ATOM     33  O   UNL     1       5.633   1.642  11.482  0.00  0.00    +0.000 OA
ENDBRANCH  30  33
ENDBRANCH  26  30
ENDBRANCH  25  26
ENDBRANCH  24  25
ENDBRANCH  23  24
ENDBRANCH  22  23
ENDBRANCH   1  22
TORSDOF 11
ENDMDL
MODEL 6
REMARK VINA RESULT:      -6.8      4.458      7.085
REMARK  Name = 
REMARK  12 active torsions:
REMARK  status: ('A' for Active; 'I' for Inactive)
REMARK    1  A    between atoms: C_1  and  O_2
REMARK    2  A    between atoms: O_2  and  C_3
REMARK    3  A    between atoms: C_3  and  C_5
REMARK    4  A    between atoms: C_5  and  N_6
REMARK    5  A    between atoms: C_5  and  C_7
REMARK    6  A    between atoms: C_7  and  C_8
REMARK    7  A    between atoms: C_8  and  S_9
REMARK    8  A    between atoms: S_9  and  C_10
REMARK    9  A    between atoms: C_10  and  C_11
REMARK   10  A    between atoms: C_13  and  N_14
REMARK   11  A    between atoms: C_24  and  O_25
REMARK   12  A    between atoms: C_26  and  O_27
REMARK                            x       y       z     vdW  Elec       q    Type
REMARK                         _______ _______ _______ _____ _____    ______ ____
ROOT
ATOM      1  C   UNL     1       7.672   5.453  17.777  0.00  0.00    +0.000 C 
ATOM      2  O   UNL     1       6.619   4.595  18.273  0.00  0.00    +0.000 OA
ATOM      3  C   UNL     1       5.502   4.643  17.361  0.00  0.00    +0.000 C 
ATOM      4  C   UNL     1       5.734   5.804  16.399  0.00  0.00    +0.000 C 
ATOM      5  C   UNL     1       7.255   5.853  16.357  0.00  0.00    +0.000 C 
ENDROOT
BRANCH   3   6
ATOM      6  N   UNL     1       4.250   4.683  18.098  0.00  0.00    +0.000 N 
ATOM      7  C   UNL     1       3.708   5.838  18.622  0.00  0.00    +0.000 A 
ATOM      8  C   UNL     1       2.554   5.504  19.294  0.00  0.00    +0.000 A 
ATOM      9  C   UNL     1       2.376   4.101  19.169  0.00  0.00    +0.000 A 
ATOM     10  C   UNL     1       1.436   3.160  19.616  0.00  0.00    +0.000 A 
ATOM     11  N   UNL     1       0.348   3.487  20.411  0.00  0.00    +0.000 N 
ATOM     12  N   UNL     1       1.583   1.871  19.260  0.00  0.00    +0.000 NA
ATOM     13  C   UNL     1       2.662   1.536  18.525  0.00  0.00    +0.000 A 
ATOM     14  N   UNL     1       3.650   2.333  18.080  0.00  0.00    +0.000 NA
ATOM     15  C   UNL     1       3.441   3.616  18.418  0.00  0.00    +0.000 A 
ATOM     16  H   UNL     1       0.047   4.450  20.378  0.00  0.00    +0.000 HD
ATOM     17  H   UNL     1      -0.368   2.772  20.383  0.00  0.00    +0.000 HD
ENDBRANCH   3   6
BRANCH   4  18
ATOM     18  O   UNL     1       5.191   5.555  15.097  0.00  0.00    +0.000 OA
ATOM     19  H   UNL     1       4.446   4.931  15.229  0.00  0.00    +0.000 HD
ENDBRANCH   4  18
BRANCH   5  20
ATOM     20  O   UNL     1       7.699   4.879  15.387  0.00  0.00    +0.000 OA
ATOM     21  H   UNL     1       6.997   4.214  15.263  0.00  0.00    +0.000 HD
ENDBRANCH   5  20
BRANCH   1  22
ATOM     22  C   UNL     1       7.888   6.672  18.695  0.00  0.00    +0.000 C 
BRANCH  22  23
ATOM     23  S   UNL     1       7.869   8.233  17.737  0.00  0.00    +0.000 S 
BRANCH  23  24
ATOM     24  C   UNL     1       8.815   9.307  18.875  0.00  0.00    +0.000 C 
BRANCH  24  25
ATOM     25  C   UNL     1       9.158  10.609  18.146  0.00  0.00    +0.000 C 
BRANCH  25  26
ATOM     26  C   UNL     1      10.132  11.513  18.913  0.00  0.00    +0.000 C 
BRANCH  26  27
ATOM     27  N   UNL     1       9.957  11.351  20.378  0.00  0.00    +0.000 NA
ATOM     28  H   UNL     1      10.104  10.364  20.608  0.00  0.00    +0.000 HD
ATOM     29  H   UNL     1       8.965  11.496  20.590  0.00  0.00    +0.000 HD
ENDBRANCH  26  27
BRANCH  26  30
ATOM     30  C   UNL     1       9.910  12.991  18.521  0.00  0.00    +0.000 C 
ATOM     31  O   UNL     1       9.490  13.851  19.286  0.00  0.00    +0.000 OA
BRANCH  30  33
ATOM     32  C   UNL     1      11.688  13.213  17.007  0.00  0.00    +0.000 C 
ATOM     33  O   UNL     1      10.277  13.205  17.227  0.00  0.00    +0.000 OA
ENDBRANCH  30  33
ENDBRANCH  26  30
ENDBRANCH  25  26
ENDBRANCH  24  25
ENDBRANCH  23  24
ENDBRANCH  22  23
ENDBRANCH   1  22
TORSDOF 11
ENDMDL
MODEL 7
REMARK VINA RESULT:      -6.7      4.779      7.276
REMARK  Name = 
REMARK  12 active torsions:
REMARK  status: ('A' for Active; 'I' for Inactive)
REMARK    1  A    between atoms: C_1  and  O_2
REMARK    2  A    between atoms: O_2  and  C_3
REMARK    3  A    between atoms: C_3  and  C_5
REMARK    4  A    between atoms: C_5  and  N_6
REMARK    5  A    between atoms: C_5  and  C_7
REMARK    6  A    between atoms: C_7  and  C_8
REMARK    7  A    between atoms: C_8  and  S_9
REMARK    8  A    between atoms: S_9  and  C_10
REMARK    9  A    between atoms: C_10  and  C_11
REMARK   10  A    between atoms: C_13  and  N_14
REMARK   11  A    between atoms: C_24  and  O_25
REMARK   12  A    between atoms: C_26  and  O_27
REMARK                            x       y       z     vdW  Elec       q    Type
REMARK                         _______ _______ _______ _____ _____    ______ ____
ROOT
ATOM      1  C   UNL     1       7.411   6.258  17.333  0.00  0.00    +0.000 C 
ATOM      2  O   UNL     1       6.722   5.478  18.337  0.00  0.00    +0.000 OA
ATOM      3  C   UNL     1       5.718   4.664  17.696  0.00  0.00    +0.000 C 
ATOM      4  C   UNL     1       5.560   5.161  16.262  0.00  0.00    +0.000 C 
ATOM      5  C   UNL     1       6.956   5.698  15.981  0.00  0.00    +0.000 C 
ENDROOT
BRANCH   3   6
ATOM      6  N   UNL     1       4.500   4.647  18.490  0.00  0.00    +0.000 N 
ATOM      7  C   UNL     1       4.193   5.600  19.439  0.00  0.00    +0.000 A 
ATOM      8  C   UNL     1       3.000   5.250  20.028  0.00  0.00    +0.000 A 
ATOM      9  C   UNL     1       2.554   4.050  19.413  0.00  0.00    +0.000 A 
ATOM     10  C   UNL     1       1.453   3.193  19.556  0.00  0.00    +0.000 A 
ATOM     11  N   UNL     1       0.451   3.387  20.496  0.00  0.00    +0.000 N 
ATOM     12  N   UNL     1       1.347   2.126  18.745  0.00  0.00    +0.000 NA
ATOM     13  C   UNL     1       2.338   1.903  17.859  0.00  0.00    +0.000 A 
ATOM     14  N   UNL     1       3.460   2.620  17.661  0.00  0.00    +0.000 NA
ATOM     15  C   UNL     1       3.503   3.700  18.458  0.00  0.00    +0.000 A 
ATOM     16  H   UNL     1       0.342   4.330  20.839  0.00  0.00    +0.000 HD
ATOM     17  H   UNL     1      -0.389   2.873  20.263  0.00  0.00    +0.000 HD
ENDBRANCH   3   6
BRANCH   4  18
ATOM     18  O   UNL     1       5.219   4.109  15.352  0.00  0.00    +0.000 OA
ATOM     19  H   UNL     1       5.614   3.291  15.723  0.00  0.00    +0.000 HD
ENDBRANCH   4  18
BRANCH   5  20
ATOM     20  O   UNL     1       7.780   4.584  15.570  0.00  0.00    +0.000 OA
ATOM     21  H   UNL     1       8.061   4.091  16.362  0.00  0.00    +0.000 HD
ENDBRANCH   5  20
BRANCH   1  22
ATOM     22  C   UNL     1       7.113   7.762  17.480  0.00  0.00    +0.000 C 
BRANCH  22  23
ATOM     23  S   UNL     1       8.462   8.621  18.370  0.00  0.00    +0.000 S 
BRANCH  23  24
ATOM     24  C   UNL     1       8.137  10.342  17.843  0.00  0.00    +0.000 C 
BRANCH  24  25
ATOM     25  C   UNL     1       9.412  11.165  18.047  0.00  0.00    +0.000 C 
BRANCH  25  26
ATOM     26  C   UNL     1       9.177  12.682  18.062  0.00  0.00    +0.000 C 
BRANCH  26  27
ATOM     27  N   UNL     1       8.109  13.057  17.101  0.00  0.00    +0.000 NA
ATOM     28  H   UNL     1       7.940  14.063  17.193  0.00  0.00    +0.000 HD
ATOM     29  H   UNL     1       7.234  12.641  17.432  0.00  0.00    +0.000 HD
ENDBRANCH  26  27
BRANCH  26  30
ATOM     30  C   UNL     1      10.483  13.427  17.709  0.00  0.00    +0.000 C 
ATOM     31  O   UNL     1      11.120  13.251  16.678  0.00  0.00    +0.000 OA
BRANCH  30  33
ATOM     32  C   UNL     1      11.565  13.782  19.760  0.00  0.00    +0.000 C 
ATOM     33  O   UNL     1      10.801  14.326  18.682  0.00  0.00    +0.000 OA
ENDBRANCH  30  33
ENDBRANCH  26  30
ENDBRANCH  25  26
ENDBRANCH  24  25
ENDBRANCH  23  24
ENDBRANCH  22  23
ENDBRANCH   1  22
TORSDOF 11
ENDMDL
MODEL 8
REMARK VINA RESULT:      -6.7      2.691      5.442
REMARK  Name = 
REMARK  12 active torsions:
REMARK  status: ('A' for Active; 'I' for Inactive)
REMARK    1  A    between atoms: C_1  and  O_2
REMARK    2  A    between atoms: O_2  and  C_3
REMARK    3  A    between atoms: C_3  and  C_5
REMARK    4  A    between atoms: C_5  and  N_6
REMARK    5  A    between atoms: C_5  and  C_7
REMARK    6  A    between atoms: C_7  and  C_8
REMARK    7  A    between atoms: C_8  and  S_9
REMARK    8  A    between atoms: S_9  and  C_10
REMARK    9  A    between atoms: C_10  and  C_11
REMARK   10  A    between atoms: C_13  and  N_14
REMARK   11  A    between atoms: C_24  and  O_25
REMARK   12  A    between atoms: C_26  and  O_27
REMARK                            x       y       z     vdW  Elec       q    Type
REMARK                         _______ _______ _______ _____ _____    ______ ____
ROOT
ATOM      1  C   UNL     1       4.083   3.482  20.307  0.00  0.00    +0.000 C 
ATOM      2  O   UNL     1       3.969   4.920  20.406  0.00  0.00    +0.000 OA
ATOM      3  C   UNL     1       2.576   5.289  20.327  0.00  0.00    +0.000 C 
ATOM      4  C   UNL     1       1.793   4.063  19.865  0.00  0.00    +0.000 C 
ATOM      5  C   UNL     1       2.654   2.938  20.419  0.00  0.00    +0.000 C 
ENDROOT
BRANCH   3   6
ATOM      6  N   UNL     1       2.415   6.479  19.508  0.00  0.00    +0.000 N 
ATOM      7  C   UNL     1       2.923   6.604  18.232  0.00  0.00    +0.000 A 
ATOM      8  C   UNL     1       2.630   7.868  17.774  0.00  0.00    +0.000 A 
ATOM      9  C   UNL     1       1.908   8.537  18.797  0.00  0.00    +0.000 A 
ATOM     10  C   UNL     1       1.344   9.811  18.965  0.00  0.00    +0.000 A 
ATOM     11  N   UNL     1       1.426  10.814  18.012  0.00  0.00    +0.000 N 
ATOM     12  N   UNL     1       0.682  10.086  20.104  0.00  0.00    +0.000 NA
ATOM     13  C   UNL     1       0.635   9.133  21.056  0.00  0.00    +0.000 A 
ATOM     14  N   UNL     1       1.174   7.900  21.032  0.00  0.00    +0.000 NA
ATOM     15  C   UNL     1       1.785   7.651  19.862  0.00  0.00    +0.000 A 
ATOM     16  H   UNL     1       1.593  10.511  17.063  0.00  0.00    +0.000 HD
ATOM     17  H   UNL     1       0.728  11.531  18.158  0.00  0.00    +0.000 HD
ENDBRANCH   3   6
BRANCH   4  18
ATOM     18  O   UNL     1       0.471   4.018  20.414  0.00  0.00    +0.000 OA
ATOM     19  H   UNL     1       0.475   4.628  21.182  0.00  0.00    +0.000 HD
ENDBRANCH   4  18
BRANCH   5  20
ATOM     20  O   UNL     1       2.278   2.735  21.800  0.00  0.00    +0.000 OA
ATOM     21  H   UNL     1       1.354   2.425  21.833  0.00  0.00    +0.000 HD
ENDBRANCH   5  20
BRANCH   1  22
ATOM     22  C   UNL     1       4.776   3.057  18.998  0.00  0.00    +0.000 C 
BRANCH  22  23
ATOM     23  S   UNL     1       3.554   2.775  17.664  0.00  0.00    +0.000 S 
BRANCH  23  24
ATOM     24  C   UNL     1       4.098   4.047  16.469  0.00  0.00    +0.000 C 
BRANCH  24  25
ATOM     25  C   UNL     1       5.628   4.111  16.486  0.00  0.00    +0.000 C 
BRANCH  25  26
ATOM     26  C   UNL     1       6.200   5.452  16.006  0.00  0.00    +0.000 C 
BRANCH  26  27
ATOM     27  N   UNL     1       7.383   5.236  15.135  0.00  0.00    +0.000 NA
ATOM     28  H   UNL     1       7.525   6.083  14.577  0.00  0.00    +0.000 HD
ATOM     29  H   UNL     1       7.129   4.534  14.435  0.00  0.00    +0.000 HD
ENDBRANCH  26  27
BRANCH  26  30
ATOM     30  C   UNL     1       6.595   6.328  17.215  0.00  0.00    +0.000 C 
ATOM     31  O   UNL     1       6.410   6.012  18.384  0.00  0.00    +0.000 OA
BRANCH  30  33
ATOM     32  C   UNL     1       7.955   8.143  17.814  0.00  0.00    +0.000 C 
ATOM     33  O   UNL     1       7.204   7.473  16.800  0.00  0.00    +0.000 OA
ENDBRANCH  30  33
ENDBRANCH  26  30
ENDBRANCH  25  26
ENDBRANCH  24  25
ENDBRANCH  23  24
ENDBRANCH  22  23
ENDBRANCH   1  22
TORSDOF 11
ENDMDL
MODEL 9
REMARK VINA RESULT:      -6.6      2.901      6.296
REMARK  Name = 
REMARK  12 active torsions:
REMARK  status: ('A' for Active; 'I' for Inactive)
REMARK    1  A    between atoms: C_1  and  O_2
REMARK    2  A    between atoms: O_2  and  C_3
REMARK    3  A    between atoms: C_3  and  C_5
REMARK    4  A    between atoms: C_5  and  N_6
REMARK    5  A    between atoms: C_5  and  C_7
REMARK    6  A    between atoms: C_7  and  C_8
REMARK    7  A    between atoms: C_8  and  S_9
REMARK    8  A    between atoms: S_9  and  C_10
REMARK    9  A    between atoms: C_10  and  C_11
REMARK   10  A    between atoms: C_13  and  N_14
REMARK   11  A    between atoms: C_24  and  O_25
REMARK   12  A    between atoms: C_26  and  O_27
REMARK                            x       y       z     vdW  Elec       q    Type
REMARK                         _______ _______ _______ _____ _____    ______ ____
ROOT
ATOM      1  C   UNL     1       4.831   4.115  19.371  0.00  0.00    +0.000 C 
ATOM      2  O   UNL     1       4.263   5.351  19.864  0.00  0.00    +0.000 OA
ATOM      3  C   UNL     1       2.874   5.420  19.477  0.00  0.00    +0.000 C 
ATOM      4  C   UNL     1       2.622   4.325  18.445  0.00  0.00    +0.000 C 
ATOM      5  C   UNL     1       3.647   3.282  18.866  0.00  0.00    +0.000 C 
ENDROOT
BRANCH   3   6
ATOM      6  N   UNL     1       2.535   6.768  19.054  0.00  0.00    +0.000 N 
ATOM      7  C   UNL     1       2.921   7.310  17.845  0.00  0.00    +0.000 A 
ATOM      8  C   UNL     1       2.473   8.610  17.795  0.00  0.00    +0.000 A 
ATOM      9  C   UNL     1       1.781   8.872  19.007  0.00  0.00    +0.000 A 
ATOM     10  C   UNL     1       1.117   9.972  19.571  0.00  0.00    +0.000 A 
ATOM     11  N   UNL     1       1.025  11.209  18.951  0.00  0.00    +0.000 N 
ATOM     12  N   UNL     1       0.531   9.833  20.774  0.00  0.00    +0.000 NA
ATOM     13  C   UNL     1       0.653   8.648  21.405  0.00  0.00    +0.000 A 
ATOM     14  N   UNL     1       1.300   7.543  20.992  0.00  0.00    +0.000 NA
ATOM     15  C   UNL     1       1.831   7.710  19.769  0.00  0.00    +0.000 A 
ATOM     16  H   UNL     1       1.140  11.212  17.948  0.00  0.00    +0.000 HD
ATOM     17  H   UNL     1       0.278  11.770  19.338  0.00  0.00    +0.000 HD
ENDBRANCH   3   6
BRANCH   4  18
ATOM     18  O   UNL     1       1.292   3.798  18.519  0.00  0.00    +0.000 OA
ATOM     19  H   UNL     1       1.039   3.570  17.598  0.00  0.00    +0.000 HD
ENDBRANCH   4  18
BRANCH   5  20
ATOM     20  O   UNL     1       3.066   2.498  19.931  0.00  0.00    +0.000 OA
ATOM     21  H   UNL     1       3.753   2.314  20.598  0.00  0.00    +0.000 HD
ENDBRANCH   5  20
BRANCH   1  22
ATOM     22  C   UNL     1       5.882   4.373  18.275  0.00  0.00    +0.000 C 
BRANCH  22  23
ATOM     23  S   UNL     1       6.815   5.914  18.602  0.00  0.00    +0.000 S 
BRANCH  23  24
ATOM     24  C   UNL     1       7.316   6.343  16.896  0.00  0.00    +0.000 C 
BRANCH  24  25
ATOM     25  C   UNL     1       6.357   5.657  15.919  0.00  0.00    +0.000 C 
BRANCH  25  26
ATOM     26  C   UNL     1       7.057   4.768  14.882  0.00  0.00    +0.000 C 
BRANCH  26  27
ATOM     27  N   UNL     1       8.052   5.549  14.105  0.00  0.00    +0.000 NA
ATOM     28  H   UNL     1       8.959   5.462  14.572  0.00  0.00    +0.000 HD
ATOM     29  H   UNL     1       7.824   6.541  14.219  0.00  0.00    +0.000 HD
ENDBRANCH  26  27
BRANCH  26  30
ATOM     30  C   UNL     1       6.017   4.147  13.923  0.00  0.00    +0.000 C 
ATOM     31  O   UNL     1       4.813   4.109  14.143  0.00  0.00    +0.000 OA
BRANCH  30  33
ATOM     32  C   UNL     1       5.777   2.896  11.952  0.00  0.00    +0.000 C 
ATOM     33  O   UNL     1       6.622   3.684  12.793  0.00  0.00    +0.000 OA
ENDBRANCH  30  33
ENDBRANCH  26  30
ENDBRANCH  25  26
ENDBRANCH  24  25
ENDBRANCH  23  24
ENDBRANCH  22  23
ENDBRANCH   1  22
TORSDOF 11
ENDMDL
