MODEL 1
REMARK VINA RESULT:      -7.2      0.000      0.000
REMARK  Name = 
REMARK  5 active torsions:
REMARK  status: ('A' for Active; 'I' for Inactive)
REMARK    1  A    between atoms: C_1  and  N_2
REMARK    2  A    between atoms: N_9  and  C_10
REMARK    3  A    between atoms: C_10  and  C_11
REMARK    4  A    between atoms: C_14  and  C_15
REMARK    5  A    between atoms: N_21  and  C_22
REMARK                            x       y       z     vdW  Elec       q    Type
REMARK                         _______ _______ _______ _____ _____    ______ ____
ROOT
ATOM      1  C   UNL     1       7.905   6.647  18.027  0.00  0.00    +0.000 C 
ATOM      2  N   UNL     1       6.879   5.733  17.567  0.00  0.00    +0.000 N 
ATOM      3  C   UNL     1       5.989   5.215  18.510  0.00  0.00    +0.000 A 
ATOM      4  O   UNL     1       6.027   5.470  19.709  0.00  0.00    +0.000 OA
ATOM      5  C   UNL     1       5.025   4.338  17.940  0.00  0.00    +0.000 A 
ATOM      6  C   UNL     1       4.990   4.027  16.614  0.00  0.00    +0.000 A 
ATOM      7  N   UNL     1       3.975   3.170  16.322  0.00  0.00    +0.000 NA
ATOM      8  C   UNL     1       3.372   2.962  17.476  0.00  0.00    +0.000 A 
ATOM      9  N   UNL     1       3.980   3.652  18.494  0.00  0.00    +0.000 N 
ATOM     10  N   UNL     1       5.904   4.546  15.730  0.00  0.00    +0.000 N 
ATOM     11  C   UNL     1       5.884   4.208  14.322  0.00  0.00    +0.000 C 
ATOM     12  C   UNL     1       6.882   5.427  16.193  0.00  0.00    +0.000 A 
ATOM     13  O   UNL     1       7.722   5.917  15.430  0.00  0.00    +0.000 OA
ENDROOT
BRANCH   9  14
ATOM     14  C   UNL     1       3.588   3.614  19.891  0.00  0.00    +0.000 C 
BRANCH  14  15
ATOM     15  C   UNL     1       2.733   4.777  20.234  0.00  0.00    +0.000 A 
ATOM     16  N   UNL     1       1.876   4.893  21.229  0.00  0.00    +0.000 NA
ATOM     17  C   UNL     1       1.380   6.164  21.076  0.00  0.00    +0.000 A 
ATOM     18  C   UNL     1       1.946   6.795  19.982  0.00  0.00    +0.000 A 
ATOM     19  O   UNL     1       2.832   5.888  19.443  0.00  0.00    +0.000 OA
BRANCH  18  20
ATOM     20  C   UNL     1       1.730   8.103  19.432  0.00  0.00    +0.000 A 
ATOM     21  C   UNL     1       2.104   8.542  18.176  0.00  0.00    +0.000 A 
ATOM     22  C   UNL     1       1.732   9.898  17.934  0.00  0.00    +0.000 A 
ATOM     23  C   UNL     1       1.089  10.454  19.017  0.00  0.00    +0.000 A 
ATOM     24  S   UNL     1       0.937   9.345  20.308  0.00  0.00    +0.000 S 
ENDBRANCH  18  20
ENDBRANCH  14  15
ENDBRANCH   9  14
TORSDOF 3
ENDMDL
MODEL 2
REMARK VINA RESULT:      -7.2      3.209      5.098
REMARK  Name = 
REMARK  5 active torsions:
REMARK  status: ('A' for Active; 'I' for Inactive)
REMARK    1  A    between atoms: C_1  and  N_2
REMARK    2  A    between atoms: N_9  and  C_10
REMARK    3  A    between atoms: C_10  and  C_11
REMARK    4  A    between atoms: C_14  and  C_15
REMARK    5  A    between atoms: N_21  and  C_22
REMARK                            x       y       z     vdW  Elec       q    Type
REMARK                         _______ _______ _______ _____ _____    ______ ____
ROOT
ATOM      1  C   UNL     1       4.822   4.072  16.787  0.00  0.00    +0.000 C 
ATOM      2  N   UNL     1       4.005   4.616  17.854  0.00  0.00    +0.000 N 
ATOM      3  C   UNL     1       3.654   5.965  17.789  0.00  0.00    +0.000 A 
ATOM      4  O   UNL     1       4.005   6.729  16.896  0.00  0.00    +0.000 OA
ATOM      5  C   UNL     1       2.848   6.382  18.885  0.00  0.00    +0.000 A 
ATOM      6  C   UNL     1       2.475   5.548  19.896  0.00  0.00    +0.000 A 
ATOM      7  N   UNL     1       1.707   6.186  20.820  0.00  0.00    +0.000 NA
ATOM      8  C   UNL     1       1.595   7.419  20.367  0.00  0.00    +0.000 A 
ATOM      9  N   UNL     1       2.278   7.587  19.189  0.00  0.00    +0.000 N 
ATOM     10  N   UNL     1       2.867   4.232  19.924  0.00  0.00    +0.000 N 
ATOM     11  C   UNL     1       2.488   3.344  21.004  0.00  0.00    +0.000 C 
ATOM     12  C   UNL     1       3.650   3.727  18.886  0.00  0.00    +0.000 A 
ATOM     13  O   UNL     1       4.022   2.549  18.872  0.00  0.00    +0.000 OA
ENDROOT
BRANCH   9  14
ATOM     14  C   UNL     1       2.388   8.829  18.446  0.00  0.00    +0.000 C 
BRANCH  14  15
ATOM     15  C   UNL     1       1.178   9.666  18.631  0.00  0.00    +0.000 A 
ATOM     16  N   UNL     1       0.934  10.550  19.577  0.00  0.00    +0.000 NA
ATOM     17  C   UNL     1      -0.313  11.027  19.258  0.00  0.00    +0.000 A 
ATOM     18  C   UNL     1      -0.805  10.414  18.118  0.00  0.00    +0.000 A 
ATOM     19  O   UNL     1       0.173   9.535  17.712  0.00  0.00    +0.000 OA
BRANCH  18  20
ATOM     20  C   UNL     1      -2.052  10.577  17.425  0.00  0.00    +0.000 A 
ATOM     21  C   UNL     1      -2.392  10.035  16.200  0.00  0.00    +0.000 A 
ATOM     22  C   UNL     1      -3.715  10.380  15.794  0.00  0.00    +0.000 A 
ATOM     23  C   UNL     1      -4.342  11.182  16.720  0.00  0.00    +0.000 A 
ATOM     24  S   UNL     1      -3.342  11.507  18.066  0.00  0.00    +0.000 S 
ENDBRANCH  18  20
ENDBRANCH  14  15
ENDBRANCH   9  14
TORSDOF 3
ENDMDL
MODEL 3
REMARK VINA RESULT:      -7.1      1.935      2.341
REMARK  Name = 
REMARK  5 active torsions:
REMARK  status: ('A' for Active; 'I' for Inactive)
REMARK    1  A    between atoms: C_1  and  N_2
REMARK    2  A    between atoms: N_9  and  C_10
REMARK    3  A    between atoms: C_10  and  C_11
REMARK    4  A    between atoms: C_14  and  C_15
REMARK    5  A    between atoms: N_21  and  C_22
REMARK                            x       y       z     vdW  Elec       q    Type
REMARK                         _______ _______ _______ _____ _____    ______ ____
ROOT
ATOM      1  C   UNL     1       7.954   5.860  18.547  0.00  0.00    +0.000 C 
ATOM      2  N   UNL     1       6.726   5.271  18.049  0.00  0.00    +0.000 N 
ATOM      3  C   UNL     1       5.583   5.363  18.844  0.00  0.00    +0.000 A 
ATOM      4  O   UNL     1       5.551   5.897  19.949  0.00  0.00    +0.000 OA
ATOM      5  C   UNL     1       4.442   4.757  18.249  0.00  0.00    +0.000 A 
ATOM      6  C   UNL     1       4.474   4.139  17.035  0.00  0.00    +0.000 A 
ATOM      7  N   UNL     1       3.255   3.642  16.689  0.00  0.00    +0.000 NA
ATOM      8  C   UNL     1       2.465   3.969  17.692  0.00  0.00    +0.000 A 
ATOM      9  N   UNL     1       3.146   4.649  18.670  0.00  0.00    +0.000 N 
ATOM     10  N   UNL     1       5.632   4.056  16.301  0.00  0.00    +0.000 N 
ATOM     11  C   UNL     1       5.677   3.386  15.017  0.00  0.00    +0.000 C 
ATOM     12  C   UNL     1       6.801   4.632  16.797  0.00  0.00    +0.000 A 
ATOM     13  O   UNL     1       7.863   4.580  16.167  0.00  0.00    +0.000 OA
ENDROOT
BRANCH   9  14
ATOM     14  C   UNL     1       2.581   5.120  19.921  0.00  0.00    +0.000 C 
BRANCH  14  15
ATOM     15  C   UNL     1       2.168   6.541  19.815  0.00  0.00    +0.000 A 
ATOM     16  N   UNL     1       2.383   7.381  18.823  0.00  0.00    +0.000 NA
ATOM     17  C   UNL     1       1.783   8.540  19.249  0.00  0.00    +0.000 A 
ATOM     18  C   UNL     1       1.216   8.378  20.501  0.00  0.00    +0.000 A 
ATOM     19  O   UNL     1       1.465   7.072  20.861  0.00  0.00    +0.000 OA
BRANCH  18  20
ATOM     20  C   UNL     1       0.505   9.302  21.340  0.00  0.00    +0.000 A 
ATOM     21  C   UNL     1      -0.166   9.004  22.512  0.00  0.00    +0.000 A 
ATOM     22  C   UNL     1      -0.761  10.154  23.111  0.00  0.00    +0.000 A 
ATOM     23  C   UNL     1      -0.530  11.293  22.374  0.00  0.00    +0.000 A 
ATOM     24  S   UNL     1       0.399  10.974  20.977  0.00  0.00    +0.000 S 
ENDBRANCH  18  20
ENDBRANCH  14  15
ENDBRANCH   9  14
TORSDOF 3
ENDMDL
MODEL 4
REMARK VINA RESULT:      -6.9      2.988      5.762
REMARK  Name = 
REMARK  5 active torsions:
REMARK  status: ('A' for Active; 'I' for Inactive)
REMARK    1  A    between atoms: C_1  and  N_2
REMARK    2  A    between atoms: N_9  and  C_10
REMARK    3  A    between atoms: C_10  and  C_11
REMARK    4  A    between atoms: C_14  and  C_15
REMARK    5  A    between atoms: N_21  and  C_22
REMARK                            x       y       z     vdW  Elec       q    Type
REMARK                         _______ _______ _______ _____ _____    ______ ____
ROOT
ATOM      1  C   UNL     1       1.734   7.145  20.226  0.00  0.00    +0.000 C 
ATOM      2  N   UNL     1       2.375   6.085  19.474  0.00  0.00    +0.000 N 
ATOM      3  C   UNL     1       3.326   6.441  18.516  0.00  0.00    +0.000 A 
ATOM      4  O   UNL     1       3.646   7.597  18.256  0.00  0.00    +0.000 OA
ATOM      5  C   UNL     1       3.891   5.318  17.850  0.00  0.00    +0.000 A 
ATOM      6  C   UNL     1       3.523   4.033  18.112  0.00  0.00    +0.000 A 
ATOM      7  N   UNL     1       4.210   3.144  17.343  0.00  0.00    +0.000 NA
ATOM      8  C   UNL     1       5.014   3.888  16.611  0.00  0.00    +0.000 A 
ATOM      9  N   UNL     1       4.853   5.223  16.883  0.00  0.00    +0.000 N 
ATOM     10  N   UNL     1       2.565   3.736  19.050  0.00  0.00    +0.000 N 
ATOM     11  C   UNL     1       2.158   2.373  19.324  0.00  0.00    +0.000 C 
ATOM     12  C   UNL     1       1.962   4.771  19.765  0.00  0.00    +0.000 A 
ATOM     13  O   UNL     1       1.096   4.547  20.618  0.00  0.00    +0.000 OA
ENDROOT
BRANCH   9  14
ATOM     14  C   UNL     1       5.558   6.309  16.228  0.00  0.00    +0.000 C 
BRANCH  14  15
ATOM     15  C   UNL     1       6.618   6.861  17.107  0.00  0.00    +0.000 A 
ATOM     16  N   UNL     1       7.386   6.216  17.961  0.00  0.00    +0.000 NA
ATOM     17  C   UNL     1       8.181   7.205  18.486  0.00  0.00    +0.000 A 
ATOM     18  C   UNL     1       7.873   8.438  17.939  0.00  0.00    +0.000 A 
ATOM     19  O   UNL     1       6.859   8.205  17.036  0.00  0.00    +0.000 OA
BRANCH  18  20
ATOM     20  C   UNL     1       8.421   9.742  18.186  0.00  0.00    +0.000 A 
ATOM     21  C   UNL     1       8.233  10.875  17.417  0.00  0.00    +0.000 A 
ATOM     22  C   UNL     1       8.908  12.015  17.945  0.00  0.00    +0.000 A 
ATOM     23  C   UNL     1       9.597  11.715  19.098  0.00  0.00    +0.000 A 
ATOM     24  S   UNL     1       9.423  10.073  19.537  0.00  0.00    +0.000 S 
ENDBRANCH  18  20
ENDBRANCH  14  15
ENDBRANCH   9  14
TORSDOF 3
ENDMDL
MODEL 5
REMARK VINA RESULT:      -6.9      3.114      5.348
REMARK  Name = 
REMARK  5 active torsions:
REMARK  status: ('A' for Active; 'I' for Inactive)
REMARK    1  A    between atoms: C_1  and  N_2
REMARK    2  A    between atoms: N_9  and  C_10
REMARK    3  A    between atoms: C_10  and  C_11
REMARK    4  A    between atoms: C_14  and  C_15
REMARK    5  A    between atoms: N_21  and  C_22
REMARK                            x       y       z     vdW  Elec       q    Type
REMARK                         _______ _______ _______ _____ _____    ______ ____
ROOT
ATOM      1  C   UNL     1       4.419   3.384  17.358  0.00  0.00    +0.000 C 
ATOM      2  N   UNL     1       3.664   4.185  18.301  0.00  0.00    +0.000 N 
ATOM      3  C   UNL     1       3.446   5.529  17.994  0.00  0.00    +0.000 A 
ATOM      4  O   UNL     1       3.865   6.084  16.984  0.00  0.00    +0.000 OA
ATOM      5  C   UNL     1       2.689   6.209  18.988  0.00  0.00    +0.000 A 
ATOM      6  C   UNL     1       2.241   5.608  20.126  0.00  0.00    +0.000 A 
ATOM      7  N   UNL     1       1.543   6.472  20.912  0.00  0.00    +0.000 NA
ATOM      8  C   UNL     1       1.550   7.609  20.247  0.00  0.00    +0.000 A 
ATOM      9  N   UNL     1       2.241   7.498  19.066  0.00  0.00    +0.000 N 
ATOM     10  N   UNL     1       2.503   4.286  20.392  0.00  0.00    +0.000 N 
ATOM     11  C   UNL     1       2.044   3.645  21.607  0.00  0.00    +0.000 C 
ATOM     12  C   UNL     1       3.229   3.532  19.470  0.00  0.00    +0.000 A 
ATOM     13  O   UNL     1       3.484   2.340  19.670  0.00  0.00    +0.000 OA
ENDROOT
BRANCH   9  14
ATOM     14  C   UNL     1       2.467   8.572  18.117  0.00  0.00    +0.000 C 
BRANCH  14  15
ATOM     15  C   UNL     1       1.497   9.675  18.321  0.00  0.00    +0.000 A 
ATOM     16  N   UNL     1       1.688  10.827  18.931  0.00  0.00    +0.000 NA
ATOM     17  C   UNL     1       0.472  11.455  18.817  0.00  0.00    +0.000 A 
ATOM     18  C   UNL     1      -0.438  10.664  18.139  0.00  0.00    +0.000 A 
ATOM     19  O   UNL     1       0.237   9.509  17.813  0.00  0.00    +0.000 OA
BRANCH  18  20
ATOM     20  C   UNL     1      -1.814  10.891  17.798  0.00  0.00    +0.000 A 
ATOM     21  C   UNL     1      -2.746  11.585  18.546  0.00  0.00    +0.000 A 
ATOM     22  C   UNL     1      -4.026  11.638  17.919  0.00  0.00    +0.000 A 
ATOM     23  C   UNL     1      -4.033  10.975  16.712  0.00  0.00    +0.000 A 
ATOM     24  S   UNL     1      -2.507  10.303  16.344  0.00  0.00    +0.000 S 
ENDBRANCH  18  20
ENDBRANCH  14  15
ENDBRANCH   9  14
TORSDOF 3
ENDMDL
MODEL 6
REMARK VINA RESULT:      -6.8      3.277      4.894
REMARK  Name = 
REMARK  5 active torsions:
REMARK  status: ('A' for Active; 'I' for Inactive)
REMARK    1  A    between atoms: C_1  and  N_2
REMARK    2  A    between atoms: N_9  and  C_10
REMARK    3  A    between atoms: C_10  and  C_11
REMARK    4  A    between atoms: C_14  and  C_15
REMARK    5  A    between atoms: N_21  and  C_22
REMARK                            x       y       z     vdW  Elec       q    Type
REMARK                         _______ _______ _______ _____ _____    ______ ____
ROOT
ATOM      1  C   UNL     1       2.976   3.085  20.418  0.00  0.00    +0.000 C 
ATOM      2  N   UNL     1       3.085   4.289  19.618  0.00  0.00    +0.000 N 
ATOM      3  C   UNL     1       2.441   5.441  20.073  0.00  0.00    +0.000 A 
ATOM      4  O   UNL     1       1.773   5.500  21.100  0.00  0.00    +0.000 OA
ATOM      5  C   UNL     1       2.625   6.556  19.210  0.00  0.00    +0.000 A 
ATOM      6  C   UNL     1       3.342   6.494  18.052  0.00  0.00    +0.000 A 
ATOM      7  N   UNL     1       3.368   7.693  17.409  0.00  0.00    +0.000 NA
ATOM      8  C   UNL     1       2.673   8.502  18.183  0.00  0.00    +0.000 A 
ATOM      9  N   UNL     1       2.196   7.852  19.293  0.00  0.00    +0.000 N 
ATOM     10  N   UNL     1       3.938   5.328  17.637  0.00  0.00    +0.000 N 
ATOM     11  C   UNL     1       4.688   5.251  16.401  0.00  0.00    +0.000 C 
ATOM     12  C   UNL     1       3.824   4.182  18.424  0.00  0.00    +0.000 A 
ATOM     13  O   UNL     1       4.345   3.114  18.088  0.00  0.00    +0.000 OA
ENDROOT
BRANCH   9  14
ATOM     14  C   UNL     1       1.366   8.443  20.327  0.00  0.00    +0.000 C 
BRANCH  14  15
ATOM     15  C   UNL     1       0.589   9.589  19.793  0.00  0.00    +0.000 A 
ATOM     16  N   UNL     1       0.771  10.874  20.022  0.00  0.00    +0.000 NA
ATOM     17  C   UNL     1      -0.214  11.474  19.276  0.00  0.00    +0.000 A 
ATOM     18  C   UNL     1      -0.980  10.533  18.610  0.00  0.00    +0.000 A 
ATOM     19  O   UNL     1      -0.447   9.309  18.946  0.00  0.00    +0.000 OA
BRANCH  18  20
ATOM     20  C   UNL     1      -2.110  10.685  17.738  0.00  0.00    +0.000 A 
ATOM     21  C   UNL     1      -2.262  10.136  16.479  0.00  0.00    +0.000 A 
ATOM     22  C   UNL     1      -3.512  10.472  15.879  0.00  0.00    +0.000 A 
ATOM     23  C   UNL     1      -4.274  11.274  16.698  0.00  0.00    +0.000 A 
ATOM     24  S   UNL     1      -3.486  11.611  18.176  0.00  0.00    +0.000 S 
ENDBRANCH  18  20
ENDBRANCH  14  15
ENDBRANCH   9  14
TORSDOF 3
ENDMDL
MODEL 7
REMARK VINA RESULT:      -6.8      3.359      7.131
REMARK  Name = 
REMARK  5 active torsions:
REMARK  status: ('A' for Active; 'I' for Inactive)
REMARK    1  A    between atoms: C_1  and  N_2
REMARK    2  A    between atoms: N_9  and  C_10
REMARK    3  A    between atoms: C_10  and  C_11
REMARK    4  A    between atoms: C_14  and  C_15
REMARK    5  A    between atoms: N_21  and  C_22
REMARK                            x       y       z     vdW  Elec       q    Type
REMARK                         _______ _______ _______ _____ _____    ______ ____
ROOT
ATOM      1  C   UNL     1       2.388   2.924  20.604  0.00  0.00    +0.000 C 
ATOM      2  N   UNL     1       2.881   4.081  19.884  0.00  0.00    +0.000 N 
ATOM      3  C   UNL     1       4.064   3.946  19.155  0.00  0.00    +0.000 A 
ATOM      4  O   UNL     1       4.726   2.915  19.096  0.00  0.00    +0.000 OA
ATOM      5  C   UNL     1       4.443   5.143  18.487  0.00  0.00    +0.000 A 
ATOM      6  C   UNL     1       3.730   6.302  18.568  0.00  0.00    +0.000 A 
ATOM      7  N   UNL     1       4.301   7.299  17.839  0.00  0.00    +0.000 NA
ATOM      8  C   UNL     1       5.366   6.746  17.295  0.00  0.00    +0.000 A 
ATOM      9  N   UNL     1       5.497   5.431  17.664  0.00  0.00    +0.000 N 
ATOM     10  N   UNL     1       2.583   6.388  19.318  0.00  0.00    +0.000 N 
ATOM     11  C   UNL     1       1.828   7.620  19.422  0.00  0.00    +0.000 C 
ATOM     12  C   UNL     1       2.123   5.262  20.001  0.00  0.00    +0.000 A 
ATOM     13  O   UNL     1       1.095   5.297  20.686  0.00  0.00    +0.000 OA
ENDROOT
BRANCH   9  14
ATOM     14  C   UNL     1       6.577   4.547  17.269  0.00  0.00    +0.000 C 
BRANCH  14  15
ATOM     15  C   UNL     1       6.770   4.566  15.799  0.00  0.00    +0.000 A 
ATOM     16  N   UNL     1       7.658   5.246  15.102  0.00  0.00    +0.000 NA
ATOM     17  C   UNL     1       7.392   4.884  13.805  0.00  0.00    +0.000 A 
ATOM     18  C   UNL     1       6.339   3.988  13.741  0.00  0.00    +0.000 A 
ATOM     19  O   UNL     1       5.944   3.780  15.044  0.00  0.00    +0.000 OA
BRANCH  18  20
ATOM     20  C   UNL     1       5.708   3.353  12.619  0.00  0.00    +0.000 A 
ATOM     21  C   UNL     1       4.457   3.637  12.105  0.00  0.00    +0.000 A 
ATOM     22  C   UNL     1       4.130   2.829  10.975  0.00  0.00    +0.000 A 
ATOM     23  C   UNL     1       5.141   1.948  10.666  0.00  0.00    +0.000 A 
ATOM     24  S   UNL     1       6.470   2.101  11.728  0.00  0.00    +0.000 S 
ENDBRANCH  18  20
ENDBRANCH  14  15
ENDBRANCH   9  14
TORSDOF 3
ENDMDL
MODEL 8
REMARK VINA RESULT:      -6.7      3.284      5.994
REMARK  Name = 
REMARK  5 active torsions:
REMARK  status: ('A' for Active; 'I' for Inactive)
REMARK    1  A    between atoms: C_1  and  N_2
REMARK    2  A    between atoms: N_9  and  C_10
REMARK    3  A    between atoms: C_10  and  C_11
REMARK    4  A    between atoms: C_14  and  C_15
REMARK    5  A    between atoms: N_21  and  C_22
REMARK                            x       y       z     vdW  Elec       q    Type
REMARK                         _______ _______ _______ _____ _____    ______ ____
ROOT
ATOM      1  C   UNL     1       4.775   2.021  19.846  0.00  0.00    +0.000 C 
ATOM      2  N   UNL     1       4.203   3.313  19.525  0.00  0.00    +0.000 N 
ATOM      3  C   UNL     1       4.889   4.130  18.624  0.00  0.00    +0.000 A 
ATOM      4  O   UNL     1       5.957   3.834  18.097  0.00  0.00    +0.000 OA
ATOM      5  C   UNL     1       4.229   5.366  18.382  0.00  0.00    +0.000 A 
ATOM      6  C   UNL     1       3.057   5.716  18.983  0.00  0.00    +0.000 A 
ATOM      7  N   UNL     1       2.632   6.946  18.583  0.00  0.00    +0.000 NA
ATOM      8  C   UNL     1       3.543   7.350  17.721  0.00  0.00    +0.000 A 
ATOM      9  N   UNL     1       4.540   6.419  17.567  0.00  0.00    +0.000 N 
ATOM     10  N   UNL     1       2.433   4.885  19.880  0.00  0.00    +0.000 N 
ATOM     11  C   UNL     1       1.195   5.257  20.535  0.00  0.00    +0.000 C 
ATOM     12  C   UNL     1       2.998   3.644  20.173  0.00  0.00    +0.000 A 
ATOM     13  O   UNL     1       2.468   2.866  20.974  0.00  0.00    +0.000 OA
ENDROOT
BRANCH   9  14
ATOM     14  C   UNL     1       5.709   6.567  16.721  0.00  0.00    +0.000 C 
BRANCH  14  15
ATOM     15  C   UNL     1       6.830   7.189  17.466  0.00  0.00    +0.000 A 
ATOM     16  N   UNL     1       7.716   6.603  18.246  0.00  0.00    +0.000 NA
ATOM     17  C   UNL     1       8.515   7.640  18.660  0.00  0.00    +0.000 A 
ATOM     18  C   UNL     1       8.091   8.843  18.122  0.00  0.00    +0.000 A 
ATOM     19  O   UNL     1       6.998   8.540  17.341  0.00  0.00    +0.000 OA
BRANCH  18  20
ATOM     20  C   UNL     1       8.599  10.176  18.280  0.00  0.00    +0.000 A 
ATOM     21  C   UNL     1       8.371  11.251  17.441  0.00  0.00    +0.000 A 
ATOM     22  C   UNL     1       9.014  12.443  17.888  0.00  0.00    +0.000 A 
ATOM     23  C   UNL     1       9.719  12.239  19.052  0.00  0.00    +0.000 A 
ATOM     24  S   UNL     1       9.599  10.625  19.598  0.00  0.00    +0.000 S 
ENDBRANCH  18  20
ENDBRANCH  14  15
ENDBRANCH   9  14
TORSDOF 3
ENDMDL
MODEL 9
REMARK VINA RESULT:      -6.7      3.879      7.616
REMARK  Name = 
REMARK  5 active torsions:
REMARK  status: ('A' for Active; 'I' for Inactive)
REMARK    1  A    between atoms: C_1  and  N_2
REMARK    2  A    between atoms: N_9  and  C_10
REMARK    3  A    between atoms: C_10  and  C_11
REMARK    4  A    between atoms: C_14  and  C_15
REMARK    5  A    between atoms: N_21  and  C_22
REMARK                            x       y       z     vdW  Elec       q    Type
REMARK                         _______ _______ _______ _____ _____    ______ ____
ROOT
ATOM      1  C   UNL     1      -1.155  11.045  22.983  0.00  0.00    +0.000 C 
ATOM      2  N   UNL     1      -0.531  10.778  21.703  0.00  0.00    +0.000 N 
ATOM      3  C   UNL     1       0.212   9.604  21.566  0.00  0.00    +0.000 A 
ATOM      4  O   UNL     1       0.386   8.787  22.465  0.00  0.00    +0.000 OA
ATOM      5  C   UNL     1       0.768   9.447  20.266  0.00  0.00    +0.000 A 
ATOM      6  C   UNL     1       0.603  10.361  19.269  0.00  0.00    +0.000 A 
ATOM      7  N   UNL     1       1.232   9.980  18.124  0.00  0.00    +0.000 NA
ATOM      8  C   UNL     1       1.778   8.816  18.416  0.00  0.00    +0.000 A 
ATOM      9  N   UNL     1       1.524   8.451  19.714  0.00  0.00    +0.000 N 
ATOM     10  N   UNL     1      -0.119  11.513  19.462  0.00  0.00    +0.000 N 
ATOM     11  C   UNL     1      -0.286  12.497  18.412  0.00  0.00    +0.000 C 
ATOM     12  C   UNL     1      -0.714  11.750  20.701  0.00  0.00    +0.000 A 
ATOM     13  O   UNL     1      -1.373  12.773  20.916  0.00  0.00    +0.000 OA
ENDROOT
BRANCH   9  14
ATOM     14  C   UNL     1       2.009   7.247  20.362  0.00  0.00    +0.000 C 
BRANCH  14  15
ATOM     15  C   UNL     1       2.492   6.263  19.363  0.00  0.00    +0.000 A 
ATOM     16  N   UNL     1       1.802   5.335  18.731  0.00  0.00    +0.000 NA
ATOM     17  C   UNL     1       2.737   4.730  17.929  0.00  0.00    +0.000 A 
ATOM     18  C   UNL     1       3.985   5.304  18.096  0.00  0.00    +0.000 A 
ATOM     19  O   UNL     1       3.817   6.306  19.025  0.00  0.00    +0.000 OA
BRANCH  18  20
ATOM     20  C   UNL     1       5.251   5.000  17.490  0.00  0.00    +0.000 A 
ATOM     21  C   UNL     1       6.473   4.914  18.130  0.00  0.00    +0.000 A 
ATOM     22  C   UNL     1       7.538   4.582  17.240  0.00  0.00    +0.000 A 
ATOM     23  C   UNL     1       7.095   4.432  15.945  0.00  0.00    +0.000 A 
ATOM     24  S   UNL     1       5.411   4.685  15.812  0.00  0.00    +0.000 S 
ENDBRANCH  18  20
ENDBRANCH  14  15
ENDBRANCH   9  14
TORSDOF 3
ENDMDL
